TITL C-862131-2149-860 0.0341604805082923 125000 -963.360313772841 0 0 175 (C1) n - 1
REM
REM in /home/nfs/bkarasulu/CARBON/AIRSS/Generating-Clusters/TERSOFF/Higher-Symm/FIRE-HFTN
REM
REM
REM
REM
REM
REM ./C.cell (b20cbc046b6831c77cfcea5457e17084)
REM AIRSS Version 0.9.1 bugfix July 2018 build 013d7b7c2542+ Fri, 06 Jul 2018 19:26:36 +0100
REM compiler GCC version 9.2.1 20190827 (Red Hat 9.2.1-1)
REM options -cpp -mtune=generic -march=x86-64 -g -O0 -fpre-include=/usr/include/finclude/math-vector-fortran.h
REM seed 1963627028 -705792302 1014164127 367415738 -1856639750 1093324179 1378449478 -600552416 -311512276 -1662917839 -1490043408 559413169 -342990038 -1380847182 -563785795 -1144514041 1693620237 1042721461 1346041449 -329762734 -1540804317 -838109982 -2127683608 1396376513 1360541465 1877771656 1610285964 -1483912973 1151471554 -1963572981 422682640 634601557 956472502
REM
CELL 1.54180   50.00000   50.00000   50.00000   90.00000   90.00000   90.00000
LATT -1
SFAC C  
C      1  0.5661460000000  0.5249180000000  0.4924150000000 1.0
C      1  0.5664530000000  0.5133250000000  0.5209100000000 1.0
C      1  0.5657800000000  0.4826390000000  0.5190130000000 1.0
C      1  0.5655710000000  0.4749150000000  0.4889830000000 1.0
C      1  0.5656910000000  0.5012150000000  0.4724410000000 1.0
C      1  0.4335050000000  0.4760050000000  0.4931030000000 1.0
C      1  0.4341520000000  0.4871650000000  0.5216520000000 1.0
C      1  0.4345060000000  0.5180640000000  0.5199390000000 1.0
C      1  0.4344280000000  0.5258780000000  0.4899120000000 1.0
C      1  0.4342960000000  0.4996390000000  0.4733110000000 1.0
C      1  0.5690710000000  0.5759240000000  0.5481750000000 1.0
C      1  0.5692990000000  0.4779850000000  0.5854400000000 1.0
C      1  0.5688630000000  0.4155280000000  0.5047460000000 1.0
C      1  0.5687140000000  0.4696810000000  0.4215700000000 1.0
C      1  0.5689430000000  0.5674470000000  0.4446190000000 1.0
C      1  0.4309400000000  0.4242480000000  0.5480570000000 1.0
C      1  0.4311010000000  0.5217730000000  0.5831910000000 1.0
C      1  0.4314530000000  0.5838490000000  0.5045430000000 1.0
C      1  0.4312810000000  0.5313430000000  0.4195660000000 1.0
C      1  0.4311660000000  0.4308870000000  0.4429670000000 1.0
C      1  0.5191100000000  0.5993180000000  0.4872680000000 1.0
C      1  0.5194130000000  0.5429860000000  0.5909870000000 1.0
C      1  0.5192420000000  0.4275290000000  0.5694790000000 1.0
C      1  0.5190140000000  0.4118800000000  0.4533310000000 1.0
C      1  0.5189120000000  0.5175770000000  0.4019900000000 1.0
C      1  0.4807940000000  0.4002830000000  0.4875020000000 1.0
C      1  0.4808330000000  0.4566670000000  0.5907870000000 1.0
C      1  0.4810580000000  0.5719030000000  0.5694020000000 1.0
C      1  0.4812380000000  0.5878140000000  0.4531590000000 1.0
C      1  0.4811530000000  0.4815880000000  0.4018020000000 1.0
C      1  0.5489910000000  0.4650780000000  0.4007440000000 1.0
C      1  0.5479510000000  0.5849280000000  0.4343790000000 1.0
C      1  0.5471190000000  0.5904570000000  0.5609350000000 1.0
C      1  0.5479420000000  0.4700950000000  0.6036370000000 1.0
C      1  0.5489960000000  0.3944730000000  0.5026790000000 1.0
C      1  0.4519310000000  0.5357340000000  0.3994790000000 1.0
C      1  0.4530360000000  0.4141710000000  0.4330420000000 1.0
C      1  0.4528560000000  0.4097230000000  0.5608140000000 1.0
C      1  0.4515750000000  0.5299890000000  0.6021140000000 1.0
C      1  0.4511160000000  0.6051170000000  0.5025050000000 1.0
C      1  0.4678890000000  0.6017820000000  0.5297610000000 1.0
C      1  0.4682070000000  0.5026160000000  0.6060670000000 1.0
C      1  0.4686230000000  0.3992540000000  0.5345910000000 1.0
C      1  0.4688230000000  0.4357280000000  0.4148600000000 1.0
C      1  0.4683120000000  0.5603050000000  0.4124490000000 1.0
C      1  0.5321090000000  0.3981990000000  0.5298250000000 1.0
C      1  0.5317400000000  0.4979370000000  0.6063290000000 1.0
C      1  0.5313410000000  0.6009200000000  0.5347400000000 1.0
C      1  0.5316820000000  0.5645640000000  0.4153510000000 1.0
C      1  0.5322330000000  0.4401980000000  0.4123740000000 1.0
C      1  0.3861640000000  0.5263690000000  0.4894640000000 1.0
C      1  0.3862170000000  0.5186430000000  0.5204640000000 1.0
C      1  0.3861120000000  0.4867540000000  0.5227340000000 1.0
C      1  0.3858750000000  0.4747690000000  0.4930310000000 1.0
C      1  0.3860890000000  0.4993140000000  0.4725130000000 1.0
C      1  0.6138890000000  0.4743250000000  0.4886190000000 1.0
C      1  0.6139390000000  0.4818760000000  0.5196620000000 1.0
C      1  0.6141700000000  0.5137950000000  0.5220600000000 1.0
C      1  0.6141210000000  0.5258850000000  0.4924240000000 1.0
C      1  0.6139680000000  0.5014760000000  0.4718160000000 1.0
C      1  0.5598060000000  0.5392800000000  0.4495320000000 1.0
C      1  0.5605830000000  0.5612040000000  0.5232330000000 1.0
C      1  0.5604430000000  0.4975990000000  0.5647040000000 1.0
C      1  0.5591640000000  0.4398630000000  0.5184980000000 1.0
C      1  0.5589790000000  0.4639370000000  0.4489830000000 1.0
C      1  0.4397030000000  0.4591920000000  0.4491390000000 1.0
C      1  0.4393710000000  0.4387550000000  0.5231290000000 1.0
C      1  0.4404650000000  0.5015540000000  0.5635800000000 1.0
C      1  0.4411800000000  0.5596550000000  0.5185520000000 1.0
C      1  0.4405710000000  0.5358760000000  0.4476410000000 1.0
C      1  0.5163570000000  0.5249250000000  0.5654090000000 1.0
C      1  0.5157460000000  0.4463150000000  0.5446380000000 1.0
C      1  0.5156540000000  0.4413410000000  0.4635560000000 1.0
C      1  0.5159540000000  0.5171740000000  0.4333610000000 1.0
C      1  0.5163500000000  0.5693260000000  0.4966670000000 1.0
C      1  0.4841880000000  0.4745520000000  0.5652140000000 1.0
C      1  0.4844950000000  0.5530700000000  0.5445860000000 1.0
C      1  0.4842890000000  0.5581650000000  0.4632980000000 1.0
C      1  0.4838990000000  0.4819510000000  0.4332390000000 1.0
C      1  0.4836450000000  0.4302510000000  0.4968490000000 1.0
C      1  0.5146240000000  0.4846680000000  0.4365420000000 1.0
C      1  0.5150530000000  0.5563750000000  0.4664790000000 1.0
C      1  0.5152410000000  0.5497370000000  0.5440430000000 1.0
C      1  0.5150180000000  0.4741750000000  0.5615490000000 1.0
C      1  0.5143880000000  0.4342690000000  0.4952340000000 1.0
C      1  0.4851880000000  0.5146160000000  0.4362590000000 1.0
C      1  0.4849040000000  0.4429140000000  0.4666000000000 1.0
C      1  0.4849230000000  0.4497320000000  0.5439950000000 1.0
C      1  0.4855670000000  0.5252390000000  0.5612870000000 1.0
C      1  0.4856180000000  0.5652310000000  0.4950920000000 1.0
C      1  0.5062910000000  0.6084240000000  0.4484570000000 1.0
C      1  0.5060910000000  0.5825400000000  0.5874590000000 1.0
C      1  0.5062610000000  0.4425360000000  0.6063730000000 1.0
C      1  0.5065530000000  0.3809830000000  0.4787200000000 1.0
C      1  0.5066290000000  0.4837330000000  0.3806070000000 1.0
C      1  0.4940580000000  0.3914180000000  0.4487770000000 1.0
C      1  0.4940490000000  0.4170410000000  0.5876460000000 1.0
C      1  0.4937440000000  0.5572690000000  0.6065460000000 1.0
C      1  0.4935340000000  0.6187480000000  0.4785690000000 1.0
C      1  0.4937870000000  0.5155890000000  0.3808820000000 1.0
C      1  0.4133650000000  0.5507660000000  0.5585690000000 1.0
C      1  0.4139250000000  0.4591800000000  0.5638740000000 1.0
C      1  0.4137270000000  0.4267570000000  0.4808920000000 1.0
C      1  0.4133500000000  0.4935700000000  0.4231140000000 1.0
C      1  0.4131340000000  0.5717750000000  0.4687570000000 1.0
C      1  0.5864420000000  0.4508160000000  0.5584520000000 1.0
C      1  0.5863010000000  0.5408890000000  0.5635080000000 1.0
C      1  0.5867150000000  0.5744980000000  0.4819650000000 1.0
C      1  0.5870000000000  0.5074570000000  0.4222540000000 1.0
C      1  0.5869060000000  0.4283850000000  0.4690950000000 1.0
C      1  0.4618600000000  0.5574220000000  0.5934110000000 1.0
C      1  0.4625050000000  0.4287200000000  0.5831840000000 1.0
C      1  0.4626380000000  0.3990990000000  0.4583010000000 1.0
C      1  0.4622160000000  0.5080730000000  0.3911490000000 1.0
C      1  0.4616740000000  0.6061980000000  0.4739610000000 1.0
C      1  0.5379700000000  0.4428140000000  0.5935770000000 1.0
C      1  0.5375640000000  0.5710790000000  0.5830860000000 1.0
C      1  0.5378230000000  0.6009840000000  0.4585540000000 1.0
C      1  0.5384330000000  0.4919620000000  0.3910340000000 1.0
C      1  0.5385450000000  0.3935300000000  0.4740820000000 1.0
C      1  0.5605560000000  0.4345730000000  0.5668590000000 1.0
C      1  0.5606950000000  0.4154880000000  0.4569180000000 1.0
C      1  0.5605750000000  0.5149590000000  0.4065430000000 1.0
C      1  0.5603710000000  0.5919180000000  0.4847600000000 1.0
C      1  0.5603430000000  0.5433730000000  0.5815940000000 1.0
C      1  0.4394780000000  0.5665560000000  0.5670210000000 1.0
C      1  0.4395410000000  0.5843960000000  0.4567630000000 1.0
C      1  0.4397490000000  0.4856980000000  0.4074880000000 1.0
C      1  0.4398650000000  0.4090740000000  0.4841610000000 1.0
C      1  0.4397550000000  0.4565200000000  0.5820660000000 1.0
C      1  0.5888380000000  0.5027760000000  0.4530790000000 1.0
C      1  0.5889100000000  0.5439790000000  0.4878600000000 1.0
C      1  0.5888850000000  0.5235500000000  0.5378160000000 1.0
C      1  0.5886240000000  0.4698230000000  0.5338430000000 1.0
C      1  0.5887340000000  0.4569800000000  0.4815500000000 1.0
C      1  0.4113240000000  0.4981640000000  0.4538650000000 1.0
C      1  0.4111170000000  0.4568120000000  0.4884590000000 1.0
C      1  0.4114950000000  0.4769550000000  0.5384630000000 1.0
C      1  0.4114320000000  0.5306320000000  0.5347920000000 1.0
C      1  0.4112800000000  0.5438030000000  0.4825140000000 1.0
C      1  0.4726820000000  0.4842490000000  0.4805000000000 1.0
C      1  0.4733350000000  0.5135500000000  0.4801100000000 1.0
C      1  0.4743740000000  0.5229480000000  0.5077220000000 1.0
C      1  0.4740230000000  0.4997670000000  0.5253050000000 1.0
C      1  0.4724550000000  0.4757920000000  0.5087130000000 1.0
C      1  0.5269840000000  0.5150750000000  0.4809070000000 1.0
C      1  0.5259260000000  0.4858920000000  0.4805990000000 1.0
C      1  0.5257130000000  0.4764650000000  0.5081110000000 1.0
C      1  0.5270690000000  0.4996440000000  0.5256890000000 1.0
C      1  0.5275890000000  0.5237550000000  0.5089570000000 1.0
C      1  0.4498570000000  0.4609680000000  0.4204400000000 1.0
C      1  0.4504790000000  0.5632630000000  0.4389180000000 1.0
C      1  0.4503750000000  0.5773540000000  0.5414560000000 1.0
C      1  0.4495860000000  0.4842600000000  0.5869370000000 1.0
C      1  0.4491320000000  0.4119800000000  0.5122680000000 1.0
C      1  0.5497610000000  0.5386910000000  0.4208070000000 1.0
C      1  0.5495930000000  0.4367480000000  0.4392440000000 1.0
C      1  0.5501200000000  0.4223630000000  0.5416920000000 1.0
C      1  0.5509550000000  0.5157010000000  0.5873410000000 1.0
C      1  0.5505110000000  0.5879200000000  0.5124880000000 1.0
C      1  0.4693880000000  0.4665760000000  0.4571810000000 1.0
C      1  0.4700710000000  0.5304740000000  0.4563590000000 1.0
C      1  0.4707210000000  0.5506450000000  0.5162400000000 1.0
C      1  0.4702780000000  0.5006620000000  0.5542880000000 1.0
C      1  0.4692340000000  0.4482900000000  0.5186330000000 1.0
C      1  0.5302660000000  0.5324460000000  0.4574660000000 1.0
C      1  0.5294940000000  0.4690760000000  0.4569690000000 1.0
C      1  0.5294730000000  0.4487430000000  0.5163790000000 1.0
C      1  0.5305620000000  0.4987280000000  0.5547980000000 1.0
C      1  0.5308360000000  0.5513460000000  0.5186530000000 1.0
C      1  0.5003140000000  0.3962110000000  0.5319880000000 1.0
C      1  0.5004900000000  0.4366660000000  0.4101170000000 1.0
C      1  0.4999970000000  0.5647260000000  0.4105140000000 1.0
C      1  0.4996520000000  0.6047010000000  0.5322770000000 1.0
C      1  0.4999910000000  0.5006480000000  0.6080520000000 1.0
END
