TITL C-862504-1170-59 -0.0935243463781221 125000 -144.406581345323 0 0 27 (C1) n - 1
REM
REM in /home/nfs/bkarasulu/CARBON/AIRSS/Generating-Clusters/TERSOFF/Higher-Symm/FIRE-HFTN
REM
REM
REM
REM
REM
REM ./C.cell (b20cbc046b6831c77cfcea5457e17084)
REM AIRSS Version 0.9.1 bugfix July 2018 build 013d7b7c2542+ Fri, 06 Jul 2018 19:26:36 +0100
REM compiler GCC version 9.2.1 20190827 (Red Hat 9.2.1-1)
REM options -cpp -mtune=generic -march=x86-64 -g -O0 -fpre-include=/usr/include/finclude/math-vector-fortran.h
REM seed 1784531325 1029988036 -571922106 721538715 -354297289 990468500 335347360 -726178944 -1027888998 1199781840 1029356278 -273861159 -445695264 -1676042384 1349754458 -300995525 -1684424281 -989414714 1793681257 641084492 -1316823660 325086034 428214551 -1154328435 1274152631 -564119430 607946669 1256917512 646018873 -182687788 577073741 -1177716690 1092910843
REM
CELL 1.54180   50.00000   50.00000   50.00000   90.00000   90.00000   90.00000
LATT -1
SFAC C  
C      1  0.4779370000000  0.5250910000000  0.4703960000000 1.0
C      1  0.4677130000000  0.5093440000000  0.5517250000000 1.0
C      1  0.4761660000000  0.4637640000000  0.4855820000000 1.0
C      1  0.5223890000000  0.5253720000000  0.4704250000000 1.0
C      1  0.5328850000000  0.5096950000000  0.5514660000000 1.0
C      1  0.5248660000000  0.4640470000000  0.4858050000000 1.0
C      1  0.4757390000000  0.5281180000000  0.5308880000000 1.0
C      1  0.4685430000000  0.5104790000000  0.4470630000000 1.0
C      1  0.4677890000000  0.4591210000000  0.5131240000000 1.0
C      1  0.5244390000000  0.5285490000000  0.5308870000000 1.0
C      1  0.5320320000000  0.5107880000000  0.4471830000000 1.0
C      1  0.5329610000000  0.4591580000000  0.5134010000000 1.0
C      1  0.5149340000000  0.4964400000000  0.4283570000000 1.0
C      1  0.5147500000000  0.5558070000000  0.5400590000000 1.0
C      1  0.5145950000000  0.4516310000000  0.5349770000000 1.0
C      1  0.4858450000000  0.4999330000000  0.4260300000000 1.0
C      1  0.4849880000000  0.5555860000000  0.5399450000000 1.0
C      1  0.4859570000000  0.4587760000000  0.5361190000000 1.0
C      1  0.5147730000000  0.4917400000000  0.5659070000000 1.0
C      1  0.5147960000000  0.5541640000000  0.4669590000000 1.0
C      1  0.5155880000000  0.4400140000000  0.4697310000000 1.0
C      1  0.4861350000000  0.4969860000000  0.5708930000000 1.0
C      1  0.4851850000000  0.5539850000000  0.4669900000000 1.0
C      1  0.4858260000000  0.4397760000000  0.4697000000000 1.0
C      1  0.5002390000000  0.5108770000000  0.4872520000000 1.0
C      1  0.5001670000000  0.5192380000000  0.5156410000000 1.0
C      1  0.5004260000000  0.4815220000000  0.4834940000000 1.0
END
