TITL C-862127-1500-1176 6.62784715598907 125000 -874.345240280738 0 0 151 (C1) n - 1
REM
REM in /home/nfs/bkarasulu/CARBON/AIRSS/Generating-Clusters/TERSOFF/Higher-Symm/FIRE-HFTN
REM
REM
REM
REM
REM
REM ./C.cell (b20cbc046b6831c77cfcea5457e17084)
REM AIRSS Version 0.9.1 bugfix July 2018 build 013d7b7c2542+ Fri, 06 Jul 2018 19:26:36 +0100
REM compiler GCC version 9.2.1 20190827 (Red Hat 9.2.1-1)
REM options -cpp -mtune=generic -march=x86-64 -g -O0 -fpre-include=/usr/include/finclude/math-vector-fortran.h
REM seed 1858045973 655175063 -576277563 502741152 -814436299 -935632810 812419605 804823056 1188173233 -269052888 597423403 170899226 -910248664 -236389404 -281942694 -482545114 854219672 -1272340824 -1260667232 -1780507482 1818076080 1632767636 64623573 366427792 -390414124 1107250710 -377624654 1707705866 -1069428973 -492944895 1560055199 1874615950 -1542408632
REM
CELL 1.54180   50.00000   50.00000   50.00000   90.00000   90.00000   90.00000
LATT -1
SFAC C  
C      1  0.4468520000000  0.5492670000000  0.5133840000000 1.0
C      1  0.4409060000000  0.4768150000000  0.5315660000000 1.0
C      1  0.4235690000000  0.5358450000000  0.4730140000000 1.0
C      1  0.4725060000000  0.5556380000000  0.4684640000000 1.0
C      1  0.5531760000000  0.4633580000000  0.5353450000000 1.0
C      1  0.5049990000000  0.5139930000000  0.4488230000000 1.0
C      1  0.4328080000000  0.5004380000000  0.5785930000000 1.0
C      1  0.4433470000000  0.5475960000000  0.4257430000000 1.0
C      1  0.4302310000000  0.5093460000000  0.4599080000000 1.0
C      1  0.4874740000000  0.5635330000000  0.4176780000000 1.0
C      1  0.5579950000000  0.4704290000000  0.4635240000000 1.0
C      1  0.5726580000000  0.5759200000000  0.5311930000000 1.0
C      1  0.4827720000000  0.4891210000000  0.5145920000000 1.0
C      1  0.4843850000000  0.4262520000000  0.4684090000000 1.0
C      1  0.5035010000000  0.4429060000000  0.4095750000000 1.0
C      1  0.5413740000000  0.5476870000000  0.4420830000000 1.0
C      1  0.3960390000000  0.4789010000000  0.4817820000000 1.0
C      1  0.4806850000000  0.3875060000000  0.5050190000000 1.0
C      1  0.5002830000000  0.5201620000000  0.6083400000000 1.0
C      1  0.5520170000000  0.4706360000000  0.3987480000000 1.0
C      1  0.5073740000000  0.5601270000000  0.5761500000000 1.0
C      1  0.4443100000000  0.4752170000000  0.4799120000000 1.0
C      1  0.5673640000000  0.5477180000000  0.5852480000000 1.0
C      1  0.4635780000000  0.4567210000000  0.5740560000000 1.0
C      1  0.4474080000000  0.6179030000000  0.5096590000000 1.0
C      1  0.5484550000000  0.4878550000000  0.4840900000000 1.0
C      1  0.4995900000000  0.5705340000000  0.4873080000000 1.0
C      1  0.5173620000000  0.5431940000000  0.5976640000000 1.0
C      1  0.4465160000000  0.4779850000000  0.5612860000000 1.0
C      1  0.4473110000000  0.5856940000000  0.5491250000000 1.0
C      1  0.4050040000000  0.4839900000000  0.5623910000000 1.0
C      1  0.5959960000000  0.4969400000000  0.4572700000000 1.0
C      1  0.4226300000000  0.5582870000000  0.5290960000000 1.0
C      1  0.5174420000000  0.4954580000000  0.6118620000000 1.0
C      1  0.5781360000000  0.5984300000000  0.5486540000000 1.0
C      1  0.4166990000000  0.4449290000000  0.5189670000000 1.0
C      1  0.5106090000000  0.4921370000000  0.4666060000000 1.0
C      1  0.4350840000000  0.4156810000000  0.5086800000000 1.0
C      1  0.5447170000000  0.5328080000000  0.5959700000000 1.0
C      1  0.4033310000000  0.4522310000000  0.4917140000000 1.0
C      1  0.4072660000000  0.4770330000000  0.4317920000000 1.0
C      1  0.5391580000000  0.5033700000000  0.5926440000000 1.0
C      1  0.4781930000000  0.5260330000000  0.4510630000000 1.0
C      1  0.4822820000000  0.5724720000000  0.5808190000000 1.0
C      1  0.5092150000000  0.4232700000000  0.5335310000000 1.0
C      1  0.5376060000000  0.5351710000000  0.5412500000000 1.0
C      1  0.4859900000000  0.5385160000000  0.4012820000000 1.0
C      1  0.4728350000000  0.4439910000000  0.4038080000000 1.0
C      1  0.4934460000000  0.6022680000000  0.5274920000000 1.0
C      1  0.5456810000000  0.5756420000000  0.5134440000000 1.0
C      1  0.5717790000000  0.5359810000000  0.4349740000000 1.0
C      1  0.5476390000000  0.4182930000000  0.4344340000000 1.0
C      1  0.5764360000000  0.4811600000000  0.5334690000000 1.0
C      1  0.4488640000000  0.6149740000000  0.4805380000000 1.0
C      1  0.5100790000000  0.3900380000000  0.4979470000000 1.0
C      1  0.5032640000000  0.6167850000000  0.5031420000000 1.0
C      1  0.5275800000000  0.4766950000000  0.3835580000000 1.0
C      1  0.4390500000000  0.5017920000000  0.5150570000000 1.0
C      1  0.5109640000000  0.5804970000000  0.4189800000000 1.0
C      1  0.4976190000000  0.6008800000000  0.4788950000000 1.0
C      1  0.4192130000000  0.5460090000000  0.4427760000000 1.0
C      1  0.4944640000000  0.4459480000000  0.4892490000000 1.0
C      1  0.3881550000000  0.5153550000000  0.5095990000000 1.0
C      1  0.4926740000000  0.5218490000000  0.4902590000000 1.0
C      1  0.4575140000000  0.5230230000000  0.5225740000000 1.0
C      1  0.5345470000000  0.5358670000000  0.4691070000000 1.0
C      1  0.5490450000000  0.3992800000000  0.4599310000000 1.0
C      1  0.4799420000000  0.4514060000000  0.5494700000000 1.0
C      1  0.6070470000000  0.5063510000000  0.5090830000000 1.0
C      1  0.4752210000000  0.4663710000000  0.6000840000000 1.0
C      1  0.4656830000000  0.5215290000000  0.5500810000000 1.0
C      1  0.4629390000000  0.4367370000000  0.4511890000000 1.0
C      1  0.5764270000000  0.4793320000000  0.4430220000000 1.0
C      1  0.5560960000000  0.4632380000000  0.5964950000000 1.0
C      1  0.5309910000000  0.4667860000000  0.5556610000000 1.0
C      1  0.5105230000000  0.5763270000000  0.5215910000000 1.0
C      1  0.5342870000000  0.5752940000000  0.4356020000000 1.0
C      1  0.5289360000000  0.4176610000000  0.5543280000000 1.0
C      1  0.5784840000000  0.5089060000000  0.5237910000000 1.0
C      1  0.4994290000000  0.4732750000000  0.5524630000000 1.0
C      1  0.5856160000000  0.4344260000000  0.4668640000000 1.0
C      1  0.4587130000000  0.4177680000000  0.4081390000000 1.0
C      1  0.4532850000000  0.4957890000000  0.3966300000000 1.0
C      1  0.5120350000000  0.4950630000000  0.5188830000000 1.0
C      1  0.5866840000000  0.5492250000000  0.5365340000000 1.0
C      1  0.4705490000000  0.4863210000000  0.4870500000000 1.0
C      1  0.4582430000000  0.5656230000000  0.5673700000000 1.0
C      1  0.5056490000000  0.4688080000000  0.6057870000000 1.0
C      1  0.5553270000000  0.5151950000000  0.4195310000000 1.0
C      1  0.5300760000000  0.4783030000000  0.5036250000000 1.0
C      1  0.4820560000000  0.4587950000000  0.4419960000000 1.0
C      1  0.5754510000000  0.5742320000000  0.5940550000000 1.0
C      1  0.5719660000000  0.4089340000000  0.4761920000000 1.0
C      1  0.4444790000000  0.5333580000000  0.5694170000000 1.0
C      1  0.5248680000000  0.5220390000000  0.4259160000000 1.0
C      1  0.5704020000000  0.4379210000000  0.4400370000000 1.0
C      1  0.5922800000000  0.4408340000000  0.5158960000000 1.0
C      1  0.5279280000000  0.4514490000000  0.5945880000000 1.0
C      1  0.4800440000000  0.5087780000000  0.5908020000000 1.0
C      1  0.5761600000000  0.5083820000000  0.5734500000000 1.0
C      1  0.5234880000000  0.5102750000000  0.5431150000000 1.0
C      1  0.3969680000000  0.5633460000000  0.5163010000000 1.0
C      1  0.5905700000000  0.5266480000000  0.4560230000000 1.0
C      1  0.4542800000000  0.4690490000000  0.4118840000000 1.0
C      1  0.5748670000000  0.5981630000000  0.5774810000000 1.0
C      1  0.4568730000000  0.4930990000000  0.6017890000000 1.0
C      1  0.5336160000000  0.4942680000000  0.5648610000000 1.0
C      1  0.5480790000000  0.5456040000000  0.5154640000000 1.0
C      1  0.5036150000000  0.4114110000000  0.4539460000000 1.0
C      1  0.5148530000000  0.4377060000000  0.5085310000000 1.0
C      1  0.4077630000000  0.4910400000000  0.4572320000000 1.0
C      1  0.4671200000000  0.4467650000000  0.5007360000000 1.0
C      1  0.5205990000000  0.3947290000000  0.4702760000000 1.0
C      1  0.4172890000000  0.4365880000000  0.4712560000000 1.0
C      1  0.5165200000000  0.5037170000000  0.3793600000000 1.0
C      1  0.4149600000000  0.5122810000000  0.4988440000000 1.0
C      1  0.6033090000000  0.4853050000000  0.4841520000000 1.0
C      1  0.5172240000000  0.4241650000000  0.4303760000000 1.0
C      1  0.4215600000000  0.5484520000000  0.5562680000000 1.0
C      1  0.4464270000000  0.5518320000000  0.4845570000000 1.0
C      1  0.5643010000000  0.4884690000000  0.4181050000000 1.0
C      1  0.4729580000000  0.6086880000000  0.4658250000000 1.0
C      1  0.4552350000000  0.5081260000000  0.4456290000000 1.0
C      1  0.5955220000000  0.4537930000000  0.4888730000000 1.0
C      1  0.4326540000000  0.4632450000000  0.4316510000000 1.0
C      1  0.3778950000000  0.5419950000000  0.5130230000000 1.0
C      1  0.4659530000000  0.5640530000000  0.4379410000000 1.0
C      1  0.5230530000000  0.4248240000000  0.5824840000000 1.0
C      1  0.5525340000000  0.5165930000000  0.4820240000000 1.0
C      1  0.4631470000000  0.4085640000000  0.5177280000000 1.0
C      1  0.5503670000000  0.5973190000000  0.4456550000000 1.0
C      1  0.4628260000000  0.6017150000000  0.5291540000000 1.0
C      1  0.5098900000000  0.5422470000000  0.4820880000000 1.0
C      1  0.5687260000000  0.5292030000000  0.5020160000000 1.0
C      1  0.4610040000000  0.4552980000000  0.5266270000000 1.0
C      1  0.5188980000000  0.5578030000000  0.5482120000000 1.0
C      1  0.4382080000000  0.3956000000000  0.4553210000000 1.0
C      1  0.5664960000000  0.4383540000000  0.5302020000000 1.0
C      1  0.5710780000000  0.4782540000000  0.5750000000000 1.0
C      1  0.4071110000000  0.4554240000000  0.5477990000000 1.0
C      1  0.5692470000000  0.5264550000000  0.5490790000000 1.0
C      1  0.4248560000000  0.4090180000000  0.4788640000000 1.0
C      1  0.5565040000000  0.4156850000000  0.5448140000000 1.0
C      1  0.4868120000000  0.5027140000000  0.5620000000000 1.0
C      1  0.4548600000000  0.4123120000000  0.4368410000000 1.0
C      1  0.5885830000000  0.5397540000000  0.4821190000000 1.0
C      1  0.4393110000000  0.4529050000000  0.4592410000000 1.0
C      1  0.5101710000000  0.5226830000000  0.4007340000000 1.0
C      1  0.4994000000000  0.4659250000000  0.4643680000000 1.0
C      1  0.6086610000000  0.5376920000000  0.5189190000000 1.0
C      1  0.4588960000000  0.5250110000000  0.4064850000000 1.0
END
