TITL C-862133-5440-812 1.44697556433217e-06 125000 -281.199974651781 0 0 50 (C5) n - 1
REM
REM in /home/nfs/bkarasulu/CARBON/AIRSS/Generating-Clusters/TERSOFF/Higher-Symm/FIRE-HFTN
REM
REM
REM
REM
REM
REM ./C.cell (b20cbc046b6831c77cfcea5457e17084)
REM AIRSS Version 0.9.1 bugfix July 2018 build 013d7b7c2542+ Fri, 06 Jul 2018 19:26:36 +0100
REM compiler GCC version 9.2.1 20190827 (Red Hat 9.2.1-1)
REM options -cpp -mtune=generic -march=x86-64 -g -O0 -fpre-include=/usr/include/finclude/math-vector-fortran.h
REM seed -235087459 -933335324 1482002581 724737074 926323599 -463884613 561801549 1049330211 27839253 375448539 -1026828468 -1710039434 1462648482 -1894286162 -730865505 -1002553346 -2017692976 -865971632 353702172 1433230985 -1267997635 760022294 -2006114765 -1358417151 -1886918956 -1768146962 1588910663 1674002678 1299770418 1640079465 372496821 -1376864311 -1865872538
REM
CELL 1.54180   50.00000   50.00000   50.00000   90.00000   90.00000   90.00000
LATT -1
SFAC C  
C      1  0.5207830000000  0.4640730000000  0.4773500000000 1.0
C      1  0.5405900000000  0.5086640000000  0.4773500000000 1.0
C      1  0.5043030000000  0.5412810000000  0.4773500000000 1.0
C      1  0.4620690000000  0.5168490000000  0.4773500000000 1.0
C      1  0.4722540000000  0.4691320000000  0.4773500000000 1.0
C      1  0.5349450000000  0.5656640000000  0.5087670000000 1.0
C      1  0.4483480000000  0.5535260000000  0.5087670000000 1.0
C      1  0.4331320000000  0.4674170000000  0.5087670000000 1.0
C      1  0.5103260000000  0.4263360000000  0.5087670000000 1.0
C      1  0.5732490000000  0.4870570000000  0.5087670000000 1.0
C      1  0.5482910000000  0.4768130000000  0.5489660000000 1.0
C      1  0.5369750000000  0.5387620000000  0.5489660000000 1.0
C      1  0.4745610000000  0.5471440000000  0.5489660000000 1.0
C      1  0.4473030000000  0.4903750000000  0.5489660000000 1.0
C      1  0.4928700000000  0.4469080000000  0.5489660000000 1.0
C      1  0.5476490000000  0.5204770000000  0.5284330000000 1.0
C      1  0.4952490000000  0.5516440000000  0.5284340000000 1.0
C      1  0.4494150000000  0.5114410000000  0.5284340000000 1.0
C      1  0.4734880000000  0.4554270000000  0.5284340000000 1.0
C      1  0.5341990000000  0.4610120000000  0.5284340000000 1.0
C      1  0.4972470000000  0.4741410000000  0.4348860000000 1.0
C      1  0.5237420000000  0.4893910000000  0.4348860000000 1.0
C      1  0.5174260000000  0.5193020000000  0.4348860000000 1.0
C      1  0.4870280000000  0.5225380000000  0.4348860000000 1.0
C      1  0.4745560000000  0.4946270000000  0.4348860000000 1.0
C      1  0.4795730000000  0.5698700000000  0.5061600000000 1.0
C      1  0.4272370000000  0.5021640000000  0.5061600000000 1.0
C      1  0.4754570000000  0.4314670000000  0.5061610000000 1.0
C      1  0.5575950000000  0.4554810000000  0.5061600000000 1.0
C      1  0.5601380000000  0.5410180000000  0.5061600000000 1.0
C      1  0.5647540000000  0.4974630000000  0.5365800000000 1.0
C      1  0.5224230000000  0.5608010000000  0.5365800000000 1.0
C      1  0.4491040000000  0.5401140000000  0.5365800000000 1.0
C      1  0.4461220000000  0.4639910000000  0.5365810000000 1.0
C      1  0.5175970000000  0.4376310000000  0.5365810000000 1.0
C      1  0.4742980000000  0.5075730000000  0.5068500000000 1.0
C      1  0.4848550000000  0.4778960000000  0.5068510000000 1.0
C      1  0.5163420000000  0.4787660000000  0.5068500000000 1.0
C      1  0.5252450000000  0.5089810000000  0.5068500000000 1.0
C      1  0.4992600000000  0.5267840000000  0.5068500000000 1.0
C      1  0.5673250000000  0.5124390000000  0.4903320000000 1.0
C      1  0.5089740000000  0.5678740000000  0.4903320000000 1.0
C      1  0.4382210000000  0.5295090000000  0.4903320000000 1.0
C      1  0.4528440000000  0.4503640000000  0.4903320000000 1.0
C      1  0.5326350000000  0.4398140000000  0.4903320000000 1.0
C      1  0.4797760000000  0.5351170000000  0.4616740000000 1.0
C      1  0.4603520000000  0.4916170000000  0.4616740000000 1.0
C      1  0.4957200000000  0.4597020000000  0.4616740000000 1.0
C      1  0.5370030000000  0.4834770000000  0.4616740000000 1.0
C      1  0.5271490000000  0.5300860000000  0.4616740000000 1.0
END
