TITL C-862506-1665-733 0.233573758920575 125000 -300.172461016966 0 0 53 (C1) n - 1
REM
REM in /home/nfs/bkarasulu/CARBON/AIRSS/Generating-Clusters/TERSOFF/Higher-Symm/FIRE-HFTN
REM
REM
REM
REM
REM
REM ./C.cell (b20cbc046b6831c77cfcea5457e17084)
REM AIRSS Version 0.9.1 bugfix July 2018 build 013d7b7c2542+ Fri, 06 Jul 2018 19:26:36 +0100
REM compiler GCC version 9.2.1 20190827 (Red Hat 9.2.1-1)
REM options -cpp -mtune=generic -march=x86-64 -g -O0 -fpre-include=/usr/include/finclude/math-vector-fortran.h
REM seed -569760081 -72721092 948143460 1653519898 713785831 1914082485 -1820130897 472821045 -870903305 -408481597 -147245722 1129144122 1266596375 -173821296 -1054101573 -331773675 1026027197 50737839 9861423 -1266904505 1599950466 419195437 383634809 -1509132431 844593890 1205489027 -1576735782 1911014090 1009532865 -677090828 839917268 123371370 640422240
REM
CELL 1.54180   50.00000   50.00000   50.00000   90.00000   90.00000   90.00000
LATT -1
SFAC C  
C      1  0.5607030000000  0.5210540000000  0.5168550000000 1.0
C      1  0.4396870000000  0.4704590000000  0.4913160000000 1.0
C      1  0.5514090000000  0.4382410000000  0.5379010000000 1.0
C      1  0.5663530000000  0.4288110000000  0.5135710000000 1.0
C      1  0.5108650000000  0.5537340000000  0.5156340000000 1.0
C      1  0.5279480000000  0.5158850000000  0.4690340000000 1.0
C      1  0.4579640000000  0.4933010000000  0.4804850000000 1.0
C      1  0.4769070000000  0.4932930000000  0.4220460000000 1.0
C      1  0.5191080000000  0.5378110000000  0.5390970000000 1.0
C      1  0.4908680000000  0.4586900000000  0.4682230000000 1.0
C      1  0.5760870000000  0.4993950000000  0.4745790000000 1.0
C      1  0.5956230000000  0.4456110000000  0.4530050000000 1.0
C      1  0.5266950000000  0.5447090000000  0.4705070000000 1.0
C      1  0.4182480000000  0.5472210000000  0.5057320000000 1.0
C      1  0.4721030000000  0.4516540000000  0.5294590000000 1.0
C      1  0.4465330000000  0.5491730000000  0.5477650000000 1.0
C      1  0.4407300000000  0.5588030000000  0.5200280000000 1.0
C      1  0.5587300000000  0.5480810000000  0.5057240000000 1.0
C      1  0.5845940000000  0.4492580000000  0.5029710000000 1.0
C      1  0.4352130000000  0.4815990000000  0.5208630000000 1.0
C      1  0.5395710000000  0.4861030000000  0.5480230000000 1.0
C      1  0.4866380000000  0.4865730000000  0.4741490000000 1.0
C      1  0.5766110000000  0.5000220000000  0.5036270000000 1.0
C      1  0.4612580000000  0.5182440000000  0.4244840000000 1.0
C      1  0.4618050000000  0.5621770000000  0.4515360000000 1.0
C      1  0.5241320000000  0.4560210000000  0.5384890000000 1.0
C      1  0.4422410000000  0.4510980000000  0.4668410000000 1.0
C      1  0.4662610000000  0.4659810000000  0.4258200000000 1.0
C      1  0.4672110000000  0.4509320000000  0.4513110000000 1.0
C      1  0.5521780000000  0.5033590000000  0.4589060000000 1.0
C      1  0.4804130000000  0.5000420000000  0.5161550000000 1.0
C      1  0.4674530000000  0.5286470000000  0.5553040000000 1.0
C      1  0.5005600000000  0.5008420000000  0.5529370000000 1.0
C      1  0.4565120000000  0.4755790000000  0.5405050000000 1.0
C      1  0.4694460000000  0.4958930000000  0.5564840000000 1.0
C      1  0.4205620000000  0.5274160000000  0.4845900000000 1.0
C      1  0.5005070000000  0.4515310000000  0.5200100000000 1.0
C      1  0.4830450000000  0.5494490000000  0.5059920000000 1.0
C      1  0.4990710000000  0.5326320000000  0.5602910000000 1.0
C      1  0.5369110000000  0.5131810000000  0.5325370000000 1.0
C      1  0.4567440000000  0.5330370000000  0.4497040000000 1.0
C      1  0.5092980000000  0.5003750000000  0.4857070000000 1.0
C      1  0.4691750000000  0.5238740000000  0.5070070000000 1.0
C      1  0.4458480000000  0.5187070000000  0.4724710000000 1.0
C      1  0.4629900000000  0.5701540000000  0.5031750000000 1.0
C      1  0.5815010000000  0.4748270000000  0.5180470000000 1.0
C      1  0.4572430000000  0.5787130000000  0.4756500000000 1.0
C      1  0.4533300000000  0.4463140000000  0.5070660000000 1.0
C      1  0.5116220000000  0.4970180000000  0.5186740000000 1.0
C      1  0.5326210000000  0.5575770000000  0.4956920000000 1.0
C      1  0.5036190000000  0.4439090000000  0.4909230000000 1.0
C      1  0.6029830000000  0.4451770000000  0.4809950000000 1.0
C      1  0.5642710000000  0.4678090000000  0.5421010000000 1.0
END
