TITL C-862131-2149-493 325687.131738821 125000 -840.461394589302 0 0 151 (C1) n - 1
REM
REM in /home/nfs/bkarasulu/CARBON/AIRSS/Generating-Clusters/TERSOFF/Higher-Symm/FIRE-HFTN
REM
REM
REM
REM
REM
REM ./C.cell (b20cbc046b6831c77cfcea5457e17084)
REM AIRSS Version 0.9.1 bugfix July 2018 build 013d7b7c2542+ Fri, 06 Jul 2018 19:26:36 +0100
REM compiler GCC version 9.2.1 20190827 (Red Hat 9.2.1-1)
REM options -cpp -mtune=generic -march=x86-64 -g -O0 -fpre-include=/usr/include/finclude/math-vector-fortran.h
REM seed 678528805 -813621498 1240101519 -718598797 -1390015765 -932698336 180259673 232189557 1943161642 -1392792514 149897774 821772203 1330615840 -192775496 1343102530 -871596820 -1692295915 -1375699942 425406771 1745353171 -1710910913 619714044 -2076804946 -1835925103 1792258732 -817643318 -621002408 -1789806905 122495981 -624201481 -508285548 1550579077 1096157242
REM
CELL 1.54180   50.00000   50.00000   50.00000   90.00000   90.00000   90.00000
LATT -1
SFAC C  
C      1  0.4326840000000  0.4425120000000  0.4761150000000 1.0
C      1  0.5655400000000  0.4440330000000  0.5249770000000 1.0
C      1  0.5658600000000  0.4438390000000  0.4755740000000 1.0
C      1  0.4319160000000  0.4432950000000  0.5257290000000 1.0
C      1  0.5998610000000  0.4810310000000  0.5269430000000 1.0
C      1  0.3995260000000  0.4827750000000  0.4738250000000 1.0
C      1  0.3993300000000  0.4828860000000  0.5269650000000 1.0
C      1  0.5997430000000  0.4810900000000  0.4740520000000 1.0
C      1  0.5327930000000  0.6016580000000  0.4616540000000 1.0
C      1  0.4712100000000  0.6040420000000  0.5388170000000 1.0
C      1  0.4711040000000  0.6038320000000  0.4624630000000 1.0
C      1  0.5328380000000  0.6016990000000  0.5396330000000 1.0
C      1  0.5150830000000  0.5561680000000  0.5362940000000 1.0
C      1  0.4845930000000  0.5571480000000  0.4662590000000 1.0
C      1  0.4843940000000  0.5572950000000  0.5350760000000 1.0
C      1  0.5151930000000  0.5560900000000  0.4652140000000 1.0
C      1  0.4414110000000  0.5076070000000  0.4425780000000 1.0
C      1  0.5593020000000  0.5060620000000  0.5594540000000 1.0
C      1  0.5589010000000  0.5059940000000  0.4415890000000 1.0
C      1  0.4409790000000  0.5078820000000  0.5585020000000 1.0
C      1  0.5455170000000  0.5187910000000  0.4164490000000 1.0
C      1  0.4551400000000  0.5200610000000  0.5835210000000 1.0
C      1  0.4554130000000  0.5198730000000  0.4175570000000 1.0
C      1  0.5456890000000  0.5187540000000  0.5846150000000 1.0
C      1  0.5433110000000  0.5706890000000  0.4236270000000 1.0
C      1  0.4590440000000  0.5717660000000  0.5756550000000 1.0
C      1  0.4590540000000  0.5715640000000  0.4255730000000 1.0
C      1  0.5434020000000  0.5707180000000  0.5776160000000 1.0
C      1  0.5555880000000  0.4178440000000  0.4665000000000 1.0
C      1  0.4418030000000  0.4167280000000  0.5359170000000 1.0
C      1  0.4429630000000  0.4155140000000  0.4664810000000 1.0
C      1  0.5553760000000  0.4179970000000  0.5342240000000 1.0
C      1  0.5476930000000  0.4695020000000  0.5256830000000 1.0
C      1  0.4503880000000  0.4698370000000  0.4759210000000 1.0
C      1  0.4495920000000  0.4698730000000  0.5254290000000 1.0
C      1  0.5479760000000  0.4690750000000  0.4748850000000 1.0
C      1  0.4804940000000  0.5833730000000  0.4795970000000 1.0
C      1  0.5223870000000  0.5815200000000  0.5228940000000 1.0
C      1  0.5224210000000  0.5815040000000  0.4784740000000 1.0
C      1  0.4804690000000  0.5835320000000  0.5217310000000 1.0
C      1  0.4685300000000  0.4674520000000  0.4273600000000 1.0
C      1  0.5298990000000  0.4669940000000  0.5733570000000 1.0
C      1  0.5299130000000  0.4666770000000  0.4271120000000 1.0
C      1  0.4685820000000  0.4679110000000  0.5733070000000 1.0
C      1  0.4474360000000  0.3935510000000  0.4869810000000 1.0
C      1  0.5600300000000  0.3940370000000  0.5161190000000 1.0
C      1  0.5599360000000  0.3939810000000  0.4847740000000 1.0
C      1  0.4413800000000  0.3933710000000  0.5170800000000 1.0
C      1  0.5451320000000  0.6256560000000  0.4736690000000 1.0
C      1  0.4564120000000  0.6269070000000  0.5275430000000 1.0
C      1  0.4564150000000  0.6267940000000  0.4736950000000 1.0
C      1  0.5451330000000  0.6256950000000  0.5275570000000 1.0
C      1  0.5568330000000  0.5260630000000  0.4630130000000 1.0
C      1  0.4420020000000  0.5282430000000  0.5372860000000 1.0
C      1  0.4423820000000  0.5279730000000  0.4637740000000 1.0
C      1  0.5569220000000  0.5262780000000  0.5381980000000 1.0
C      1  0.4680970000000  0.5344950000000  0.5269930000000 1.0
C      1  0.5300660000000  0.5319990000000  0.4718690000000 1.0
C      1  0.5299570000000  0.5320130000000  0.5297470000000 1.0
C      1  0.4683950000000  0.5342710000000  0.4741900000000 1.0
C      1  0.5404890000000  0.4828260000000  0.4492250000000 1.0
C      1  0.4586070000000  0.4839590000000  0.5508010000000 1.0
C      1  0.4590010000000  0.4836210000000  0.4501830000000 1.0
C      1  0.5407780000000  0.4831250000000  0.5514890000000 1.0
C      1  0.5825490000000  0.4793160000000  0.5530370000000 1.0
C      1  0.4171410000000  0.4815030000000  0.4478130000000 1.0
C      1  0.4167630000000  0.4817280000000  0.5532120000000 1.0
C      1  0.5823020000000  0.4793640000000  0.4479600000000 1.0
C      1  0.4718960000000  0.5455250000000  0.4176840000000 1.0
C      1  0.5298100000000  0.5448480000000  0.5845270000000 1.0
C      1  0.5297190000000  0.5448850000000  0.4165400000000 1.0
C      1  0.4718040000000  0.5456220000000  0.5833640000000 1.0
C      1  0.5464940000000  0.4429900000000  0.5739130000000 1.0
C      1  0.4504380000000  0.4445690000000  0.4246260000000 1.0
C      1  0.4506300000000  0.4450140000000  0.5764150000000 1.0
C      1  0.5466830000000  0.4428320000000  0.4267090000000 1.0
C      1  0.4182920000000  0.5388590000000  0.4757630000000 1.0
C      1  0.5801310000000  0.5378420000000  0.5250130000000 1.0
C      1  0.5802740000000  0.5375210000000  0.4758950000000 1.0
C      1  0.4179320000000  0.5389470000000  0.5250160000000 1.0
C      1  0.5291770000000  0.5956220000000  0.5684800000000 1.0
C      1  0.4741150000000  0.5963740000000  0.4337150000000 1.0
C      1  0.4741840000000  0.5965520000000  0.5675830000000 1.0
C      1  0.5290850000000  0.5955600000000  0.4328140000000 1.0
C      1  0.6165060000000  0.4586490000000  0.5153770000000 1.0
C      1  0.3833020000000  0.4600450000000  0.4854350000000 1.0
C      1  0.3830990000000  0.4601560000000  0.5153720000000 1.0
C      1  0.6165140000000  0.4587260000000  0.4854950000000 1.0
C      1  0.4752810000000  0.4411560000000  0.5416430000000 1.0
C      1  0.5152140000000  0.4289530000000  0.4637390000000 1.0
C      1  0.5147460000000  0.4281200000000  0.5371140000000 1.0
C      1  0.4753940000000  0.4408280000000  0.4590850000000 1.0
C      1  0.4226170000000  0.4543710000000  0.4337350000000 1.0
C      1  0.5751680000000  0.4515980000000  0.5655240000000 1.0
C      1  0.5752370000000  0.4516600000000  0.4352760000000 1.0
C      1  0.4225860000000  0.4545440000000  0.5672960000000 1.0
C      1  0.5324390000000  0.4189380000000  0.4407070000000 1.0
C      1  0.4645770000000  0.4191110000000  0.5637050000000 1.0
C      1  0.4642130000000  0.4187290000000  0.4375110000000 1.0
C      1  0.5322640000000  0.4188190000000  0.5601960000000 1.0
C      1  0.5625660000000  0.4870370000000  0.5004820000000 1.0
C      1  0.4363170000000  0.4880520000000  0.5005620000000 1.0
C      1  0.4859250000000  0.4126220000000  0.5281250000000 1.0
C      1  0.4873750000000  0.4126780000000  0.4720080000000 1.0
C      1  0.5007650000000  0.4868430000000  0.5393910000000 1.0
C      1  0.5001780000000  0.4871390000000  0.4601200000000 1.0
C      1  0.4807090000000  0.3861450000000  0.4624470000000 1.0
C      1  0.4779170000000  0.3862730000000  0.5370490000000 1.0
C      1  0.4429650000000  0.6270700000000  0.5006190000000 1.0
C      1  0.5585620000000  0.6264090000000  0.5006120000000 1.0
C      1  0.5013900000000  0.5981050000000  0.4190630000000 1.0
C      1  0.5014780000000  0.5981180000000  0.5822280000000 1.0
C      1  0.4731140000000  0.4680270000000  0.5009940000000 1.0
C      1  0.5254610000000  0.4676470000000  0.5000320000000 1.0
C      1  0.3760000000000  0.5346130000000  0.5000600000000 1.0
C      1  0.6223800000000  0.5334280000000  0.5006090000000 1.0
C      1  0.4996020000000  0.4951790000000  0.4327380000000 1.0
C      1  0.4996690000000  0.4953390000000  0.5666250000000 1.0
C      1  0.5899690000000  0.4963860000000  0.5006160000000 1.0
C      1  0.4089390000000  0.4980710000000  0.5003000000000 1.0
C      1  0.4990140000000  0.4183420000000  0.5748030000000 1.0
C      1  0.4988140000000  0.4177410000000  0.4267400000000 1.0
C      1  0.5007600000000  0.5778740000000  0.3970830000000 1.0
C      1  0.5008100000000  0.5777570000000  0.6040830000000 1.0
C      1  0.4995190000000  0.4395670000000  0.4062600000000 1.0
C      1  0.4998090000000  0.4405610000000  0.5947530000000 1.0
C      1  0.5005740000000  0.5484630000000  0.4043770000000 1.0
C      1  0.5005750000000  0.5483670000000  0.5966490000000 1.0
C      1  0.4990680000000  0.4695870000000  0.4138560000000 1.0
C      1  0.4990820000000  0.4703900000000  0.5864460000000 1.0
C      1  0.5806500000000  0.4427610000000  0.5003800000000 1.0
C      1  0.4175480000000  0.4411610000000  0.5007120000000 1.0
C      1  0.4767200000000  0.4976480000000  0.5067000000000 1.0
C      1  0.5222930000000  0.4971520000000  0.4943820000000 1.0
C      1  0.4993970000000  0.4587730000000  0.4683490000000 1.0
C      1  0.4998110000000  0.4582780000000  0.5319160000000 1.0
C      1  0.4050980000000  0.5280490000000  0.5002870000000 1.0
C      1  0.5933350000000  0.5265330000000  0.5005660000000 1.0
C      1  0.5014400000000  0.3290080000000  0.4964470000000 1.0
C      1  0.4850440000000  0.6416590000000  0.5005900000000 1.0
C      1  0.5005040000000  0.5394350000000  0.5007520000000 1.0
C      1  0.4707160000000  0.6907660000000  0.5045030000000 1.0
C      1  0.4882050000000  0.6698450000000  0.4948000000000 1.0
C      1  0.5222200000000  0.4036010000000  0.5005460000000 1.0
C      1  0.5242110000000  0.3749850000000  0.4960340000000 1.0
C      1  0.4971520000000  0.4188570000000  0.5002180000000 1.0
C      1  0.5065200000000  0.6223270000000  0.5006160000000 1.0
C      1  0.5066970000000  0.3551380000000  0.5077560000000 1.0
C      1  0.4993290000000  0.4505500000000  0.5002690000000 1.0
C      1  0.4998390000000  0.5117350000000  0.5007250000000 1.0
C      1  0.5027690000000  0.5922100000000  0.5006590000000 1.0
END
