TITL C-862133-5440-1022 -0.0181772835250177 125000 -319.038236477685 0 0 58 (C1) n - 1
REM
REM in /home/nfs/bkarasulu/CARBON/AIRSS/Generating-Clusters/TERSOFF/Higher-Symm/FIRE-HFTN
REM
REM
REM
REM
REM
REM ./C.cell (b20cbc046b6831c77cfcea5457e17084)
REM AIRSS Version 0.9.1 bugfix July 2018 build 013d7b7c2542+ Fri, 06 Jul 2018 19:26:36 +0100
REM compiler GCC version 9.2.1 20190827 (Red Hat 9.2.1-1)
REM options -cpp -mtune=generic -march=x86-64 -g -O0 -fpre-include=/usr/include/finclude/math-vector-fortran.h
REM seed -1444494295 406323531 1679615239 -1026917246 -1842117644 -979704577 120100189 19237698 -1797169891 689008349 929801838 -1640566328 -1793211611 1187154617 -1791045671 -382434461 -1685467235 -1189772450 994365499 560398559 -1803511806 -1484559435 1651708167 -222385873 1517291574 811865378 191397303 -352130206 -2114076920 1309138928 -743723954 1689154542 -485231593
REM
CELL 1.54180   50.00000   50.00000   50.00000   90.00000   90.00000   90.00000
LATT -1
SFAC C  
C      1  0.5688190000000  0.4451130000000  0.5207790000000 1.0
C      1  0.4777620000000  0.5560180000000  0.5332050000000 1.0
C      1  0.4254430000000  0.5122240000000  0.5011780000000 1.0
C      1  0.4450470000000  0.5045960000000  0.4480130000000 1.0
C      1  0.5144490000000  0.4431730000000  0.4667160000000 1.0
C      1  0.4790190000000  0.4754610000000  0.5556940000000 1.0
C      1  0.5241150000000  0.5313000000000  0.4669980000000 1.0
C      1  0.5460320000000  0.5314660000000  0.5259650000000 1.0
C      1  0.5239020000000  0.4306620000000  0.5379340000000 1.0
C      1  0.4786530000000  0.5461990000000  0.4575620000000 1.0
C      1  0.4915650000000  0.5163210000000  0.4630470000000 1.0
C      1  0.4662100000000  0.5585700000000  0.4832080000000 1.0
C      1  0.5026650000000  0.4554340000000  0.5436690000000 1.0
C      1  0.5245080000000  0.4981020000000  0.5604300000000 1.0
C      1  0.5344940000000  0.4772090000000  0.4826270000000 1.0
C      1  0.4386290000000  0.5279100000000  0.5487760000000 1.0
C      1  0.4032580000000  0.5302000000000  0.4960490000000 1.0
C      1  0.5134520000000  0.4794080000000  0.4239700000000 1.0
C      1  0.4648270000000  0.5401490000000  0.5552470000000 1.0
C      1  0.4960000000000  0.4649440000000  0.5153110000000 1.0
C      1  0.4368810000000  0.4693810000000  0.4844890000000 1.0
C      1  0.5169800000000  0.5350980000000  0.4959250000000 1.0
C      1  0.5249530000000  0.5564530000000  0.4518080000000 1.0
C      1  0.4681290000000  0.5399740000000  0.5074220000000 1.0
C      1  0.4347130000000  0.5058600000000  0.5293780000000 1.0
C      1  0.5061440000000  0.5654630000000  0.5344160000000 1.0
C      1  0.4688010000000  0.5086650000000  0.4893100000000 1.0
C      1  0.4771590000000  0.4456400000000  0.5014830000000 1.0
C      1  0.4875100000000  0.4927110000000  0.4176620000000 1.0
C      1  0.5220790000000  0.4715440000000  0.4537150000000 1.0
C      1  0.5417010000000  0.5212340000000  0.5534680000000 1.0
C      1  0.5500540000000  0.5166340000000  0.4752820000000 1.0
C      1  0.4861300000000  0.5154610000000  0.5268470000000 1.0
C      1  0.4410820000000  0.4983670000000  0.4779530000000 1.0
C      1  0.4949150000000  0.5001070000000  0.5655730000000 1.0
C      1  0.4512310000000  0.4793400000000  0.5331340000000 1.0
C      1  0.5729300000000  0.4713350000000  0.4667720000000 1.0
C      1  0.5641120000000  0.4858060000000  0.5115390000000 1.0
C      1  0.4821300000000  0.5250520000000  0.5728630000000 1.0
C      1  0.5307100000000  0.4693830000000  0.5526330000000 1.0
C      1  0.5552440000000  0.5123150000000  0.5044720000000 1.0
C      1  0.4841490000000  0.4411610000000  0.4730980000000 1.0
C      1  0.5284780000000  0.5566170000000  0.5151090000000 1.0
C      1  0.5341720000000  0.4355320000000  0.4876940000000 1.0
C      1  0.4852870000000  0.5832420000000  0.4761500000000 1.0
C      1  0.5439150000000  0.5783280000000  0.5027060000000 1.0
C      1  0.5596860000000  0.4583800000000  0.4925240000000 1.0
C      1  0.5640250000000  0.4977420000000  0.4575050000000 1.0
C      1  0.4731590000000  0.4659440000000  0.4606630000000 1.0
C      1  0.5513340000000  0.4449400000000  0.5446410000000 1.0
C      1  0.5248330000000  0.4199330000000  0.5107010000000 1.0
C      1  0.4755910000000  0.4888150000000  0.5160580000000 1.0
C      1  0.4494990000000  0.4569560000000  0.5079560000000 1.0
C      1  0.4990920000000  0.5702780000000  0.4496800000000 1.0
C      1  0.5104330000000  0.5121610000000  0.5113170000000 1.0
C      1  0.5159030000000  0.4846800000000  0.5032900000000 1.0
C      1  0.4953850000000  0.4848600000000  0.4614800000000 1.0
C      1  0.4726200000000  0.5101450000000  0.4369060000000 1.0
END
