TITL C-862129-6180-250 46.0154201120993 125000 -289.383271691738 0 0 54 (C1) n - 1
REM
REM in /home/nfs/bkarasulu/CARBON/AIRSS/Generating-Clusters/TERSOFF/Higher-Symm/FIRE-HFTN
REM
REM
REM
REM
REM
REM ./C.cell (b20cbc046b6831c77cfcea5457e17084)
REM AIRSS Version 0.9.1 bugfix July 2018 build 013d7b7c2542+ Fri, 06 Jul 2018 19:26:36 +0100
REM compiler GCC version 9.2.1 20190827 (Red Hat 9.2.1-1)
REM options -cpp -mtune=generic -march=x86-64 -g -O0 -fpre-include=/usr/include/finclude/math-vector-fortran.h
REM seed 326260095 -1071457068 412607854 117518586 2016473145 -769807800 -425414049 240062150 982101213 2133691468 -1205134366 -1490026850 390108411 -211783460 473031078 1742874478 -1100105376 -62857283 295020446 -1066494560 -666453548 1484951008 -204632024 1337986560 639283161 -510778254 -1948592891 -1960456379 -932468561 2112398360 -906760153 645621200 -1136677273
REM
CELL 1.54180   50.00000   50.00000   50.00000   90.00000   90.00000   90.00000
LATT -1
SFAC C  
C      1  0.4838820000000  0.5147380000000  0.5389770000000 1.0
C      1  0.5196620000000  0.5107680000000  0.5375130000000 1.0
C      1  0.5406030000000  0.5112380000000  0.5082070000000 1.0
C      1  0.5293030000000  0.5131700000000  0.4740400000000 1.0
C      1  0.4964130000000  0.5147210000000  0.4594240000000 1.0
C      1  0.4650870000000  0.5158210000000  0.4761800000000 1.0
C      1  0.4603400000000  0.5150130000000  0.5117400000000 1.0
C      1  0.4715780000000  0.5573090000000  0.4491930000000 1.0
C      1  0.4428630000000  0.5579170000000  0.4909700000000 1.0
C      1  0.4584260000000  0.5576070000000  0.5392170000000 1.0
C      1  0.5047560000000  0.5546180000000  0.5597150000000 1.0
C      1  0.5491080000000  0.5523570000000  0.5361120000000 1.0
C      1  0.5556970000000  0.5542980000000  0.4861900000000 1.0
C      1  0.5222230000000  0.5561670000000  0.4482110000000 1.0
C      1  0.4738940000000  0.4198980000000  0.4758200000000 1.0
C      1  0.4660560000000  0.4151010000000  0.5058580000000 1.0
C      1  0.4859520000000  0.4213700000000  0.5288900000000 1.0
C      1  0.5153730000000  0.4107510000000  0.5333850000000 1.0
C      1  0.5371350000000  0.4137420000000  0.5099760000000 1.0
C      1  0.5306180000000  0.4160060000000  0.4789610000000 1.0
C      1  0.5027070000000  0.4152210000000  0.4638510000000 1.0
C      1  0.4545970000000  0.4674240000000  0.4594410000000 1.0
C      1  0.4404790000000  0.4653370000000  0.5128230000000 1.0
C      1  0.4763030000000  0.4664950000000  0.5538540000000 1.0
C      1  0.5299280000000  0.4610170000000  0.5589760000000 1.0
C      1  0.5622040000000  0.4638940000000  0.5174070000000 1.0
C      1  0.5502810000000  0.4658470000000  0.4659620000000 1.0
C      1  0.5051800000000  0.4664270000000  0.4404400000000 1.0
C      1  0.4886220000000  0.4549310000000  0.5297540000000 1.0
C      1  0.5200970000000  0.4444490000000  0.5365810000000 1.0
C      1  0.5391380000000  0.4470100000000  0.5116460000000 1.0
C      1  0.5311160000000  0.4490260000000  0.4804320000000 1.0
C      1  0.5028500000000  0.4497150000000  0.4646430000000 1.0
C      1  0.4730210000000  0.4521360000000  0.4760730000000 1.0
C      1  0.4653060000000  0.4505310000000  0.5068620000000 1.0
C      1  0.4798550000000  0.5427390000000  0.5515890000000 1.0
C      1  0.5274360000000  0.5395310000000  0.5500510000000 1.0
C      1  0.5545680000000  0.5395820000000  0.5109680000000 1.0
C      1  0.5399850000000  0.5416060000000  0.4656790000000 1.0
C      1  0.4965740000000  0.5431170000000  0.4456640000000 1.0
C      1  0.4541850000000  0.5441360000000  0.4682240000000 1.0
C      1  0.4481180000000  0.5440800000000  0.5158040000000 1.0
C      1  0.5641580000000  0.4919170000000  0.5104100000000 1.0
C      1  0.5452970000000  0.4930900000000  0.4579750000000 1.0
C      1  0.4947540000000  0.4934180000000  0.4379280000000 1.0
C      1  0.4470840000000  0.4949030000000  0.4641740000000 1.0
C      1  0.4390290000000  0.4941190000000  0.5185660000000 1.0
C      1  0.4739790000000  0.4943430000000  0.5581480000000 1.0
C      1  0.5298760000000  0.4907060000000  0.5593670000000 1.0
C      1  0.5065280000000  0.4767930000000  0.5135290000000 1.0
C      1  0.5018440000000  0.5265000000000  0.5028880000000 1.0
C      1  0.4963260000000  0.4982540000000  0.4980500000000 1.0
C      1  0.4915000000000  0.5482930000000  0.4870320000000 1.0
C      1  0.5010410000000  0.5755920000000  0.4882620000000 1.0
END
