TITL C-862131-2149-993 55.3846020397939 125000 -1105.13440818078 0 0 189 (C1) n - 1
REM
REM in /home/nfs/bkarasulu/CARBON/AIRSS/Generating-Clusters/TERSOFF/Higher-Symm/FIRE-HFTN
REM
REM
REM
REM
REM
REM ./C.cell (b20cbc046b6831c77cfcea5457e17084)
REM AIRSS Version 0.9.1 bugfix July 2018 build 013d7b7c2542+ Fri, 06 Jul 2018 19:26:36 +0100
REM compiler GCC version 9.2.1 20190827 (Red Hat 9.2.1-1)
REM options -cpp -mtune=generic -march=x86-64 -g -O0 -fpre-include=/usr/include/finclude/math-vector-fortran.h
REM seed 591981067 1016916827 1301239148 -1231141287 1606256340 -88230893 2077222146 1214621492 335201709 -432750388 1094999145 734669639 -2103183393 410010204 -40098279 193905880 96600751 1972592253 1778874783 1436983609 -789734968 -838914491 -2047117257 815763714 270258131 -462526886 -1555573424 774805531 1184019631 2100375443 -998316554 -1692160610 -372965101
REM
CELL 1.54180   50.00000   50.00000   50.00000   90.00000   90.00000   90.00000
LATT -1
SFAC C  
C      1  0.4406490000000  0.5466610000000  0.4482460000000 1.0
C      1  0.4393900000000  0.4489250000000  0.4480340000000 1.0
C      1  0.5380330000000  0.5302400000000  0.5995570000000 1.0
C      1  0.5336750000000  0.4721280000000  0.5959420000000 1.0
C      1  0.5539920000000  0.4202440000000  0.4888740000000 1.0
C      1  0.5550300000000  0.5806020000000  0.4896750000000 1.0
C      1  0.5282770000000  0.4234340000000  0.5851460000000 1.0
C      1  0.5311880000000  0.5777880000000  0.5836520000000 1.0
C      1  0.4459750000000  0.4665530000000  0.4999780000000 1.0
C      1  0.4463280000000  0.5278900000000  0.5026960000000 1.0
C      1  0.4773260000000  0.5137760000000  0.5893370000000 1.0
C      1  0.4698780000000  0.4892580000000  0.5731810000000 1.0
C      1  0.5626280000000  0.4703510000000  0.4884170000000 1.0
C      1  0.5599280000000  0.5299690000000  0.4885580000000 1.0
C      1  0.5063140000000  0.4454530000000  0.3855150000000 1.0
C      1  0.5075190000000  0.5594450000000  0.3825610000000 1.0
C      1  0.5296340000000  0.4375190000000  0.5375630000000 1.0
C      1  0.5304200000000  0.5599890000000  0.5366690000000 1.0
C      1  0.4662320000000  0.6155830000000  0.4977590000000 1.0
C      1  0.4654340000000  0.3798580000000  0.4981180000000 1.0
C      1  0.3934640000000  0.4411110000000  0.5088450000000 1.0
C      1  0.3953850000000  0.5532640000000  0.5105340000000 1.0
C      1  0.4745750000000  0.4248410000000  0.5187980000000 1.0
C      1  0.4754930000000  0.5702000000000  0.5195180000000 1.0
C      1  0.4798910000000  0.5559440000000  0.3946830000000 1.0
C      1  0.4774040000000  0.4425390000000  0.3943780000000 1.0
C      1  0.4786700000000  0.5620960000000  0.5840400000000 1.0
C      1  0.4749590000000  0.4410890000000  0.5812020000000 1.0
C      1  0.5074060000000  0.4649020000000  0.5061040000000 1.0
C      1  0.5070260000000  0.5290940000000  0.5074680000000 1.0
C      1  0.5872820000000  0.4454320000000  0.5547390000000 1.0
C      1  0.5893570000000  0.5530250000000  0.5544380000000 1.0
C      1  0.5701580000000  0.4200030000000  0.5565200000000 1.0
C      1  0.5735630000000  0.5798660000000  0.5555060000000 1.0
C      1  0.4533020000000  0.5866290000000  0.4506110000000 1.0
C      1  0.4514010000000  0.4087510000000  0.4502910000000 1.0
C      1  0.4681140000000  0.6084880000000  0.4647690000000 1.0
C      1  0.4673960000000  0.3878700000000  0.4650600000000 1.0
C      1  0.4987990000000  0.4166640000000  0.5051040000000 1.0
C      1  0.4987500000000  0.5777730000000  0.5038930000000 1.0
C      1  0.3675120000000  0.5127850000000  0.4788440000000 1.0
C      1  0.3671480000000  0.4840550000000  0.4788220000000 1.0
C      1  0.5682230000000  0.5560930000000  0.4969290000000 1.0
C      1  0.5702050000000  0.4433920000000  0.4942400000000 1.0
C      1  0.4605120000000  0.4765150000000  0.5249150000000 1.0
C      1  0.4609970000000  0.5189490000000  0.5282720000000 1.0
C      1  0.4239400000000  0.5309810000000  0.4306200000000 1.0
C      1  0.4228860000000  0.4652460000000  0.4307850000000 1.0
C      1  0.5271860000000  0.5588690000000  0.6066280000000 1.0
C      1  0.5238940000000  0.4446480000000  0.6060610000000 1.0
C      1  0.5572240000000  0.6014340000000  0.5099500000000 1.0
C      1  0.5517390000000  0.4008890000000  0.5106200000000 1.0
C      1  0.5975730000000  0.4851250000000  0.4232480000000 1.0
C      1  0.5976340000000  0.5162800000000  0.4234820000000 1.0
C      1  0.4687940000000  0.4462090000000  0.4426530000000 1.0
C      1  0.4701850000000  0.5481790000000  0.4435760000000 1.0
C      1  0.4032740000000  0.5139720000000  0.4437110000000 1.0
C      1  0.4028370000000  0.4823870000000  0.4437930000000 1.0
C      1  0.5953790000000  0.5272600000000  0.5108970000000 1.0
C      1  0.5970420000000  0.4716550000000  0.5124030000000 1.0
C      1  0.4599400000000  0.5754120000000  0.5654200000000 1.0
C      1  0.4568740000000  0.4243940000000  0.5641410000000 1.0
C      1  0.4878790000000  0.4403700000000  0.5407440000000 1.0
C      1  0.4891020000000  0.5555690000000  0.5426230000000 1.0
C      1  0.5019120000000  0.6105050000000  0.4637130000000 1.0
C      1  0.5008670000000  0.3869200000000  0.4633450000000 1.0
C      1  0.5766880000000  0.5194180000000  0.3988930000000 1.0
C      1  0.5748090000000  0.4852320000000  0.4002080000000 1.0
C      1  0.4977410000000  0.3894710000000  0.4940250000000 1.0
C      1  0.4979730000000  0.6057260000000  0.4941430000000 1.0
C      1  0.5490870000000  0.5127010000000  0.5101020000000 1.0
C      1  0.5475820000000  0.4838740000000  0.5079170000000 1.0
C      1  0.5206780000000  0.4368570000000  0.5092810000000 1.0
C      1  0.5203480000000  0.5576230000000  0.5090680000000 1.0
C      1  0.4705860000000  0.4217540000000  0.4229740000000 1.0
C      1  0.4733310000000  0.5726630000000  0.4243750000000 1.0
C      1  0.4184310000000  0.5510300000000  0.5840910000000 1.0
C      1  0.4147010000000  0.4500020000000  0.5808470000000 1.0
C      1  0.4336740000000  0.4702210000000  0.4023190000000 1.0
C      1  0.4357000000000  0.5263020000000  0.4017560000000 1.0
C      1  0.5582130000000  0.5866690000000  0.5790190000000 1.0
C      1  0.5553670000000  0.4145100000000  0.5807890000000 1.0
C      1  0.4723450000000  0.4407280000000  0.6100030000000 1.0
C      1  0.4759440000000  0.5658310000000  0.6127900000000 1.0
C      1  0.5809700000000  0.5295750000000  0.5362130000000 1.0
C      1  0.5803800000000  0.4689140000000  0.5362800000000 1.0
C      1  0.5792260000000  0.5147950000000  0.4708530000000 1.0
C      1  0.5785930000000  0.4860100000000  0.4697740000000 1.0
C      1  0.5274180000000  0.5006990000000  0.4752790000000 1.0
C      1  0.5341760000000  0.5284490000000  0.4741380000000 1.0
C      1  0.5342940000000  0.5347970000000  0.5501120000000 1.0
C      1  0.5328310000000  0.4643710000000  0.5483010000000 1.0
C      1  0.5425650000000  0.4915940000000  0.4297550000000 1.0
C      1  0.5408580000000  0.5224580000000  0.4256630000000 1.0
C      1  0.4313860000000  0.5367420000000  0.6081060000000 1.0
C      1  0.4269610000000  0.4679500000000  0.6029250000000 1.0
C      1  0.6070670000000  0.4321620000000  0.4775420000000 1.0
C      1  0.6069380000000  0.5676330000000  0.4787990000000 1.0
C      1  0.5929920000000  0.5292340000000  0.4498280000000 1.0
C      1  0.5930800000000  0.4720780000000  0.4493310000000 1.0
C      1  0.5484140000000  0.4711250000000  0.4078800000000 1.0
C      1  0.5522880000000  0.5372760000000  0.4028820000000 1.0
C      1  0.4945150000000  0.3978910000000  0.5521070000000 1.0
C      1  0.4965810000000  0.6003700000000  0.5493710000000 1.0
C      1  0.5628260000000  0.4836690000000  0.5913370000000 1.0
C      1  0.5649380000000  0.5164160000000  0.5925200000000 1.0
C      1  0.5890680000000  0.5334230000000  0.5814970000000 1.0
C      1  0.5864090000000  0.4648870000000  0.5818800000000 1.0
C      1  0.5140880000000  0.5765130000000  0.5574500000000 1.0
C      1  0.5118970000000  0.4225330000000  0.5584680000000 1.0
C      1  0.4890290000000  0.4682820000000  0.5300960000000 1.0
C      1  0.4896410000000  0.5272720000000  0.5321800000000 1.0
C      1  0.4326120000000  0.4174820000000  0.5127120000000 1.0
C      1  0.4333080000000  0.5780490000000  0.5135220000000 1.0
C      1  0.4480990000000  0.3923110000000  0.5201750000000 1.0
C      1  0.4493770000000  0.6030770000000  0.5199630000000 1.0
C      1  0.4023210000000  0.5502600000000  0.4812140000000 1.0
C      1  0.4004160000000  0.4450300000000  0.4800270000000 1.0
C      1  0.4504940000000  0.5549830000000  0.6240530000000 1.0
C      1  0.4474870000000  0.4531950000000  0.6203510000000 1.0
C      1  0.4851620000000  0.5481260000000  0.4681610000000 1.0
C      1  0.4855230000000  0.4458000000000  0.4664980000000 1.0
C      1  0.4663430000000  0.4044110000000  0.5433000000000 1.0
C      1  0.4683920000000  0.5924680000000  0.5423740000000 1.0
C      1  0.4782770000000  0.5247460000000  0.4291710000000 1.0
C      1  0.4774710000000  0.4689600000000  0.4275660000000 1.0
C      1  0.6104130000000  0.4359780000000  0.5331000000000 1.0
C      1  0.6124090000000  0.5612440000000  0.5328330000000 1.0
C      1  0.4872360000000  0.4672590000000  0.5728360000000 1.0
C      1  0.4916610000000  0.5353320000000  0.5792020000000 1.0
C      1  0.4955830000000  0.5933390000000  0.4250920000000 1.0
C      1  0.4934940000000  0.4023200000000  0.4249750000000 1.0
C      1  0.4245110000000  0.5450580000000  0.5554890000000 1.0
C      1  0.4225090000000  0.4523640000000  0.5520880000000 1.0
C      1  0.5754760000000  0.5998650000000  0.5332790000000 1.0
C      1  0.5697270000000  0.4000630000000  0.5342150000000 1.0
C      1  0.4553620000000  0.4600370000000  0.3813920000000 1.0
C      1  0.4600830000000  0.5355090000000  0.3822230000000 1.0
C      1  0.4260950000000  0.4287090000000  0.4660890000000 1.0
C      1  0.4279230000000  0.5668840000000  0.4668830000000 1.0
C      1  0.5297680000000  0.5391210000000  0.3821000000000 1.0
C      1  0.5239440000000  0.4696810000000  0.3890410000000 1.0
C      1  0.4952090000000  0.4697230000000  0.4803930000000 1.0
C      1  0.4932460000000  0.5240790000000  0.4823110000000 1.0
C      1  0.5360620000000  0.5860160000000  0.4166630000000 1.0
C      1  0.5290350000000  0.4237450000000  0.4185560000000 1.0
C      1  0.4206860000000  0.5117830000000  0.5112380000000 1.0
C      1  0.4204900000000  0.4822150000000  0.5100710000000 1.0
C      1  0.6118150000000  0.5508540000000  0.5034520000000 1.0
C      1  0.6121440000000  0.4474550000000  0.5037190000000 1.0
C      1  0.5495510000000  0.4143600000000  0.4598670000000 1.0
C      1  0.5505900000000  0.5853730000000  0.4603250000000 1.0
C      1  0.5934910000000  0.5577610000000  0.4535690000000 1.0
C      1  0.5925360000000  0.4434450000000  0.4530380000000 1.0
C      1  0.4723140000000  0.5114630000000  0.3661640000000 1.0
C      1  0.4622580000000  0.4821960000000  0.3609080000000 1.0
C      1  0.4078300000000  0.4872120000000  0.6190490000000 1.0
C      1  0.4117360000000  0.5175990000000  0.6238330000000 1.0
C      1  0.3881730000000  0.4687130000000  0.4659400000000 1.0
C      1  0.3891000000000  0.5276750000000  0.4663010000000 1.0
C      1  0.5583720000000  0.5660560000000  0.4145010000000 1.0
C      1  0.5523700000000  0.4415720000000  0.4184340000000 1.0
C      1  0.4572240000000  0.4840830000000  0.4156930000000 1.0
C      1  0.4578290000000  0.5109200000000  0.4161100000000 1.0
C      1  0.5194740000000  0.4058690000000  0.4451790000000 1.0
C      1  0.5209550000000  0.5933110000000  0.4455070000000 1.0
C      1  0.5537840000000  0.4813350000000  0.5376220000000 1.0
C      1  0.5546500000000  0.5169380000000  0.5396280000000 1.0
C      1  0.4423130000000  0.5215490000000  0.5507670000000 1.0
C      1  0.4405860000000  0.4756160000000  0.5463560000000 1.0
C      1  0.4472810000000  0.5127250000000  0.4763590000000 1.0
C      1  0.4461320000000  0.4834580000000  0.4749500000000 1.0
C      1  0.5702450000000  0.5721430000000  0.4422330000000 1.0
C      1  0.5678940000000  0.4306440000000  0.4422820000000 1.0
C      1  0.4523010000000  0.5578190000000  0.5034070000000 1.0
C      1  0.4518370000000  0.4368250000000  0.5012330000000 1.0
C      1  0.5031600000000  0.5623320000000  0.6242550000000 1.0
C      1  0.4990020000000  0.4430950000000  0.6225390000000 1.0
C      1  0.4128850000000  0.4327310000000  0.5296820000000 1.0
C      1  0.4142740000000  0.5631190000000  0.5316030000000 1.0
C      1  0.5208720000000  0.5307810000000  0.5754840000000 1.0
C      1  0.5171720000000  0.4719790000000  0.5714100000000 1.0
C      1  0.5019790000000  0.5103690000000  0.4357390000000 1.0
C      1  0.5018550000000  0.4820520000000  0.4335870000000 1.0
C      1  0.5371550000000  0.4823420000000  0.4562970000000 1.0
C      1  0.5323250000000  0.5385370000000  0.4478440000000 1.0
C      1  0.4396070000000  0.4890090000000  0.5861300000000 1.0
C      1  0.4488570000000  0.5146350000000  0.5992030000000 1.0
C      1  0.4858210000000  0.4967030000000  0.4720020000000 1.0
END
