TITL C-862503-991-174 -0.306654580409528 125000 -949.307158319555 0 0 158 (C3) n - 1
REM
REM in /home/nfs/bkarasulu/CARBON/AIRSS/Generating-Clusters/TERSOFF/Higher-Symm/FIRE-HFTN
REM
REM
REM
REM
REM
REM ./C.cell (b20cbc046b6831c77cfcea5457e17084)
REM AIRSS Version 0.9.1 bugfix July 2018 build 013d7b7c2542+ Fri, 06 Jul 2018 19:26:36 +0100
REM compiler GCC version 9.2.1 20190827 (Red Hat 9.2.1-1)
REM options -cpp -mtune=generic -march=x86-64 -g -O0 -fpre-include=/usr/include/finclude/math-vector-fortran.h
REM seed 1559058317 495289614 440733876 1238965409 60496241 682223702 424042329 -1639757016 542534416 619242172 1351190627 2113423955 -2078892753 2062042774 -210844990 892809714 -906564071 -48101867 106336456 -1171068552 -1935665864 -1509930888 -1789099518 798101420 -1501589596 523908055 -677333725 -1357136909 -572717590 262133163 -1276513272 -2133633554 1306854080
REM
CELL 1.54180   50.00000   50.00000   50.00000   90.00000   90.00000   90.00000
LATT -1
SFAC C  
C      1  0.5482140000000  0.5164500000000  0.4756720000000 1.0
C      1  0.5482140000000  0.4711400000000  0.4983770000000 1.0
C      1  0.5482140000000  0.5134580000000  0.5262650000000 1.0
C      1  0.4525540000000  0.6052470000000  0.5332110000000 1.0
C      1  0.4525540000000  0.4765720000000  0.3927070000000 1.0
C      1  0.4525540000000  0.4192290000000  0.5743950000000 1.0
C      1  0.4468200000000  0.4870520000000  0.4491460000000 1.0
C      1  0.4468200000000  0.4628670000000  0.5370990000000 1.0
C      1  0.4468200000000  0.5511290000000  0.5140680000000 1.0
C      1  0.3953760000000  0.4720590000000  0.5055840000000 1.0
C      1  0.3953760000000  0.5192400000000  0.5218650000000 1.0
C      1  0.3953760000000  0.5097490000000  0.4728650000000 1.0
C      1  0.5544420000000  0.5885210000000  0.4897970000000 1.0
C      1  0.5544420000000  0.4473370000000  0.4288990000000 1.0
C      1  0.5544420000000  0.4651900000000  0.5816170000000 1.0
C      1  0.4189030000000  0.5056980000000  0.4215110000000 1.0
C      1  0.4189030000000  0.4296110000000  0.5347690000000 1.0
C      1  0.4189030000000  0.5657380000000  0.5440330000000 1.0
C      1  0.4746720000000  0.4482650000000  0.5441630000000 1.0
C      1  0.4746720000000  0.5645470000000  0.5231810000000 1.0
C      1  0.4746720000000  0.4882350000000  0.4329690000000 1.0
C      1  0.5782550000000  0.4605550000000  0.5624530000000 1.0
C      1  0.5782550000000  0.5742420000000  0.5033930000000 1.0
C      1  0.5782550000000  0.4662500000000  0.4344670000000 1.0
C      1  0.5163580000000  0.4270910000000  0.4535200000000 1.0
C      1  0.5163580000000  0.4966340000000  0.5868400000000 1.0
C      1  0.5163580000000  0.5773220000000  0.4599540000000 1.0
C      1  0.5063640000000  0.4564470000000  0.6010830000000 1.0
C      1  0.5063640000000  0.6097500000000  0.4876350000000 1.0
C      1  0.5063640000000  0.4348500000000  0.4115950000000 1.0
C      1  0.4960420000000  0.5119420000000  0.5214000000000 1.0
C      1  0.4960420000000  0.5129950000000  0.4794170000000 1.0
C      1  0.4960420000000  0.4761110000000  0.4994960000000 1.0
C      1  0.5521740000000  0.5060920000000  0.4117540000000 1.0
C      1  0.5521730000000  0.4209640000000  0.5393060000000 1.0
C      1  0.5521730000000  0.5739910000000  0.5492530000000 1.0
C      1  0.4423210000000  0.5205290000000  0.5501650000000 1.0
C      1  0.4423210000000  0.5336130000000  0.4575980000000 1.0
C      1  0.4423210000000  0.4469050000000  0.4925500000000 1.0
C      1  0.5320120000000  0.5996460000000  0.5054230000000 1.0
C      1  0.5320120000000  0.4553070000000  0.4114510000000 1.0
C      1  0.5320120000000  0.4460940000000  0.5834390000000 1.0
C      1  0.4686920000000  0.5376120000000  0.4492290000000 1.0
C      1  0.4686920000000  0.4376580000000  0.4932720000000 1.0
C      1  0.4686920000000  0.5257770000000  0.5578130000000 1.0
C      1  0.5450220000000  0.4284140000000  0.4503660000000 1.0
C      1  0.5450220000000  0.4932420000000  0.5872710000000 1.0
C      1  0.5450220000000  0.5793920000000  0.4626760000000 1.0
C      1  0.4393150000000  0.5233950000000  0.5206970000000 1.0
C      1  0.4393150000000  0.5066600000000  0.4698500000000 1.0
C      1  0.4393150000000  0.4709930000000  0.5097670000000 1.0
C      1  0.4287980000000  0.4412060000000  0.4677010000000 1.0
C      1  0.4287980000000  0.5018590000000  0.5675250000000 1.0
C      1  0.4287980000000  0.5579820000000  0.4650870000000 1.0
C      1  0.5627050000000  0.5166090000000  0.5844370000000 1.0
C      1  0.5627050000000  0.5652530000000  0.4438570000000 1.0
C      1  0.5627050000000  0.4191850000000  0.4720200000000 1.0
C      1  0.4576630000000  0.4659050000000  0.5867910000000 1.0
C      1  0.4576630000000  0.5926440000000  0.4865910000000 1.0
C      1  0.4576630000000  0.4424990000000  0.4269310000000 1.0
C      1  0.4468560000000  0.3982660000000  0.5032280000000 1.0
C      1  0.4468560000000  0.5540960000000  0.5869490000000 1.0
C      1  0.4468560000000  0.5486850000000  0.4101360000000 1.0
C      1  0.4984500000000  0.4102420000000  0.4367810000000 1.0
C      1  0.4984490000000  0.4905630000000  0.6098010000000 1.0
C      1  0.4984490000000  0.6002420000000  0.4537310000000 1.0
C      1  0.5210070000000  0.4794220000000  0.5122900000000 1.0
C      1  0.5210070000000  0.5213660000000  0.5121360000000 1.0
C      1  0.5210070000000  0.5002600000000  0.4758880000000 1.0
C      1  0.4228750000000  0.5711750000000  0.5134700000000 1.0
C      1  0.4228750000000  0.4765120000000  0.4320840000000 1.0
C      1  0.4228750000000  0.4533610000000  0.5547580000000 1.0
C      1  0.4733180000000  0.5620950000000  0.4155620000000 1.0
C      1  0.4733180000000  0.3962610000000  0.4889020000000 1.0
C      1  0.4733170000000  0.5426920000000  0.5958490000000 1.0
C      1  0.5076460000000  0.4280380000000  0.5107790000000 1.0
C      1  0.5076460000000  0.5457490000000  0.5573900000000 1.0
C      1  0.5076460000000  0.5272600000000  0.4321440000000 1.0
C      1  0.4894120000000  0.5137690000000  0.3935570000000 1.0
C      1  0.4894120000000  0.4013670000000  0.5417560000000 1.0
C      1  0.4894120000000  0.5859120000000  0.5650000000000 1.0
C      1  0.4382490000000  0.4589370000000  0.4117430000000 1.0
C      1  0.4382490000000  0.4445320000000  0.5801490000000 1.0
C      1  0.4382490000000  0.5975780000000  0.5084210000000 1.0
C      1  0.4890020000000  0.4541640000000  0.4837340000000 1.0
C      1  0.4890020000000  0.5092640000000  0.5482870000000 1.0
C      1  0.4890020000000  0.5376190000000  0.4682930000000 1.0
C      1  0.5251790000000  0.5663030000000  0.5946480000000 1.0
C      1  0.5251790000000  0.5492490000000  0.3957160000000 1.0
C      1  0.5251790000000  0.3854960000000  0.5099500000000 1.0
C      1  0.5931460000000  0.4437960000000  0.5134530000000 1.0
C      1  0.5931460000000  0.5401860000000  0.5424070000000 1.0
C      1  0.5931460000000  0.5170650000000  0.4444540000000 1.0
C      1  0.5269830000000  0.5527240000000  0.5077730000000 1.0
C      1  0.5269830000000  0.4808030000000  0.4509130000000 1.0
C      1  0.5269830000000  0.4675210000000  0.5416280000000 1.0
C      1  0.5017800000000  0.4997590000000  0.4385970000000 1.0
C      1  0.5017800000000  0.4473780000000  0.5313700000000 1.0
C      1  0.5017800000000  0.5539110000000  0.5303470000000 1.0
C      1  0.5101930000000  0.6036770000000  0.5537020000000 1.0
C      1  0.5101930000000  0.4951020000000  0.3838210000000 1.0
C      1  0.5101930000000  0.4022680000000  0.5627900000000 1.0
C      1  0.4810290000000  0.4645710000000  0.5686000000000 1.0
C      1  0.4810290000000  0.5775570000000  0.4968420000000 1.0
C      1  0.4810290000000  0.4589200000000  0.4348720000000 1.0
C      1  0.4113850000000  0.4818330000000  0.5537880000000 1.0
C      1  0.4113850000000  0.5560980000000  0.4892980000000 1.0
C      1  0.4113850000000  0.4631160000000  0.4572270000000 1.0
C      1  0.4478130000000  0.4931060000000  0.5907160000000 1.0
C      1  0.4478130000000  0.5824430000000  0.4610710000000 1.0
C      1  0.4478130000000  0.4254980000000  0.4485260000000 1.0
C      1  0.3978740000000  0.4905440000000  0.5285140000000 1.0
C      1  0.3978740000000  0.5298550000000  0.4943910000000 1.0
C      1  0.3978740000000  0.4806480000000  0.4774080000000 1.0
C      1  0.4984500000000  0.5600410000000  0.5816370000000 1.0
C      1  0.4984500000000  0.5411120000000  0.4076430000000 1.0
C      1  0.4984500000000  0.3998940000000  0.5110330000000 1.0
C      1  0.5816700000000  0.4625160000000  0.4643580000000 1.0
C      1  0.5816700000000  0.4883080000000  0.5507420000000 1.0
C      1  0.5816700000000  0.5502230000000  0.4852130000000 1.0
C      1  0.5834700000000  0.5170090000000  0.5640450000000 1.0
C      1  0.5834700000000  0.5473930000000  0.4537060000000 1.0
C      1  0.5834700000000  0.4366450000000  0.4825620000000 1.0
C      1  0.4718950000000  0.5101490000000  0.6014640000000 1.0
C      1  0.4718950000000  0.5832290000000  0.4409380000000 1.0
C      1  0.4718950000000  0.4076700000000  0.4579110000000 1.0
C      1  0.5799360000000  0.4958790000000  0.4243820000000 1.0
C      1  0.5799360000000  0.4370060000000  0.5418380000000 1.0
C      1  0.5799360000000  0.5681620000000  0.5340940000000 1.0
C      1  0.4426470000000  0.5685550000000  0.5616370000000 1.0
C      1  0.4426470000000  0.5195350000000  0.4102700000000 1.0
C      1  0.4426470000000  0.4129570000000  0.5284060000000 1.0
C      1  0.5321970000000  0.5947010000000  0.5362450000000 1.0
C      1  0.5321970000000  0.4844720000000  0.4003230000000 1.0
C      1  0.5321970000000  0.4218740000000  0.5637450000000 1.0
C      1  0.5501090000000  0.5328710000000  0.3976470000000 1.0
C      1  0.5501090000000  0.3953580000000  0.5231680000000 1.0
C      1  0.5501090000000  0.5728190000000  0.5794980000000 1.0
C      1  0.5998610000000  0.5282210000000  0.4929890000000 1.0
C      1  0.5998610000000  0.4802510000000  0.4795250000000 1.0
C      1  0.5998610000000  0.4925760000000  0.5278000000000 1.0
C      1  0.5500750000000  0.5439520000000  0.4846270000000 1.0
C      1  0.5500750000000  0.4651440000000  0.4700820000000 1.0
C      1  0.5500750000000  0.4919520000000  0.5456040000000 1.0
C      1  0.5437160000000  0.5471670000000  0.5359300000000 1.0
C      1  0.5437160000000  0.5079660000000  0.4416470000000 1.0
C      1  0.5437160000000  0.4459140000000  0.5227370000000 1.0
C      1  0.4989500000000  0.4503570000000  0.4574190000000 1.0
C      1  0.4989500000000  0.4883780000000  0.5647410000000 1.0
C      1  0.4989500000000  0.5623120000000  0.4781530000000 1.0
C      1  0.6029020000000  0.5078420000000  0.4718510000000 1.0
C      1  0.6029020000000  0.4721350000000  0.5077430000000 1.0
C      1  0.6029020000000  0.5210710000000  0.5207200000000 1.0
C      1  0.4653880000000  0.5823520000000  0.5480510000000 1.0
C      1  0.4653880000000  0.5008710000000  0.4051150000000 1.0
C      1  0.4653880000000  0.4178250000000  0.5471470000000 1.0
C      1  0.4390280000000  0.5003490000000  0.5001040000000 1.0
C      1  0.5572540000000  0.5003490000000  0.5001040000000 1.0
END
