TITL C-862503-991-1053 3.44201523206877e-05 125000 -628.341578764543 0 0 110 (C5) n - 1
REM
REM in /home/nfs/bkarasulu/CARBON/AIRSS/Generating-Clusters/TERSOFF/Higher-Symm/FIRE-HFTN
REM
REM
REM
REM
REM
REM ./C.cell (b20cbc046b6831c77cfcea5457e17084)
REM AIRSS Version 0.9.1 bugfix July 2018 build 013d7b7c2542+ Fri, 06 Jul 2018 19:26:36 +0100
REM compiler GCC version 9.2.1 20190827 (Red Hat 9.2.1-1)
REM options -cpp -mtune=generic -march=x86-64 -g -O0 -fpre-include=/usr/include/finclude/math-vector-fortran.h
REM seed -689589380 646563863 99581470 1362357773 -309085833 412705469 1938666806 -1573440129 181332754 1141122594 -128485474 -1833013708 476390437 315021494 -399905615 -609104369 606621987 1776219111 384063072 849853178 647926072 -860677663 904638962 545615318 1757543768 1787017528 284271795 241632957 -365569325 1088858692 -573556273 -1228269244 -957867840
REM
CELL 1.54180   50.00000   50.00000   50.00000   90.00000   90.00000   90.00000
LATT -1
SFAC C  
C      1  0.5324280000000  0.4472140000000  0.5545200000000 1.0
C      1  0.4581690000000  0.4472140000000  0.5476880000000 1.0
C      1  0.4417190000000  0.4472140000000  0.4749530000000 1.0
C      1  0.5058110000000  0.4472140000000  0.4368320000000 1.0
C      1  0.5618730000000  0.4472140000000  0.4860070000000 1.0
C      1  0.4600230000000  0.5649620000000  0.4403330000000 1.0
C      1  0.5443930000000  0.5649620000000  0.4435410000000 1.0
C      1  0.5674140000000  0.5649620000000  0.5247730000000 1.0
C      1  0.4972710000000  0.5649620000000  0.5717690000000 1.0
C      1  0.4309000000000  0.5649620000000  0.5195830000000 1.0
C      1  0.5302930000000  0.5013690000000  0.5392290000000 1.0
C      1  0.4720520000000  0.5013690000000  0.5409330000000 1.0
C      1  0.4524340000000  0.5013690000000  0.4860690000000 1.0
C      1  0.4985510000000  0.5013690000000  0.4504570000000 1.0
C      1  0.5466700000000  0.5013690000000  0.4833120000000 1.0
C      1  0.5035920000000  0.5644710000000  0.4278560000000 1.0
C      1  0.5697230000000  0.5644710000000  0.4811230000000 1.0
C      1  0.5394990000000  0.5644710000000  0.5604770000000 1.0
C      1  0.4546880000000  0.5644710000000  0.5562540000000 1.0
C      1  0.4324970000000  0.5644710000000  0.4742900000000 1.0
C      1  0.5272290000000  0.4918480000000  0.6016370000000 1.0
C      1  0.4117520000000  0.4918490000000  0.5573040000000 1.0
C      1  0.4182300000000  0.4918490000000  0.4337790000000 1.0
C      1  0.5377120000000  0.4918480000000  0.4017690000000 1.0
C      1  0.6050770000000  0.4918480000000  0.5055110000000 1.0
C      1  0.5301970000000  0.5332910000000  0.5062030000000 1.0
C      1  0.5034320000000  0.5332910000000  0.5306360000000 1.0
C      1  0.4719250000000  0.5332910000000  0.5127310000000 1.0
C      1  0.4792160000000  0.5332910000000  0.4772330000000 1.0
C      1  0.5152300000000  0.5332910000000  0.4731980000000 1.0
C      1  0.4836020000000  0.4669880000000  0.5835690000000 1.0
C      1  0.4154540000000  0.4669880000000  0.5102290000000 1.0
C      1  0.4641450000000  0.4669880000000  0.4227530000000 1.0
C      1  0.5623870000000  0.4669880000000  0.4420300000000 1.0
C      1  0.5744120000000  0.4669880000000  0.5414190000000 1.0
C      1  0.3967340000000  0.4759140000000  0.4891010000000 1.0
C      1  0.4784550000000  0.4759140000000  0.3984200000000 1.0
C      1  0.5899510000000  0.4759140000000  0.4481190000000 1.0
C      1  0.5771380000000  0.4759140000000  0.5695160000000 1.0
C      1  0.4577230000000  0.4759140000000  0.5948440000000 1.0
C      1  0.4798000000000  0.5846020000000  0.4839800000000 1.0
C      1  0.5089940000000  0.5846020000000  0.4758380000000 1.0
C      1  0.5257590000000  0.5846020000000  0.5010870000000 1.0
C      1  0.5069260000000  0.5846020000000  0.5248340000000 1.0
C      1  0.4785220000000  0.5846020000000  0.5142610000000 1.0
C      1  0.4855210000000  0.5402550000000  0.5809230000000 1.0
C      1  0.4185640000000  0.5402550000000  0.5112360000000 1.0
C      1  0.4641490000000  0.5402550000000  0.4260210000000 1.0
C      1  0.5592790000000  0.5402550000000  0.4430430000000 1.0
C      1  0.5724880000000  0.5402550000000  0.5387770000000 1.0
C      1  0.5559710000000  0.4430940000000  0.5365190000000 1.0
C      1  0.4825640000000  0.4430940000000  0.5645170000000 1.0
C      1  0.4332530000000  0.4430940000000  0.5033550000000 1.0
C      1  0.4761840000000  0.4430940000000  0.4375560000000 1.0
C      1  0.5520280000000  0.4430940000000  0.4580530000000 1.0
C      1  0.4960610000000  0.5180030000000  0.5630300000000 1.0
C      1  0.4388380000000  0.5180040000000  0.5157310000000 1.0
C      1  0.4661390000000  0.5180040000000  0.4466930000000 1.0
C      1  0.5402350000000  0.5180030000000  0.4513230000000 1.0
C      1  0.5587280000000  0.5180030000000  0.5232230000000 1.0
C      1  0.5762650000000  0.5150800000000  0.4781550000000 1.0
C      1  0.5443430000000  0.5150800000000  0.5657820000000 1.0
C      1  0.4511400000000  0.5150800000000  0.5625010000000 1.0
C      1  0.4254600000000  0.5150800000000  0.4728460000000 1.0
C      1  0.5027910000000  0.5150800000000  0.4207170000000 1.0
C      1  0.4380470000000  0.4755010000000  0.4669320000000 1.0
C      1  0.5123050000000  0.4755010000000  0.4308610000000 1.0
C      1  0.5695580000000  0.4755010000000  0.4903370000000 1.0
C      1  0.5306840000000  0.4755010000000  0.5631670000000 1.0
C      1  0.4494060000000  0.4755010000000  0.5487020000000 1.0
C      1  0.4816530000000  0.4164970000000  0.4811070000000 1.0
C      1  0.5122990000000  0.4164970000000  0.4767130000000 1.0
C      1  0.5259480000000  0.4164970000000  0.5045010000000 1.0
C      1  0.5037380000000  0.4164970000000  0.5260690000000 1.0
C      1  0.4763620000000  0.4164970000000  0.5116110000000 1.0
C      1  0.5778000000000  0.5411560000000  0.4653450000000 1.0
C      1  0.5570000000000  0.5411560000000  0.5632840000000 1.0
C      1  0.4574280000000  0.5411560000000  0.5737660000000 1.0
C      1  0.4166890000000  0.5411560000000  0.4823060000000 1.0
C      1  0.4910830000000  0.5411560000000  0.4152980000000 1.0
C      1  0.4991300000000  0.4600000000000  0.5242240000000 1.0
C      1  0.4766930000000  0.4600000000000  0.5066580000000 1.0
C      1  0.4864650000000  0.4600000000000  0.4798910000000 1.0
C      1  0.5149420000000  0.4600000000000  0.4809140000000 1.0
C      1  0.5227690000000  0.4600000000000  0.5083130000000 1.0
C      1  0.5550270000000  0.4916480000000  0.5845570000000 1.0
C      1  0.4365860000000  0.4916480000000  0.5784630000000 1.0
C      1  0.4057810000000  0.4916480000000  0.4639360000000 1.0
C      1  0.5051830000000  0.4916480000000  0.3992480000000 1.0
C      1  0.5974220000000  0.4916480000000  0.4737960000000 1.0
C      1  0.5049810000000  0.4877240000000  0.5792840000000 1.0
C      1  0.4261360000000  0.4877250000000  0.5292380000000 1.0
C      1  0.4493680000000  0.4877250000000  0.4387860000000 1.0
C      1  0.5425720000000  0.4877240000000  0.4329300000000 1.0
C      1  0.5769430000000  0.4877240000000  0.5197630000000 1.0
C      1  0.4998800000000  0.4857290000000  0.5365940000000 1.0
C      1  0.4651600000000  0.4857290000000  0.5111940000000 1.0
C      1  0.4785880000000  0.4857290000000  0.4703250000000 1.0
C      1  0.5216060000000  0.4857290000000  0.4704660000000 1.0
C      1  0.5347660000000  0.4857290000000  0.5114220000000 1.0
C      1  0.5480040000000  0.5641840000000  0.5022760000000 1.0
C      1  0.5126700000000  0.5641840000000  0.5463580000000 1.0
C      1  0.4598260000000  0.5641840000000  0.5263750000000 1.0
C      1  0.4625020000000  0.5641840000000  0.4699430000000 1.0
C      1  0.5169980000000  0.5641840000000  0.4550490000000 1.0
C      1  0.5075740000000  0.4304690000000  0.5526650000000 1.0
C      1  0.4522530000000  0.4304690000000  0.5234770000000 1.0
C      1  0.4629170000000  0.4304690000000  0.4618450000000 1.0
C      1  0.5248280000000  0.4304690000000  0.4529420000000 1.0
C      1  0.5524280000000  0.4304690000000  0.5090710000000 1.0
END
