TITL C-862505-1648-25 3493.37120786222 125000 -367.408020814193 0 0 66 (Ci) n - 1
REM
REM in /home/nfs/bkarasulu/CARBON/AIRSS/Generating-Clusters/TERSOFF/Higher-Symm/FIRE-HFTN
REM
REM
REM
REM
REM
REM ./C.cell (b20cbc046b6831c77cfcea5457e17084)
REM AIRSS Version 0.9.1 bugfix July 2018 build 013d7b7c2542+ Fri, 06 Jul 2018 19:26:36 +0100
REM compiler GCC version 9.2.1 20190827 (Red Hat 9.2.1-1)
REM options -cpp -mtune=generic -march=x86-64 -g -O0 -fpre-include=/usr/include/finclude/math-vector-fortran.h
REM seed 410038559 946765231 1854062790 -1093837043 -467382377 251045476 2062046061 -479867744 1986058317 -22029930 667181711 1708296861 2014572466 1906799641 677145764 -880798573 789240563 -603254621 -1055510936 -75330091 1734114171 1864914331 -1319836727 -275993661 386515048 -273350467 -857596285 -1714186742 1556518464 -1754586555 1224719742 761011983 -2098401127
REM
CELL 1.54180   50.00000   50.00000   50.00000   90.00000   90.00000   90.00000
LATT -1
SFAC C  
C      1  0.5585420000000  0.5137300000000  0.5726320000000 1.0
C      1  0.5573860000000  0.4874380000000  0.4311720000000 1.0
C      1  0.4406510000000  0.5125590000000  0.5688400000000 1.0
C      1  0.4394960000000  0.4862750000000  0.4273610000000 1.0
C      1  0.5638900000000  0.4703020000000  0.4822580000000 1.0
C      1  0.5573900000000  0.5258930000000  0.5176430000000 1.0
C      1  0.4406560000000  0.4741090000000  0.4823530000000 1.0
C      1  0.4341560000000  0.5296890000000  0.5177360000000 1.0
C      1  0.5636690000000  0.4474350000000  0.5002180000000 1.0
C      1  0.5596110000000  0.5504340000000  0.5022060000000 1.0
C      1  0.4384310000000  0.4495700000000  0.4977920000000 1.0
C      1  0.4343740000000  0.5525640000000  0.4997870000000 1.0
C      1  0.5630010000000  0.5382710000000  0.4351790000000 1.0
C      1  0.5655920000000  0.4636250000000  0.5641890000000 1.0
C      1  0.4324460000000  0.5363780000000  0.4358130000000 1.0
C      1  0.4350380000000  0.4617280000000  0.5648230000000 1.0
C      1  0.4580940000000  0.5632140000000  0.4867700000000 1.0
C      1  0.4602450000000  0.4371830000000  0.5124960000000 1.0
C      1  0.5377940000000  0.5628190000000  0.4875050000000 1.0
C      1  0.5399460000000  0.4367870000000  0.5132320000000 1.0
C      1  0.5735240000000  0.5113770000000  0.4332270000000 1.0
C      1  0.5753350000000  0.4903860000000  0.5693600000000 1.0
C      1  0.4227020000000  0.5096190000000  0.4306350000000 1.0
C      1  0.4245140000000  0.4886210000000  0.5667820000000 1.0
C      1  0.4627440000000  0.4551740000000  0.5595910000000 1.0
C      1  0.4601800000000  0.5432460000000  0.4404580000000 1.0
C      1  0.5378580000000  0.4567560000000  0.5595440000000 1.0
C      1  0.5352960000000  0.5448270000000  0.4404100000000 1.0
C      1  0.4845790000000  0.4016220000000  0.4844460000000 1.0
C      1  0.4846590000000  0.5956500000000  0.5165320000000 1.0
C      1  0.5133750000000  0.4043580000000  0.4834680000000 1.0
C      1  0.5134570000000  0.5983740000000  0.5155590000000 1.0
C      1  0.4175300000000  0.4914500000000  0.4791990000000 1.0
C      1  0.4090070000000  0.5200480000000  0.5286960000000 1.0
C      1  0.5890380000000  0.4799260000000  0.4712830000000 1.0
C      1  0.5805190000000  0.5085550000000  0.5207940000000 1.0
C      1  0.5135600000000  0.4656980000000  0.4171100000000 1.0
C      1  0.5134790000000  0.5345810000000  0.5838440000000 1.0
C      1  0.4845580000000  0.4654150000000  0.4161670000000 1.0
C      1  0.4844770000000  0.5342960000000  0.5829060000000 1.0
C      1  0.5153180000000  0.4841030000000  0.4919530000000 1.0
C      1  0.5109950000000  0.5037460000000  0.5168380000000 1.0
C      1  0.4870540000000  0.4962520000000  0.4831600000000 1.0
C      1  0.4827300000000  0.5158950000000  0.5080450000000 1.0
C      1  0.4678530000000  0.5897050000000  0.4937290000000 1.0
C      1  0.4679640000000  0.4097540000000  0.5067070000000 1.0
C      1  0.5300710000000  0.5902460000000  0.4932960000000 1.0
C      1  0.5301840000000  0.4102980000000  0.5062690000000 1.0
C      1  0.5147220000000  0.4922590000000  0.5581750000000 1.0
C      1  0.5123110000000  0.5080320000000  0.4427580000000 1.0
C      1  0.4857260000000  0.4919740000000  0.5572370000000 1.0
C      1  0.4833140000000  0.5077490000000  0.4418150000000 1.0
C      1  0.5320400000000  0.5186920000000  0.5299330000000 1.0
C      1  0.5389630000000  0.4835430000000  0.4752690000000 1.0
C      1  0.4590850000000  0.5164560000000  0.5247290000000 1.0
C      1  0.4660080000000  0.4813060000000  0.4700660000000 1.0
C      1  0.4684760000000  0.4864540000000  0.4284550000000 1.0
C      1  0.4696390000000  0.5129590000000  0.5696070000000 1.0
C      1  0.5283970000000  0.4870410000000  0.4304010000000 1.0
C      1  0.5295610000000  0.5135490000000  0.5715430000000 1.0
C      1  0.4721030000000  0.5473060000000  0.4666670000000 1.0
C      1  0.4743970000000  0.4522970000000  0.5331060000000 1.0
C      1  0.5236420000000  0.5477040000000  0.4668950000000 1.0
C      1  0.5259360000000  0.4526960000000  0.5333340000000 1.0
C      1  0.5001010000000  0.4645060000000  0.5271090000000 1.0
C      1  0.4979390000000  0.5354960000000  0.4728920000000 1.0
END
