TITL C-862129-6180-890 -4.82359559132405e-06 125000 -475.404466929496 0 0 104 (Th) n - 1
REM
REM in /home/nfs/bkarasulu/CARBON/AIRSS/Generating-Clusters/TERSOFF/Higher-Symm/FIRE-HFTN
REM
REM
REM
REM
REM
REM ./C.cell (b20cbc046b6831c77cfcea5457e17084)
REM AIRSS Version 0.9.1 bugfix July 2018 build 013d7b7c2542+ Fri, 06 Jul 2018 19:26:36 +0100
REM compiler GCC version 9.2.1 20190827 (Red Hat 9.2.1-1)
REM options -cpp -mtune=generic -march=x86-64 -g -O0 -fpre-include=/usr/include/finclude/math-vector-fortran.h
REM seed 551690644 169035969 404604799 -1660429921 -1993735261 -2133988216 -228063533 214696492 1435537009 -1218691047 1794416854 2120689470 977884675 1494350599 -1459272742 -1067578747 -488876897 1121062660 -922046076 -1561181085 466191690 -1737092991 -624592813 2106619352 1212384158 1940670363 -1563100284 -667800535 981337195 1152392141 577073587 1514656430 1356275518
REM
CELL 1.54180   50.00000   50.00000   50.00000   90.00000   90.00000   90.00000
LATT -1
SFAC C  
C      1  0.5518800000000  0.5723640000000  0.5142040000000 1.0
C      1  0.5724730000000  0.5142400000000  0.5517350000000 1.0
C      1  0.5143490000000  0.5517710000000  0.5723280000000 1.0
C      1  0.4481910000000  0.5723640000000  0.4855770000000 1.0
C      1  0.4481910000000  0.4274880000000  0.5142040000000 1.0
C      1  0.5518800000000  0.4274880000000  0.4855770000000 1.0
C      1  0.4275980000000  0.5142400000000  0.4480460000000 1.0
C      1  0.4275980000000  0.4856120000000  0.5517350000000 1.0
C      1  0.5724730000000  0.4856120000000  0.4480460000000 1.0
C      1  0.4857220000000  0.5517710000000  0.4274530000000 1.0
C      1  0.4857220000000  0.4480810000000  0.5723280000000 1.0
C      1  0.5143490000000  0.4480810000000  0.4274530000000 1.0
C      1  0.5518800000000  0.4274880000000  0.5142040000000 1.0
C      1  0.5724730000000  0.4856120000000  0.5517350000000 1.0
C      1  0.5143490000000  0.4480810000000  0.5723280000000 1.0
C      1  0.4481910000000  0.4274880000000  0.4855770000000 1.0
C      1  0.4481910000000  0.5723640000000  0.5142040000000 1.0
C      1  0.5518800000000  0.5723640000000  0.4855770000000 1.0
C      1  0.4275980000000  0.4856120000000  0.4480460000000 1.0
C      1  0.4275980000000  0.5142400000000  0.5517350000000 1.0
C      1  0.5724730000000  0.5142400000000  0.4480460000000 1.0
C      1  0.4857220000000  0.4480810000000  0.4274530000000 1.0
C      1  0.4857220000000  0.5517710000000  0.5723280000000 1.0
C      1  0.5143490000000  0.5517710000000  0.4274530000000 1.0
C      1  0.5162960000000  0.4575640000000  0.5179510000000 1.0
C      1  0.4576730000000  0.5179860000000  0.5161500000000 1.0
C      1  0.5180960000000  0.5161860000000  0.4575280000000 1.0
C      1  0.4837760000000  0.4575640000000  0.4818300000000 1.0
C      1  0.4837760000000  0.5422880000000  0.5179510000000 1.0
C      1  0.5162960000000  0.5422880000000  0.4818300000000 1.0
C      1  0.5423980000000  0.5179860000000  0.4836300000000 1.0
C      1  0.5423980000000  0.4818660000000  0.5161500000000 1.0
C      1  0.4576730000000  0.4818660000000  0.4836300000000 1.0
C      1  0.4819750000000  0.5161860000000  0.5422530000000 1.0
C      1  0.4819750000000  0.4836660000000  0.4575280000000 1.0
C      1  0.5180960000000  0.4836660000000  0.5422530000000 1.0
C      1  0.5162960000000  0.5422880000000  0.5179510000000 1.0
C      1  0.4576730000000  0.4818660000000  0.5161500000000 1.0
C      1  0.5180960000000  0.4836660000000  0.4575280000000 1.0
C      1  0.4837760000000  0.5422880000000  0.4818300000000 1.0
C      1  0.4837760000000  0.4575640000000  0.5179510000000 1.0
C      1  0.5162960000000  0.4575640000000  0.4818300000000 1.0
C      1  0.5423980000000  0.4818660000000  0.4836300000000 1.0
C      1  0.5423980000000  0.5179860000000  0.5161500000000 1.0
C      1  0.4576730000000  0.5179860000000  0.4836300000000 1.0
C      1  0.4819750000000  0.4836660000000  0.5422530000000 1.0
C      1  0.4819750000000  0.5161860000000  0.4575280000000 1.0
C      1  0.5180960000000  0.5161860000000  0.5422530000000 1.0
C      1  0.5632560000000  0.5456270000000  0.5254040000000 1.0
C      1  0.5457360000000  0.5254400000000  0.5631110000000 1.0
C      1  0.5255490000000  0.5631460000000  0.5455910000000 1.0
C      1  0.4368150000000  0.5456270000000  0.4743770000000 1.0
C      1  0.4368150000000  0.4542250000000  0.5254040000000 1.0
C      1  0.5632560000000  0.4542250000000  0.4743770000000 1.0
C      1  0.4543350000000  0.5254400000000  0.4366700000000 1.0
C      1  0.4543350000000  0.4744120000000  0.5631110000000 1.0
C      1  0.5457360000000  0.4744120000000  0.4366700000000 1.0
C      1  0.4745220000000  0.5631460000000  0.4541900000000 1.0
C      1  0.4745220000000  0.4367060000000  0.5455910000000 1.0
C      1  0.5255490000000  0.4367060000000  0.4541900000000 1.0
C      1  0.5632560000000  0.4542250000000  0.5254040000000 1.0
C      1  0.5457360000000  0.4744120000000  0.5631110000000 1.0
C      1  0.5255490000000  0.4367060000000  0.5455910000000 1.0
C      1  0.4368150000000  0.4542250000000  0.4743770000000 1.0
C      1  0.4368150000000  0.5456270000000  0.5254040000000 1.0
C      1  0.5632560000000  0.5456270000000  0.4743770000000 1.0
C      1  0.4543350000000  0.4744120000000  0.4366700000000 1.0
C      1  0.4543350000000  0.5254400000000  0.5631110000000 1.0
C      1  0.5457360000000  0.5254400000000  0.4366700000000 1.0
C      1  0.4745220000000  0.4367060000000  0.4541900000000 1.0
C      1  0.4745220000000  0.5631460000000  0.5455910000000 1.0
C      1  0.5255490000000  0.5631460000000  0.4541900000000 1.0
C      1  0.4158500000000  0.5181750000000  0.4818630000000 1.0
C      1  0.5182840000000  0.4818980000000  0.4157050000000 1.0
C      1  0.4820080000000  0.4157400000000  0.5181390000000 1.0
C      1  0.5842210000000  0.5181750000000  0.5179180000000 1.0
C      1  0.5842210000000  0.4816770000000  0.4818630000000 1.0
C      1  0.4158500000000  0.4816770000000  0.5179180000000 1.0
C      1  0.4817870000000  0.4818980000000  0.5840760000000 1.0
C      1  0.4817870000000  0.5179540000000  0.4157050000000 1.0
C      1  0.5182840000000  0.5179540000000  0.5840760000000 1.0
C      1  0.5180630000000  0.4157400000000  0.4816420000000 1.0
C      1  0.5180630000000  0.5841120000000  0.5181390000000 1.0
C      1  0.4820080000000  0.5841120000000  0.4816420000000 1.0
C      1  0.4158500000000  0.4816770000000  0.4818630000000 1.0
C      1  0.5182840000000  0.5179540000000  0.4157050000000 1.0
C      1  0.4820080000000  0.5841120000000  0.5181390000000 1.0
C      1  0.5842210000000  0.4816770000000  0.5179180000000 1.0
C      1  0.5842210000000  0.5181750000000  0.4818630000000 1.0
C      1  0.4158500000000  0.5181750000000  0.5179180000000 1.0
C      1  0.4817870000000  0.5179540000000  0.5840760000000 1.0
C      1  0.4817870000000  0.4818980000000  0.4157050000000 1.0
C      1  0.5182840000000  0.4818980000000  0.5840760000000 1.0
C      1  0.5180630000000  0.5841120000000  0.4816420000000 1.0
C      1  0.5180630000000  0.4157400000000  0.5181390000000 1.0
C      1  0.4820080000000  0.4157400000000  0.4816420000000 1.0
C      1  0.4474470000000  0.5525140000000  0.5524790000000 1.0
C      1  0.5526240000000  0.4473380000000  0.5524790000000 1.0
C      1  0.5526240000000  0.4473380000000  0.4473020000000 1.0
C      1  0.4474470000000  0.5525140000000  0.4473020000000 1.0
C      1  0.5526240000000  0.5525140000000  0.4473020000000 1.0
C      1  0.4474470000000  0.4473380000000  0.4473020000000 1.0
C      1  0.4474470000000  0.4473380000000  0.5524790000000 1.0
C      1  0.5526240000000  0.5525140000000  0.5524790000000 1.0
END
