TITL C-862134-6730-305 0.000445732120455575 125000 -396.768616316749 0 0 76 (C2h) n - 1
REM
REM in /home/nfs/bkarasulu/CARBON/AIRSS/Generating-Clusters/TERSOFF/Higher-Symm/FIRE-HFTN
REM
REM
REM
REM
REM
REM ./C.cell (b20cbc046b6831c77cfcea5457e17084)
REM AIRSS Version 0.9.1 bugfix July 2018 build 013d7b7c2542+ Fri, 06 Jul 2018 19:26:36 +0100
REM compiler GCC version 9.2.1 20190827 (Red Hat 9.2.1-1)
REM options -cpp -mtune=generic -march=x86-64 -g -O0 -fpre-include=/usr/include/finclude/math-vector-fortran.h
REM seed -107116293 -1689875620 -924808168 600274279 -1958439569 844850322 -870633970 342152253 -275180072 1525160631 -137547471 -2062958928 1707559064 -216137893 489477848 85929512 439356772 -1470440964 2018555726 951895681 1535021616 300768756 -1321621494 1046770541 560370015 -2026547461 1430277454 1233661589 -440207738 380439192 74179944 -1567914304 1344765543
REM
CELL 1.54180   50.00000   50.00000   50.00000   90.00000   90.00000   90.00000
LATT -1
SFAC C  
C      1  0.4377170000000  0.4340750000000  0.4843930000000 1.0
C      1  0.5622830000000  0.4340750000000  0.5156070000000 1.0
C      1  0.4377170000000  0.5659250000000  0.4843930000000 1.0
C      1  0.5622830000000  0.5659250000000  0.5156070000000 1.0
C      1  0.5719830000000  0.5158070000000  0.4970770000000 1.0
C      1  0.4280170000000  0.5158070000000  0.5029230000000 1.0
C      1  0.5719830000000  0.4841930000000  0.4970770000000 1.0
C      1  0.4280170000000  0.4841930000000  0.5029230000000 1.0
C      1  0.5178540000000  0.6036800000000  0.5176110000000 1.0
C      1  0.4821460000000  0.6036800000000  0.4823890000000 1.0
C      1  0.5178540000000  0.3963200000000  0.5176110000000 1.0
C      1  0.4821460000000  0.3963200000000  0.4823890000000 1.0
C      1  0.5102480000000  0.4790740000000  0.5096390000000 1.0
C      1  0.4897520000000  0.4790740000000  0.4903610000000 1.0
C      1  0.5102480000000  0.5209260000000  0.5096390000000 1.0
C      1  0.4897520000000  0.5209260000000  0.4903610000000 1.0
C      1  0.4929510000000  0.5618470000000  0.5619070000000 1.0
C      1  0.5070490000000  0.5618470000000  0.4380930000000 1.0
C      1  0.4929510000000  0.4381530000000  0.5619070000000 1.0
C      1  0.5070490000000  0.4381530000000  0.4380930000000 1.0
C      1  0.5387250000000  0.4738480000000  0.4418430000000 1.0
C      1  0.4612750000000  0.4738480000000  0.5581570000000 1.0
C      1  0.5387250000000  0.5261520000000  0.4418430000000 1.0
C      1  0.4612750000000  0.5261520000000  0.5581570000000 1.0
C      1  0.4684480000000  0.5153120000000  0.5303220000000 1.0
C      1  0.5315520000000  0.5153120000000  0.4696780000000 1.0
C      1  0.4684480000000  0.4846880000000  0.5303220000000 1.0
C      1  0.5315520000000  0.4846880000000  0.4696780000000 1.0
C      1  0.4851330000000  0.5355080000000  0.5739740000000 1.0
C      1  0.5148670000000  0.5355080000000  0.4260260000000 1.0
C      1  0.4851330000000  0.4644920000000  0.5739740000000 1.0
C      1  0.5148670000000  0.4644920000000  0.4260260000000 1.0
C      1  0.5224560000000  0.4251630000000  0.4857690000000 1.0
C      1  0.4775440000000  0.4251630000000  0.5142310000000 1.0
C      1  0.5224560000000  0.5748370000000  0.4857690000000 1.0
C      1  0.4775440000000  0.5748370000000  0.5142310000000 1.0
C      1  0.4592420000000  0.5260090000000  0.5003060000000 1.0
C      1  0.5407580000000  0.5260090000000  0.4996940000000 1.0
C      1  0.4592420000000  0.4739910000000  0.5003060000000 1.0
C      1  0.5407580000000  0.4739910000000  0.4996940000000 1.0
C      1  0.4537270000000  0.4856080000000  0.4698080000000 1.0
C      1  0.5462730000000  0.4856080000000  0.5301920000000 1.0
C      1  0.4537270000000  0.5143920000000  0.4698080000000 1.0
C      1  0.5462730000000  0.5143920000000  0.5301920000000 1.0
C      1  0.4983280000000  0.4397490000000  0.5317050000000 1.0
C      1  0.5016720000000  0.4397490000000  0.4682950000000 1.0
C      1  0.4983280000000  0.5602510000000  0.5317050000000 1.0
C      1  0.5016720000000  0.5602510000000  0.4682950000000 1.0
C      1  0.4701790000000  0.5712140000000  0.4790880000000 1.0
C      1  0.5298210000000  0.5712140000000  0.5209120000000 1.0
C      1  0.4701790000000  0.4287860000000  0.4790880000000 1.0
C      1  0.5298210000000  0.4287860000000  0.5209120000000 1.0
C      1  0.5020950000000  0.5281960000000  0.4653410000000 1.0
C      1  0.4979050000000  0.5281960000000  0.5346590000000 1.0
C      1  0.5020950000000  0.4718040000000  0.4653410000000 1.0
C      1  0.4979050000000  0.4718040000000  0.5346590000000 1.0
C      1  0.4853360000000  0.6049700000000  0.5150290000000 1.0
C      1  0.5146640000000  0.6049700000000  0.4849710000000 1.0
C      1  0.4853360000000  0.3950300000000  0.5150290000000 1.0
C      1  0.5146640000000  0.3950300000000  0.4849710000000 1.0
C      1  0.5363220000000  0.4423080000000  0.5493900000000 1.0
C      1  0.4636780000000  0.4423080000000  0.4506100000000 1.0
C      1  0.5363220000000  0.5576920000000  0.5493900000000 1.0
C      1  0.4636780000000  0.5576920000000  0.4506100000000 1.0
C      1  0.4643070000000  0.5289430000000  0.4470530000000 1.0
C      1  0.5356930000000  0.5289430000000  0.5529470000000 1.0
C      1  0.4643070000000  0.4710570000000  0.4470530000000 1.0
C      1  0.5356930000000  0.4710570000000  0.5529470000000 1.0
C      1  0.5095160000000  0.4843150000000  0.5634980000000 1.0
C      1  0.4904840000000  0.4843150000000  0.4365020000000 1.0
C      1  0.5095160000000  0.5156850000000  0.5634980000000 1.0
C      1  0.4904840000000  0.5156850000000  0.4365020000000 1.0
C      1  0.5769270000000  0.4603160000000  0.5166040000000 1.0
C      1  0.4230730000000  0.4603160000000  0.4833960000000 1.0
C      1  0.5769270000000  0.5396840000000  0.5166040000000 1.0
C      1  0.4230730000000  0.5396840000000  0.4833960000000 1.0
END
