TITL C-862502-1143-255 -0.000875479059576275 125000 -608.469407398705 0 0 107 (C1) n - 1
REM
REM in /home/nfs/bkarasulu/CARBON/AIRSS/Generating-Clusters/TERSOFF/Higher-Symm/FIRE-HFTN
REM
REM
REM
REM
REM
REM ./C.cell (b20cbc046b6831c77cfcea5457e17084)
REM AIRSS Version 0.9.1 bugfix July 2018 build 013d7b7c2542+ Fri, 06 Jul 2018 19:26:36 +0100
REM compiler GCC version 9.2.1 20190827 (Red Hat 9.2.1-1)
REM options -cpp -mtune=generic -march=x86-64 -g -O0 -fpre-include=/usr/include/finclude/math-vector-fortran.h
REM seed 1497727728 -1068850931 -2084605870 192993605 -2039733891 891664031 -1989946406 2011615617 1329361436 919160126 -4157567 2133588174 1215994067 981508816 -1921487516 -1305447852 -1245977392 16342957 2105442619 1944200044 938014397 -135403201 -492796398 874204164 -685567295 -754783142 -2005597579 1577231650 -947698853 -1265750657 142012589 -1305985276 1169689748
REM
CELL 1.54180   50.00000   50.00000   50.00000   90.00000   90.00000   90.00000
LATT -1
SFAC C  
C      1  0.4303200000000  0.5319860000000  0.5599760000000 1.0
C      1  0.5706160000000  0.4685480000000  0.5604250000000 1.0
C      1  0.5259280000000  0.4564440000000  0.4271010000000 1.0
C      1  0.4746760000000  0.5439750000000  0.4269970000000 1.0
C      1  0.3884750000000  0.5181030000000  0.4616610000000 1.0
C      1  0.6117670000000  0.4825130000000  0.4619720000000 1.0
C      1  0.5646580000000  0.4699960000000  0.4697280000000 1.0
C      1  0.4354650000000  0.5310550000000  0.4693570000000 1.0
C      1  0.4701070000000  0.4057850000000  0.5519840000000 1.0
C      1  0.5307100000000  0.5933660000000  0.5521570000000 1.0
C      1  0.5495300000000  0.4274130000000  0.5125480000000 1.0
C      1  0.4506310000000  0.5747060000000  0.5117180000000 1.0
C      1  0.5441170000000  0.5567480000000  0.4611670000000 1.0
C      1  0.4563580000000  0.4439680000000  0.4610620000000 1.0
C      1  0.4749020000000  0.4508100000000  0.4391250000000 1.0
C      1  0.5255810000000  0.5497030000000  0.4392990000000 1.0
C      1  0.4655670000000  0.4676360000000  0.4155600000000 1.0
C      1  0.5349600000000  0.5328290000000  0.4157710000000 1.0
C      1  0.5111870000000  0.4216420000000  0.4618060000000 1.0
C      1  0.4892990000000  0.5789370000000  0.4618570000000 1.0
C      1  0.4988980000000  0.5600050000000  0.4399710000000 1.0
C      1  0.5015590000000  0.4403890000000  0.4397920000000 1.0
C      1  0.4316300000000  0.4813460000000  0.5629520000000 1.0
C      1  0.5695750000000  0.5191300000000  0.5634210000000 1.0
C      1  0.5435280000000  0.4999150000000  0.5111160000000 1.0
C      1  0.4581060000000  0.5004590000000  0.5116620000000 1.0
C      1  0.4205590000000  0.5344900000000  0.5305080000000 1.0
C      1  0.5788250000000  0.4674270000000  0.5305870000000 1.0
C      1  0.5173140000000  0.4431990000000  0.5343870000000 1.0
C      1  0.4830370000000  0.5558380000000  0.5343150000000 1.0
C      1  0.5279500000000  0.4727370000000  0.5240440000000 1.0
C      1  0.4699710000000  0.5293930000000  0.5220340000000 1.0
C      1  0.5670920000000  0.5643930000000  0.5056840000000 1.0
C      1  0.4332550000000  0.4363280000000  0.5054820000000 1.0
C      1  0.5065480000000  0.5262940000000  0.4769310000000 1.0
C      1  0.4936160000000  0.4740970000000  0.4766980000000 1.0
C      1  0.5352060000000  0.5728300000000  0.4915810000000 1.0
C      1  0.4651820000000  0.4276260000000  0.4915730000000 1.0
C      1  0.5152640000000  0.5029120000000  0.5956400000000 1.0
C      1  0.4872560000000  0.5101350000000  0.5941780000000 1.0
C      1  0.5694670000000  0.5606510000000  0.5341200000000 1.0
C      1  0.4307980000000  0.4399580000000  0.5338790000000 1.0
C      1  0.5723530000000  0.5154740000000  0.4524450000000 1.0
C      1  0.4281180000000  0.4853540000000  0.4523200000000 1.0
C      1  0.5070080000000  0.4264520000000  0.5807300000000 1.0
C      1  0.4938720000000  0.5726610000000  0.5807180000000 1.0
C      1  0.4881830000000  0.4429370000000  0.5304830000000 1.0
C      1  0.5121570000000  0.5559650000000  0.5304900000000 1.0
C      1  0.4604270000000  0.5732130000000  0.4618160000000 1.0
C      1  0.5398880000000  0.4279460000000  0.4623000000000 1.0
C      1  0.4992950000000  0.4197740000000  0.4882030000000 1.0
C      1  0.5011420000000  0.5805080000000  0.4883660000000 1.0
C      1  0.4599800000000  0.4733040000000  0.5211990000000 1.0
C      1  0.5423780000000  0.5271830000000  0.5201790000000 1.0
C      1  0.5498100000000  0.4945700000000  0.4587350000000 1.0
C      1  0.4504230000000  0.5063330000000  0.4587980000000 1.0
C      1  0.5445370000000  0.4518740000000  0.4788600000000 1.0
C      1  0.4553180000000  0.5495380000000  0.4784780000000 1.0
C      1  0.5824100000000  0.5459860000000  0.4883640000000 1.0
C      1  0.4180860000000  0.4548970000000  0.4882350000000 1.0
C      1  0.4726840000000  0.4505800000000  0.5554660000000 1.0
C      1  0.5279640000000  0.5486410000000  0.5553670000000 1.0
C      1  0.5146160000000  0.4877770000000  0.5478840000000 1.0
C      1  0.4873530000000  0.4974010000000  0.5463720000000 1.0
C      1  0.4704560000000  0.4980020000000  0.4826660000000 1.0
C      1  0.5299630000000  0.5023080000000  0.4827460000000 1.0
C      1  0.4539840000000  0.5651190000000  0.4341570000000 1.0
C      1  0.5468290000000  0.4356090000000  0.4346240000000 1.0
C      1  0.4432340000000  0.5069820000000  0.5684700000000 1.0
C      1  0.5586370000000  0.4934900000000  0.5704820000000 1.0
C      1  0.4066820000000  0.5159950000000  0.5084960000000 1.0
C      1  0.5935690000000  0.4851470000000  0.5087650000000 1.0
C      1  0.4765210000000  0.4138040000000  0.5229760000000 1.0
C      1  0.5237400000000  0.5852440000000  0.5234390000000 1.0
C      1  0.5296950000000  0.4927970000000  0.5724010000000 1.0
C      1  0.4723380000000  0.5068290000000  0.5694560000000 1.0
C      1  0.5274250000000  0.4365460000000  0.5618020000000 1.0
C      1  0.4734610000000  0.5626680000000  0.5618130000000 1.0
C      1  0.4008210000000  0.4910590000000  0.4658540000000 1.0
C      1  0.5996350000000  0.5096870000000  0.4659630000000 1.0
C      1  0.4455740000000  0.5559280000000  0.5699230000000 1.0
C      1  0.5555600000000  0.4438730000000  0.5700440000000 1.0
C      1  0.4449100000000  0.5464080000000  0.5190200000000 1.0
C      1  0.5544020000000  0.4559520000000  0.5194540000000 1.0
C      1  0.4456490000000  0.4618970000000  0.5466520000000 1.0
C      1  0.5551900000000  0.5380220000000  0.5467000000000 1.0
C      1  0.4609550000000  0.5193200000000  0.4141580000000 1.0
C      1  0.5395640000000  0.4811350000000  0.4142760000000 1.0
C      1  0.5253630000000  0.5052040000000  0.4077450000000 1.0
C      1  0.4751460000000  0.4952610000000  0.4075750000000 1.0
C      1  0.4776020000000  0.5314680000000  0.4911870000000 1.0
C      1  0.5219270000000  0.4697430000000  0.4915870000000 1.0
C      1  0.5980260000000  0.5190250000000  0.4974220000000 1.0
C      1  0.4024970000000  0.4819780000000  0.4974140000000 1.0
C      1  0.5192280000000  0.4199150000000  0.5123180000000 1.0
C      1  0.4813920000000  0.5798030000000  0.5126080000000 1.0
C      1  0.5232930000000  0.5443130000000  0.5031880000000 1.0
C      1  0.4777730000000  0.4557740000000  0.5033440000000 1.0
C      1  0.5690840000000  0.5428140000000  0.4629380000000 1.0
C      1  0.4314300000000  0.4580270000000  0.4628400000000 1.0
C      1  0.5186520000000  0.4779960000000  0.4505610000000 1.0
C      1  0.4818480000000  0.5222690000000  0.4504700000000 1.0
C      1  0.5228990000000  0.5729880000000  0.5733810000000 1.0
C      1  0.4779330000000  0.4260810000000  0.5732900000000 1.0
C      1  0.4084880000000  0.5295240000000  0.4808590000000 1.0
C      1  0.5916530000000  0.4714000000000  0.4812510000000 1.0
C      1  0.5002950000000  0.5002550000000  0.3941870000000 1.0
END
