TITL C-862127-1500-1194 5.33483090301552e-06 125000 -352.025414271643 0 0 71 (Cs) n - 1
REM
REM in /home/nfs/bkarasulu/CARBON/AIRSS/Generating-Clusters/TERSOFF/Higher-Symm/FIRE-HFTN
REM
REM
REM
REM
REM
REM ./C.cell (b20cbc046b6831c77cfcea5457e17084)
REM AIRSS Version 0.9.1 bugfix July 2018 build 013d7b7c2542+ Fri, 06 Jul 2018 19:26:36 +0100
REM compiler GCC version 9.2.1 20190827 (Red Hat 9.2.1-1)
REM options -cpp -mtune=generic -march=x86-64 -g -O0 -fpre-include=/usr/include/finclude/math-vector-fortran.h
REM seed -1720607881 -1430689843 -1617834581 -757787888 -211983394 -1893855826 -855441586 2038094168 813925807 453153891 972097103 62932813 -1498266937 402056644 1986986708 227164387 501078049 -1930999954 1779073741 -1643568892 -393541485 -1577939010 -907699502 -1007287794 -555560196 -1234141790 314993523 1586300160 -54922920 1534938336 1139806577 -1407022800 -83303883
REM
CELL 1.54180   50.00000   50.00000   50.00000   90.00000   90.00000   90.00000
LATT -1
SFAC C  
C      1  0.5254720000000  0.4517600000000  0.5528610000000 1.0
C      1  0.5253540000000  0.5508850000000  0.5490340000000 1.0
C      1  0.5244630000000  0.5481790000000  0.4487340000000 1.0
C      1  0.5248610000000  0.4493800000000  0.4528240000000 1.0
C      1  0.4739480000000  0.4517600000000  0.5528610000000 1.0
C      1  0.4740660000000  0.5508850000000  0.5490340000000 1.0
C      1  0.4749570000000  0.5481790000000  0.4487340000000 1.0
C      1  0.4745590000000  0.4493800000000  0.4528240000000 1.0
C      1  0.4837380000000  0.4783110000000  0.5219980000000 1.0
C      1  0.4830510000000  0.5201990000000  0.5220570000000 1.0
C      1  0.4832430000000  0.5218130000000  0.4802030000000 1.0
C      1  0.4824740000000  0.4800110000000  0.4801600000000 1.0
C      1  0.5156820000000  0.4783110000000  0.5219980000000 1.0
C      1  0.5163700000000  0.5201990000000  0.5220570000000 1.0
C      1  0.5161770000000  0.5218130000000  0.4802030000000 1.0
C      1  0.5169460000000  0.4800110000000  0.4801600000000 1.0
C      1  0.5260020000000  0.4979310000000  0.5482890000000 1.0
C      1  0.5245100000000  0.5476450000000  0.5014030000000 1.0
C      1  0.5270710000000  0.5025710000000  0.4538260000000 1.0
C      1  0.5244620000000  0.4523600000000  0.5003030000000 1.0
C      1  0.4734190000000  0.4979310000000  0.5482890000000 1.0
C      1  0.4749110000000  0.5476450000000  0.5014030000000 1.0
C      1  0.4723500000000  0.5025710000000  0.4538260000000 1.0
C      1  0.4749590000000  0.4523600000000  0.5003030000000 1.0
C      1  0.5523380000000  0.5391550000000  0.4548320000000 1.0
C      1  0.5520300000000  0.4584810000000  0.4628790000000 1.0
C      1  0.5536660000000  0.4608640000000  0.5460110000000 1.0
C      1  0.5529150000000  0.5432010000000  0.5387190000000 1.0
C      1  0.4470830000000  0.5391550000000  0.4548320000000 1.0
C      1  0.4473910000000  0.4584810000000  0.4628790000000 1.0
C      1  0.4457550000000  0.4608640000000  0.5460110000000 1.0
C      1  0.4465050000000  0.5432010000000  0.5387190000000 1.0
C      1  0.5644090000000  0.4783440000000  0.4453700000000 1.0
C      1  0.5627980000000  0.4497090000000  0.5201430000000 1.0
C      1  0.5650060000000  0.5211630000000  0.5541100000000 1.0
C      1  0.5618750000000  0.5493620000000  0.4805320000000 1.0
C      1  0.4350120000000  0.4783440000000  0.4453700000000 1.0
C      1  0.4366230000000  0.4497090000000  0.5201430000000 1.0
C      1  0.4344150000000  0.5211630000000  0.5541100000000 1.0
C      1  0.4375450000000  0.5493620000000  0.4805320000000 1.0
C      1  0.5892580000000  0.4952540000000  0.5222210000000 1.0
C      1  0.5842930000000  0.5211860000000  0.5021340000000 1.0
C      1  0.5833890000000  0.5054360000000  0.4734450000000 1.0
C      1  0.5840900000000  0.4801660000000  0.4934080000000 1.0
C      1  0.4101620000000  0.4952540000000  0.5222210000000 1.0
C      1  0.4151270000000  0.5211860000000  0.5021340000000 1.0
C      1  0.4160320000000  0.5054360000000  0.4734450000000 1.0
C      1  0.4153300000000  0.4801660000000  0.4934080000000 1.0
C      1  0.5600690000000  0.4922490000000  0.5430850000000 1.0
C      1  0.5553520000000  0.5345000000000  0.5080010000000 1.0
C      1  0.5601460000000  0.5088310000000  0.4506660000000 1.0
C      1  0.5556400000000  0.4656610000000  0.4938650000000 1.0
C      1  0.4393520000000  0.4922490000000  0.5430850000000 1.0
C      1  0.4440690000000  0.5345000000000  0.5080010000000 1.0
C      1  0.4392750000000  0.5088310000000  0.4506660000000 1.0
C      1  0.4437800000000  0.4656610000000  0.4938650000000 1.0
C      1  0.5144680000000  0.5631780000000  0.4734760000000 1.0
C      1  0.5144390000000  0.4747770000000  0.4386310000000 1.0
C      1  0.5145510000000  0.4368750000000  0.5283470000000 1.0
C      1  0.5145550000000  0.5259370000000  0.5635570000000 1.0
C      1  0.4849520000000  0.5631780000000  0.4734760000000 1.0
C      1  0.4849820000000  0.4747770000000  0.4386310000000 1.0
C      1  0.4848700000000  0.4368750000000  0.5283470000000 1.0
C      1  0.4848660000000  0.5259370000000  0.5635570000000 1.0
C      1  0.4997100000000  0.4413190000000  0.4760370000000 1.0
C      1  0.4997100000000  0.4756610000000  0.5607060000000 1.0
C      1  0.4997100000000  0.5587180000000  0.5256690000000 1.0
C      1  0.4997100000000  0.5238590000000  0.4416480000000 1.0
C      1  0.5496940000000  0.4984760000000  0.5089980000000 1.0
C      1  0.4497260000000  0.4984760000000  0.5089980000000 1.0
C      1  0.4997100000000  0.5000640000000  0.5008260000000 1.0
END
