TITL C-862134-6730-401 -8.22219231381799e-05 125000 -510.868135737788 0 0 87 (Cs) n - 1
REM
REM in /home/nfs/bkarasulu/CARBON/AIRSS/Generating-Clusters/TERSOFF/Higher-Symm/FIRE-HFTN
REM
REM
REM
REM
REM
REM ./C.cell (b20cbc046b6831c77cfcea5457e17084)
REM AIRSS Version 0.9.1 bugfix July 2018 build 013d7b7c2542+ Fri, 06 Jul 2018 19:26:36 +0100
REM compiler GCC version 9.2.1 20190827 (Red Hat 9.2.1-1)
REM options -cpp -mtune=generic -march=x86-64 -g -O0 -fpre-include=/usr/include/finclude/math-vector-fortran.h
REM seed 1844498340 -684724989 1731369157 -1818502903 -1700142894 74859122 -1488986419 1150123068 1306198195 -875268968 -285373925 -272926019 1574779571 -505219625 -820180932 592006571 -1245217990 -1832583303 -254559283 -1133209798 1536229708 -1127614465 1134385824 502683738 -115063998 -901823876 -2087349200 -508147479 1887639498 -1542306274 -935260648 -1675825476 -1460019709
REM
CELL 1.54180   50.00000   50.00000   50.00000   90.00000   90.00000   90.00000
LATT -1
SFAC C  
C      1  0.4901760000000  0.4371050000000  0.5559620000000 1.0
C      1  0.5098700000000  0.4351650000000  0.4419190000000 1.0
C      1  0.5089910000000  0.5664400000000  0.5552830000000 1.0
C      1  0.4918650000000  0.5651880000000  0.4452490000000 1.0
C      1  0.5579590000000  0.4351660000000  0.4900040000000 1.0
C      1  0.4439180000000  0.4371040000000  0.5097080000000 1.0
C      1  0.5546270000000  0.5651900000000  0.5080050000000 1.0
C      1  0.4445910000000  0.5664380000000  0.4908900000000 1.0
C      1  0.4671960000000  0.5468080000000  0.4437110000000 1.0
C      1  0.5342490000000  0.5474280000000  0.5561270000000 1.0
C      1  0.5339980000000  0.4549310000000  0.4428580000000 1.0
C      1  0.4659030000000  0.4560030000000  0.5566650000000 1.0
C      1  0.4437460000000  0.5474250000000  0.4656320000000 1.0
C      1  0.5561680000000  0.5468100000000  0.5326750000000 1.0
C      1  0.4432170000000  0.4560020000000  0.5339810000000 1.0
C      1  0.5570180000000  0.4549320000000  0.4658760000000 1.0
C      1  0.4279450000000  0.4810920000000  0.5294540000000 1.0
C      1  0.5716390000000  0.4801160000000  0.4706150000000 1.0
C      1  0.5712790000000  0.5219510000000  0.5284100000000 1.0
C      1  0.4288830000000  0.5224700000000  0.4706940000000 1.0
C      1  0.5292570000000  0.4801140000000  0.4282360000000 1.0
C      1  0.4704310000000  0.4810930000000  0.5719350000000 1.0
C      1  0.5291890000000  0.5224730000000  0.5709910000000 1.0
C      1  0.4714600000000  0.5219480000000  0.4286000000000 1.0
C      1  0.4406270000000  0.5556130000000  0.5210490000000 1.0
C      1  0.5594470000000  0.5543500000000  0.4786790000000 1.0
C      1  0.5589350000000  0.4477160000000  0.5198650000000 1.0
C      1  0.4418120000000  0.4486750000000  0.4802150000000 1.0
C      1  0.5211910000000  0.5543490000000  0.4404270000000 1.0
C      1  0.4788320000000  0.5556140000000  0.5592510000000 1.0
C      1  0.5196700000000  0.4486770000000  0.5580650000000 1.0
C      1  0.4800080000000  0.4477130000000  0.4409450000000 1.0
C      1  0.5713960000000  0.4737510000000  0.5222540000000 1.0
C      1  0.4289750000000  0.4744410000000  0.4775370000000 1.0
C      1  0.4278320000000  0.5295370000000  0.5231340000000 1.0
C      1  0.5720570000000  0.5283920000000  0.4766080000000 1.0
C      1  0.5223480000000  0.4744430000000  0.5709010000000 1.0
C      1  0.4776170000000  0.4737480000000  0.4284840000000 1.0
C      1  0.5232620000000  0.5283900000000  0.4278180000000 1.0
C      1  0.4767490000000  0.5295390000000  0.5720470000000 1.0
C      1  0.5019990000000  0.4567330000000  0.5208400000000 1.0
C      1  0.5002460000000  0.4563890000000  0.4766870000000 1.0
C      1  0.5019030000000  0.5323050000000  0.5198910000000 1.0
C      1  0.5034980000000  0.5375250000000  0.4745670000000 1.0
C      1  0.5231920000000  0.4563900000000  0.4996300000000 1.0
C      1  0.4790380000000  0.4567330000000  0.4978820000000 1.0
C      1  0.5253090000000  0.5375250000000  0.4963760000000 1.0
C      1  0.4799850000000  0.5323050000000  0.4979750000000 1.0
C      1  0.5049540000000  0.5620550000000  0.5270050000000 1.0
C      1  0.4962390000000  0.5730520000000  0.4739370000000 1.0
C      1  0.4949200000000  0.4243460000000  0.5288190000000 1.0
C      1  0.5063430000000  0.4228150000000  0.4696400000000 1.0
C      1  0.5259390000000  0.5730530000000  0.5036330000000 1.0
C      1  0.4728700000000  0.5620540000000  0.4949240000000 1.0
C      1  0.5302390000000  0.4228160000000  0.4935330000000 1.0
C      1  0.4710610000000  0.4243450000000  0.5049630000000 1.0
C      1  0.5833990000000  0.5159380000000  0.5014580000000 1.0
C      1  0.4169750000000  0.5168250000000  0.4980270000000 1.0
C      1  0.4170420000000  0.4871560000000  0.5020160000000 1.0
C      1  0.5832640000000  0.4861530000000  0.4977070000000 1.0
C      1  0.5018570000000  0.5168280000000  0.5829010000000 1.0
C      1  0.4984110000000  0.5159350000000  0.4164780000000 1.0
C      1  0.5021630000000  0.4861510000000  0.4166130000000 1.0
C      1  0.4978700000000  0.4871590000000  0.5828360000000 1.0
C      1  0.5638180000000  0.5059990000000  0.4571550000000 1.0
C      1  0.4348210000000  0.5073930000000  0.5437560000000 1.0
C      1  0.4368380000000  0.4963550000000  0.4576260000000 1.0
C      1  0.5632100000000  0.4961010000000  0.5417570000000 1.0
C      1  0.4561280000000  0.5073930000000  0.5650600000000 1.0
C      1  0.5427160000000  0.5059980000000  0.4360550000000 1.0
C      1  0.4581150000000  0.4960980000000  0.4366720000000 1.0
C      1  0.5422570000000  0.4963580000000  0.5630360000000 1.0
C      1  0.5333470000000  0.4849350000000  0.4889060000000 1.0
C      1  0.4625430000000  0.4822610000000  0.5024750000000 1.0
C      1  0.4671520000000  0.5057070000000  0.4851420000000 1.0
C      1  0.5336890000000  0.5078340000000  0.5074750000000 1.0
C      1  0.4974070000000  0.4822620000000  0.5373350000000 1.0
C      1  0.5109680000000  0.4849350000000  0.4665300000000 1.0
C      1  0.4923990000000  0.5078330000000  0.4661880000000 1.0
C      1  0.5147380000000  0.5057090000000  0.5327230000000 1.0
C      1  0.5428570000000  0.4357310000000  0.5428730000000 1.0
C      1  0.5448660000000  0.5665000000000  0.4550050000000 1.0
C      1  0.4570020000000  0.4357290000000  0.4570260000000 1.0
C      1  0.4554750000000  0.5679090000000  0.5444040000000 1.0
C      1  0.5001980000000  0.4037740000000  0.4996820000000 1.0
C      1  0.4932680000000  0.5878730000000  0.5066080000000 1.0
C      1  0.4696860000000  0.4883690000000  0.5301940000000 1.0
END
