TITL C-862133-5440-552 2.13968144422075e-05 125000 -592.015315847131 0 0 112 (S10) n - 1
REM
REM in /home/nfs/bkarasulu/CARBON/AIRSS/Generating-Clusters/TERSOFF/Higher-Symm/FIRE-HFTN
REM
REM
REM
REM
REM
REM ./C.cell (b20cbc046b6831c77cfcea5457e17084)
REM AIRSS Version 0.9.1 bugfix July 2018 build 013d7b7c2542+ Fri, 06 Jul 2018 19:26:36 +0100
REM compiler GCC version 9.2.1 20190827 (Red Hat 9.2.1-1)
REM options -cpp -mtune=generic -march=x86-64 -g -O0 -fpre-include=/usr/include/finclude/math-vector-fortran.h
REM seed 1687423889 812340954 1218128488 -1426712706 598692887 70561370 1523188290 -1968959224 2036524405 -194527162 -1899278666 -1348494031 -1315956820 -423328736 -2126816506 603430989 -2107985869 -1241676065 1541449933 1639717330 1747474054 105770395 1364414518 -648508634 -1898065208 -909197775 1260853290 2008213475 -1053712476 -854193144 1042558105 -1174649726 1613375786
REM
CELL 1.54180   50.00000   50.00000   50.00000   90.00000   90.00000   90.00000
LATT -1
SFAC C  
C      1  0.4683530000000  0.4825920000000  0.4679310000000 1.0
C      1  0.4847610000000  0.4672090000000  0.5320690000000 1.0
C      1  0.5070780000000  0.4644090000000  0.4679310000000 1.0
C      1  0.5267780000000  0.4752610000000  0.5320690000000 1.0
C      1  0.5363370000000  0.4956190000000  0.4679310000000 1.0
C      1  0.5321040000000  0.5177080000000  0.5320690000000 1.0
C      1  0.5156960000000  0.5330910000000  0.4679310000000 1.0
C      1  0.4933800000000  0.5358910000000  0.5320690000000 1.0
C      1  0.4736800000000  0.5250400000000  0.4679310000000 1.0
C      1  0.4641210000000  0.5046810000000  0.5320690000000 1.0
C      1  0.4416240000000  0.4343650000000  0.5208900000000 1.0
C      1  0.4914840000000  0.4124820000000  0.4791100000000 1.0
C      1  0.5446840000000  0.4240850000000  0.5208900000000 1.0
C      1  0.5809040000000  0.4647420000000  0.4791100000000 1.0
C      1  0.5863090000000  0.5189240000000  0.5208900000000 1.0
C      1  0.5588340000000  0.5659350000000  0.4791100000000 1.0
C      1  0.5089740000000  0.5878180000000  0.5208900000000 1.0
C      1  0.4557740000000  0.5762150000000  0.4791100000000 1.0
C      1  0.4195540000000  0.5355580000000  0.5208900000000 1.0
C      1  0.4141490000000  0.4813760000000  0.4791100000000 1.0
C      1  0.5023510000000  0.5563960000000  0.4837360000000 1.0
C      1  0.4688850000000  0.5469020000000  0.5162640000000 1.0
C      1  0.4473910000000  0.5195500000000  0.4837360000000 1.0
C      1  0.4460800000000  0.4847880000000  0.5162640000000 1.0
C      1  0.4654510000000  0.4558940000000  0.4837360000000 1.0
C      1  0.4981060000000  0.4439040000000  0.5162640000000 1.0
C      1  0.5315720000000  0.4533990000000  0.4837360000000 1.0
C      1  0.5530660000000  0.4807510000000  0.5162640000000 1.0
C      1  0.5543780000000  0.5155130000000  0.4837360000000 1.0
C      1  0.5350070000000  0.5444070000000  0.5162640000000 1.0
C      1  0.5053700000000  0.4501630000000  0.4379390000000 1.0
C      1  0.5337700000000  0.4627320000000  0.5620610000000 1.0
C      1  0.5493590000000  0.4895930000000  0.4379390000000 1.0
C      1  0.5461810000000  0.5204870000000  0.5620610000000 1.0
C      1  0.5254510000000  0.5436130000000  0.4379390000000 1.0
C      1  0.4950870000000  0.5501380000000  0.5620610000000 1.0
C      1  0.4666870000000  0.5375690000000  0.4379390000000 1.0
C      1  0.4510990000000  0.5107070000000  0.5620610000000 1.0
C      1  0.4542770000000  0.4798130000000  0.4379390000000 1.0
C      1  0.4750060000000  0.4566870000000  0.5620610000000 1.0
C      1  0.5424060000000  0.5842500000000  0.5054640000000 1.0
C      1  0.4849190000000  0.5929790000000  0.4945360000000 1.0
C      1  0.4332790000000  0.5662510000000  0.5054640000000 1.0
C      1  0.4072120000000  0.5142750000000  0.4945360000000 1.0
C      1  0.4166740000000  0.4569040000000  0.5054640000000 1.0
C      1  0.4580520000000  0.4160510000000  0.4945360000000 1.0
C      1  0.5155390000000  0.4073210000000  0.5054640000000 1.0
C      1  0.5671790000000  0.4340490000000  0.4945360000000 1.0
C      1  0.5932460000000  0.4860250000000  0.5054640000000 1.0
C      1  0.5837830000000  0.5433970000000  0.4945360000000 1.0
C      1  0.5573290000000  0.4485230000000  0.5428170000000 1.0
C      1  0.5767690000000  0.4919450000000  0.4571830000000 1.0
C      1  0.5669740000000  0.5385020000000  0.5428170000000 1.0
C      1  0.5316850000000  0.5704090000000  0.4571830000000 1.0
C      1  0.4843800000000  0.5754800000000  0.5428170000000 1.0
C      1  0.4431290000000  0.5517780000000  0.4571830000000 1.0
C      1  0.4236880000000  0.5083550000000  0.5428170000000 1.0
C      1  0.4334830000000  0.4617990000000  0.4571830000000 1.0
C      1  0.4687730000000  0.4298910000000  0.5428170000000 1.0
C      1  0.5160780000000  0.4248200000000  0.4571830000000 1.0
C      1  0.4778490000000  0.5836680000000  0.4542360000000 1.0
C      1  0.4330330000000  0.5545630000000  0.5457640000000 1.0
C      1  0.4138830000000  0.5046740000000  0.4542360000000 1.0
C      1  0.4277150000000  0.4530580000000  0.5457640000000 1.0
C      1  0.4692440000000  0.4194290000000  0.4542360000000 1.0
C      1  0.5226080000000  0.4166330000000  0.5457640000000 1.0
C      1  0.5674240000000  0.4457370000000  0.4542360000000 1.0
C      1  0.5865740000000  0.4956260000000  0.5457640000000 1.0
C      1  0.5727430000000  0.5472430000000  0.4542360000000 1.0
C      1  0.5312140000000  0.5808720000000  0.5457640000000 1.0
C      1  0.5549190000000  0.5436090000000  0.4321660000000 1.0
C      1  0.5189300000000  0.5674560000000  0.5678340000000 1.0
C      1  0.4757970000000  0.5655940000000  0.4321660000000 1.0
C      1  0.4419970000000  0.5387350000000  0.5678340000000 1.0
C      1  0.4304390000000  0.4971380000000  0.4321660000000 1.0
C      1  0.4455380000000  0.4566910000000  0.5678340000000 1.0
C      1  0.4815280000000  0.4328450000000  0.4321660000000 1.0
C      1  0.5246600000000  0.4347070000000  0.5678340000000 1.0
C      1  0.5584610000000  0.4615660000000  0.4321660000000 1.0
C      1  0.5700190000000  0.5031630000000  0.5678340000000 1.0
C      1  0.5176270000000  0.4815030000000  0.5800340000000 1.0
C      1  0.5252650000000  0.4952900000000  0.4199660000000 1.0
C      1  0.5233400000000  0.5109340000000  0.5800340000000 1.0
C      1  0.5125880000000  0.5224590000000  0.4199660000000 1.0
C      1  0.4971140000000  0.5254630000000  0.5800340000000 1.0
C      1  0.4828310000000  0.5187980000000  0.4199660000000 1.0
C      1  0.4751930000000  0.5050100000000  0.5800340000000 1.0
C      1  0.4771170000000  0.4893660000000  0.4199660000000 1.0
C      1  0.4878700000000  0.4778410000000  0.5800340000000 1.0
C      1  0.5033430000000  0.4748380000000  0.4199660000000 1.0
C      1  0.4594350000000  0.4598690000000  0.5130970000000 1.0
C      1  0.4909020000000  0.4435840000000  0.4869030000000 1.0
C      1  0.5259320000000  0.4489050000000  0.5130970000000 1.0
C      1  0.5511440000000  0.4738000000000  0.4869030000000 1.0
C      1  0.5569080000000  0.5087600000000  0.5130970000000 1.0
C      1  0.5410230000000  0.5404310000000  0.4869030000000 1.0
C      1  0.5095550000000  0.5567160000000  0.5130970000000 1.0
C      1  0.4745250000000  0.5513950000000  0.4869030000000 1.0
C      1  0.4493130000000  0.5265000000000  0.5130970000000 1.0
C      1  0.4435490000000  0.4915400000000  0.4869030000000 1.0
C      1  0.5548960000000  0.5657110000000  0.5314770000000 1.0
C      1  0.5059200000000  0.5853220000000  0.4685230000000 1.0
C      1  0.4547700000000  0.5724010000000  0.5314770000000 1.0
C      1  0.4209840000000  0.5318820000000  0.4685230000000 1.0
C      1  0.4174670000000  0.4792430000000  0.5314770000000 1.0
C      1  0.4455620000000  0.4345900000000  0.4685230000000 1.0
C      1  0.4945380000000  0.4149780000000  0.5314770000000 1.0
C      1  0.5456880000000  0.4278990000000  0.4685230000000 1.0
C      1  0.5794740000000  0.4684180000000  0.5314770000000 1.0
C      1  0.5829910000000  0.5210570000000  0.4685230000000 1.0
C      1  0.5002290000000  0.5001500000000  0.4693530000000 1.0
C      1  0.5002290000000  0.5001500000000  0.5306470000000 1.0
END
