TITL C-862501-1041-228 0.354225236250202 125000 -268.770770485426 0 0 48 (C1) n - 1
REM
REM in /home/nfs/bkarasulu/CARBON/AIRSS/Generating-Clusters/TERSOFF/Higher-Symm/FIRE-HFTN
REM
REM
REM
REM
REM
REM ./C.cell (b20cbc046b6831c77cfcea5457e17084)
REM AIRSS Version 0.9.1 bugfix July 2018 build 013d7b7c2542+ Fri, 06 Jul 2018 19:26:36 +0100
REM compiler GCC version 9.2.1 20190827 (Red Hat 9.2.1-1)
REM options -cpp -mtune=generic -march=x86-64 -g -O0 -fpre-include=/usr/include/finclude/math-vector-fortran.h
REM seed 994277991 -706423954 354079301 115620895 -955118446 -355043331 -604365219 -435926302 -1435738396 -1376405492 -1699473066 1282989825 -1183875266 437362031 1818629343 -719063743 -1995975392 -1918096896 -1700813223 1223457604 1440715485 1926757700 1719480176 -1000847286 772220601 1190174491 -1046850208 1820282712 -894169716 750404566 1023073190 1019383048 1498273414
REM
CELL 1.54180   50.00000   50.00000   50.00000   90.00000   90.00000   90.00000
LATT -1
SFAC C  
C      1  0.4381360000000  0.4960780000000  0.5186630000000 1.0
C      1  0.4697400000000  0.4306950000000  0.4588610000000 1.0
C      1  0.5418830000000  0.4519190000000  0.4621350000000 1.0
C      1  0.4725420000000  0.5305800000000  0.5368510000000 1.0
C      1  0.4267450000000  0.5223580000000  0.4753870000000 1.0
C      1  0.4653490000000  0.4942500000000  0.4580560000000 1.0
C      1  0.4497170000000  0.4478840000000  0.5029710000000 1.0
C      1  0.5147710000000  0.5604390000000  0.4585370000000 1.0
C      1  0.4522470000000  0.5208780000000  0.4612680000000 1.0
C      1  0.4888730000000  0.4620420000000  0.4251480000000 1.0
C      1  0.5220420000000  0.4910260000000  0.5757850000000 1.0
C      1  0.5497240000000  0.4504110000000  0.5229980000000 1.0
C      1  0.5223770000000  0.5349690000000  0.5516960000000 1.0
C      1  0.5735640000000  0.5205090000000  0.5011270000000 1.0
C      1  0.5619960000000  0.5032140000000  0.5472470000000 1.0
C      1  0.5242780000000  0.5758170000000  0.5205390000000 1.0
C      1  0.4939860000000  0.4420840000000  0.4460690000000 1.0
C      1  0.5365280000000  0.5565760000000  0.5383570000000 1.0
C      1  0.5119070000000  0.5049640000000  0.5211990000000 1.0
C      1  0.4667800000000  0.5451820000000  0.4547950000000 1.0
C      1  0.5274170000000  0.4857240000000  0.6037720000000 1.0
C      1  0.5130410000000  0.4516980000000  0.4661510000000 1.0
C      1  0.4999910000000  0.4804140000000  0.5323580000000 1.0
C      1  0.5607210000000  0.4682090000000  0.4774800000000 1.0
C      1  0.4504380000000  0.4474670000000  0.4735340000000 1.0
C      1  0.4591930000000  0.5045020000000  0.5373420000000 1.0
C      1  0.5596910000000  0.4720610000000  0.5065100000000 1.0
C      1  0.5231380000000  0.5440270000000  0.4360400000000 1.0
C      1  0.4738810000000  0.4409940000000  0.5172270000000 1.0
C      1  0.5325090000000  0.5809950000000  0.4689440000000 1.0
C      1  0.4447870000000  0.4730030000000  0.4615020000000 1.0
C      1  0.4862850000000  0.4918350000000  0.4800350000000 1.0
C      1  0.4990600000000  0.4562400000000  0.5149330000000 1.0
C      1  0.4842290000000  0.5632380000000  0.4986940000000 1.0
C      1  0.5229490000000  0.4399440000000  0.5215360000000 1.0
C      1  0.5369070000000  0.5109370000000  0.5604250000000 1.0
C      1  0.4319390000000  0.4675000000000  0.5154910000000 1.0
C      1  0.5635250000000  0.5476090000000  0.5027310000000 1.0
C      1  0.4229700000000  0.5162120000000  0.5036840000000 1.0
C      1  0.5650870000000  0.4986200000000  0.5183190000000 1.0
C      1  0.5330430000000  0.5169130000000  0.4381580000000 1.0
C      1  0.4981860000000  0.5240160000000  0.5042480000000 1.0
C      1  0.4653570000000  0.5500400000000  0.5163350000000 1.0
C      1  0.4934110000000  0.5370120000000  0.5565460000000 1.0
C      1  0.5016960000000  0.4771070000000  0.5610300000000 1.0
C      1  0.5008070000000  0.4672970000000  0.4870820000000 1.0
C      1  0.4780250000000  0.4882390000000  0.4315130000000 1.0
C      1  0.4885290000000  0.5562720000000  0.4706920000000 1.0
END
