TITL C-862133-5440-984 -0.379878470124941 125000 -950.825904117899 0 0 169 (C2) n - 1
REM
REM in /home/nfs/bkarasulu/CARBON/AIRSS/Generating-Clusters/TERSOFF/Higher-Symm/FIRE-HFTN
REM
REM
REM
REM
REM
REM ./C.cell (b20cbc046b6831c77cfcea5457e17084)
REM AIRSS Version 0.9.1 bugfix July 2018 build 013d7b7c2542+ Fri, 06 Jul 2018 19:26:36 +0100
REM compiler GCC version 9.2.1 20190827 (Red Hat 9.2.1-1)
REM options -cpp -mtune=generic -march=x86-64 -g -O0 -fpre-include=/usr/include/finclude/math-vector-fortran.h
REM seed -1207536333 1569039192 -1886024058 1429747489 1002712677 900594148 -680475228 1805934800 -1352007576 -1324688112 -1179547856 1779814060 1418223981 1304143135 713238027 1862254958 -512110032 1258572405 932690255 -786551771 1049139564 -434003850 57907344 2080337963 2005923815 -1906723251 -869852923 818118937 -1373203596 55168594 1910186686 -907565928 232797787
REM
CELL 1.54180   50.00000   50.00000   50.00000   90.00000   90.00000   90.00000
LATT -1
SFAC C  
C      1  0.5615090000000  0.4110420000000  0.5500070000000 1.0
C      1  0.4389630000000  0.5893970000000  0.5500110000000 1.0
C      1  0.5566740000000  0.5887570000000  0.5461860000000 1.0
C      1  0.4437990000000  0.4116820000000  0.5461800000000 1.0
C      1  0.4110720000000  0.5151920000000  0.5818820000000 1.0
C      1  0.5894000000000  0.4852450000000  0.5818830000000 1.0
C      1  0.4122700000000  0.4829340000000  0.5817050000000 1.0
C      1  0.5882020000000  0.5175030000000  0.5817080000000 1.0
C      1  0.5499050000000  0.4807570000000  0.5497620000000 1.0
C      1  0.4505680000000  0.5196820000000  0.5497620000000 1.0
C      1  0.5505860000000  0.5114840000000  0.5492370000000 1.0
C      1  0.4498870000000  0.4889550000000  0.5492350000000 1.0
C      1  0.5848260000000  0.5140060000000  0.4776140000000 1.0
C      1  0.4156480000000  0.4864370000000  0.4776110000000 1.0
C      1  0.5847580000000  0.4832520000000  0.4770940000000 1.0
C      1  0.4157160000000  0.5171910000000  0.4770940000000 1.0
C      1  0.4803650000000  0.4288690000000  0.4376650000000 1.0
C      1  0.5201100000000  0.5715760000000  0.4376690000000 1.0
C      1  0.4847230000000  0.5647160000000  0.4376860000000 1.0
C      1  0.5157520000000  0.4357290000000  0.4376820000000 1.0
C      1  0.4347770000000  0.5755320000000  0.5777900000000 1.0
C      1  0.5656950000000  0.4249060000000  0.5777870000000 1.0
C      1  0.4392580000000  0.4240350000000  0.5745740000000 1.0
C      1  0.5612140000000  0.5764020000000  0.5745790000000 1.0
C      1  0.4823870000000  0.3982330000000  0.4442640000000 1.0
C      1  0.5180880000000  0.6022120000000  0.4442700000000 1.0
C      1  0.4876200000000  0.5965480000000  0.4467480000000 1.0
C      1  0.5128540000000  0.4038970000000  0.4467430000000 1.0
C      1  0.4833160000000  0.6103190000000  0.5403850000000 1.0
C      1  0.5171570000000  0.3901200000000  0.5403800000000 1.0
C      1  0.4884590000000  0.3902090000000  0.5391430000000 1.0
C      1  0.5120140000000  0.6102300000000  0.5391490000000 1.0
C      1  0.4615210000000  0.5608160000000  0.5849990000000 1.0
C      1  0.5389500000000  0.4396210000000  0.5849970000000 1.0
C      1  0.4648840000000  0.4396630000000  0.5820390000000 1.0
C      1  0.5355880000000  0.5607740000000  0.5820430000000 1.0
C      1  0.4397340000000  0.5219740000000  0.5770270000000 1.0
C      1  0.5607380000000  0.4784630000000  0.5770270000000 1.0
C      1  0.4413470000000  0.4800460000000  0.5752270000000 1.0
C      1  0.5591250000000  0.5203920000000  0.5752300000000 1.0
C      1  0.4654670000000  0.5307830000000  0.4871170000000 1.0
C      1  0.5350060000000  0.4696590000000  0.4871170000000 1.0
C      1  0.4643520000000  0.4721320000000  0.4866550000000 1.0
C      1  0.5361220000000  0.5283100000000  0.4866580000000 1.0
C      1  0.5087450000000  0.5349990000000  0.5488680000000 1.0
C      1  0.4917270000000  0.4654400000000  0.5488650000000 1.0
C      1  0.5248130000000  0.4662940000000  0.5436920000000 1.0
C      1  0.4756600000000  0.5341450000000  0.5436940000000 1.0
C      1  0.4820180000000  0.4829160000000  0.5231670000000 1.0
C      1  0.5184550000000  0.5175250000000  0.5231680000000 1.0
C      1  0.4853320000000  0.5149420000000  0.5204980000000 1.0
C      1  0.5151410000000  0.4854990000000  0.5204970000000 1.0
C      1  0.5869100000000  0.4188240000000  0.5303190000000 1.0
C      1  0.4135630000000  0.5816160000000  0.5303220000000 1.0
C      1  0.5832870000000  0.5818800000000  0.5277530000000 1.0
C      1  0.4171860000000  0.4185600000000  0.5277470000000 1.0
C      1  0.5714440000000  0.4832530000000  0.5262330000000 1.0
C      1  0.4290290000000  0.5171870000000  0.5262320000000 1.0
C      1  0.5707970000000  0.5153860000000  0.5260140000000 1.0
C      1  0.4296760000000  0.4850540000000  0.5260110000000 1.0
C      1  0.5305740000000  0.6130440000000  0.4690270000000 1.0
C      1  0.4699000000000  0.3873990000000  0.4690200000000 1.0
C      1  0.5230550000000  0.3973930000000  0.4736100000000 1.0
C      1  0.4774190000000  0.6030490000000  0.4736150000000 1.0
C      1  0.5159280000000  0.5641240000000  0.5579550000000 1.0
C      1  0.4845450000000  0.4363140000000  0.5579510000000 1.0
C      1  0.5205820000000  0.4366490000000  0.5589010000000 1.0
C      1  0.4798900000000  0.5637890000000  0.5589040000000 1.0
C      1  0.5283840000000  0.5855280000000  0.5363480000000 1.0
C      1  0.4720890000000  0.4149110000000  0.5363430000000 1.0
C      1  0.5336510000000  0.4145610000000  0.5402730000000 1.0
C      1  0.4668210000000  0.5858790000000  0.5402770000000 1.0
C      1  0.5206730000000  0.4204380000000  0.4912890000000 1.0
C      1  0.4798000000000  0.5800040000000  0.4912930000000 1.0
C      1  0.5437740000000  0.5937260000000  0.4868100000000 1.0
C      1  0.4567000000000  0.4067160000000  0.4868040000000 1.0
C      1  0.3991240000000  0.5345890000000  0.5609770000000 1.0
C      1  0.6013480000000  0.4658490000000  0.5609780000000 1.0
C      1  0.4016960000000  0.4636280000000  0.5603100000000 1.0
C      1  0.5987760000000  0.5368100000000  0.5603140000000 1.0
C      1  0.5384330000000  0.5584290000000  0.4575060000000 1.0
C      1  0.4620410000000  0.4420150000000  0.4575020000000 1.0
C      1  0.5390390000000  0.4392070000000  0.4585150000000 1.0
C      1  0.4614350000000  0.5612370000000  0.4585170000000 1.0
C      1  0.5249040000000  0.5173460000000  0.4349670000000 1.0
C      1  0.4755710000000  0.4830990000000  0.4349660000000 1.0
C      1  0.5159980000000  0.4720150000000  0.4375170000000 1.0
C      1  0.4844770000000  0.5284300000000  0.4375180000000 1.0
C      1  0.6164740000000  0.5547040000000  0.4983240000000 1.0
C      1  0.3840000000000  0.4457370000000  0.4983190000000 1.0
C      1  0.6164300000000  0.4466430000000  0.4972850000000 1.0
C      1  0.3840440000000  0.5537990000000  0.4972860000000 1.0
C      1  0.4030720000000  0.4750240000000  0.5337510000000 1.0
C      1  0.5974010000000  0.5254150000000  0.5337540000000 1.0
C      1  0.4014760000000  0.5246920000000  0.5337780000000 1.0
C      1  0.5989970000000  0.4757470000000  0.5337790000000 1.0
C      1  0.4128870000000  0.4857820000000  0.4278340000000 1.0
C      1  0.5875880000000  0.5146640000000  0.4278360000000 1.0
C      1  0.4132250000000  0.5161170000000  0.4272600000000 1.0
C      1  0.5872510000000  0.4843280000000  0.4272610000000 1.0
C      1  0.4077990000000  0.5634900000000  0.5609390000000 1.0
C      1  0.5926740000000  0.4369480000000  0.5609380000000 1.0
C      1  0.4115640000000  0.4352370000000  0.5591570000000 1.0
C      1  0.5889080000000  0.5652020000000  0.5591630000000 1.0
C      1  0.5153330000000  0.5168610000000  0.3820400000000 1.0
C      1  0.4851430000000  0.4835870000000  0.3820390000000 1.0
C      1  0.5187550000000  0.4846230000000  0.3807280000000 1.0
C      1  0.4817210000000  0.5158250000000  0.3807290000000 1.0
C      1  0.4574000000000  0.5328040000000  0.5968510000000 1.0
C      1  0.5430720000000  0.4676320000000  0.5968500000000 1.0
C      1  0.4598810000000  0.4673870000000  0.5922750000000 1.0
C      1  0.5405900000000  0.5330490000000  0.5922780000000 1.0
C      1  0.5300980000000  0.5778990000000  0.5074880000000 1.0
C      1  0.4703750000000  0.4225420000000  0.5074840000000 1.0
C      1  0.5374580000000  0.4256780000000  0.5133500000000 1.0
C      1  0.4630150000000  0.5747630000000  0.5133530000000 1.0
C      1  0.5842070000000  0.4688430000000  0.4526250000000 1.0
C      1  0.4162670000000  0.5316010000000  0.4526250000000 1.0
C      1  0.5842070000000  0.5291470000000  0.4536290000000 1.0
C      1  0.4162680000000  0.4712970000000  0.4536260000000 1.0
C      1  0.4202540000000  0.4219990000000  0.4725930000000 1.0
C      1  0.5802200000000  0.5784440000000  0.4725990000000 1.0
C      1  0.4208580000000  0.5802760000000  0.4741080000000 1.0
C      1  0.5796160000000  0.4201670000000  0.4741050000000 1.0
C      1  0.3818180000000  0.5308520000000  0.5138380000000 1.0
C      1  0.6186560000000  0.4695890000000  0.5138390000000 1.0
C      1  0.3829980000000  0.4692270000000  0.5141500000000 1.0
C      1  0.6174750000000  0.5312140000000  0.5141540000000 1.0
C      1  0.5770750000000  0.5330860000000  0.4073940000000 1.0
C      1  0.4234000000000  0.4673610000000  0.4073910000000 1.0
C      1  0.5755750000000  0.4671460000000  0.4064490000000 1.0
C      1  0.4249010000000  0.5333010000000  0.4064490000000 1.0
C      1  0.4806320000000  0.4651630000000  0.4090340000000 1.0
C      1  0.5198440000000  0.5352830000000  0.4090360000000 1.0
C      1  0.4858250000000  0.5364250000000  0.4046080000000 1.0
C      1  0.5146500000000  0.4640220000000  0.4046070000000 1.0
C      1  0.5937710000000  0.5725830000000  0.4988120000000 1.0
C      1  0.4067020000000  0.4278590000000  0.4988060000000 1.0
C      1  0.5944190000000  0.4279870000000  0.4997240000000 1.0
C      1  0.4060550000000  0.5724540000000  0.4997260000000 1.0
C      1  0.5619130000000  0.4430340000000  0.4179260000000 1.0
C      1  0.4385630000000  0.5574120000000  0.4179270000000 1.0
C      1  0.5635450000000  0.5570670000000  0.4195130000000 1.0
C      1  0.4369310000000  0.4433780000000  0.4195080000000 1.0
C      1  0.4314390000000  0.4436090000000  0.4530880000000 1.0
C      1  0.5690360000000  0.5568350000000  0.4530930000000 1.0
C      1  0.4314690000000  0.5593600000000  0.4513380000000 1.0
C      1  0.5690060000000  0.4410850000000  0.4513360000000 1.0
C      1  0.4821030000000  0.4847400000000  0.4669110000000 1.0
C      1  0.5183710000000  0.5157040000000  0.4669130000000 1.0
C      1  0.4843150000000  0.5175740000000  0.4678540000000 1.0
C      1  0.5161590000000  0.4828690000000  0.4678530000000 1.0
C      1  0.5607220000000  0.5158660000000  0.4965680000000 1.0
C      1  0.4397510000000  0.4845760000000  0.4965660000000 1.0
C      1  0.5604890000000  0.4816620000000  0.4963760000000 1.0
C      1  0.4399850000000  0.5187800000000  0.4963750000000 1.0
C      1  0.5223090000000  0.4854280000000  0.6093530000000 1.0
C      1  0.4781630000000  0.5150070000000  0.6093530000000 1.0
C      1  0.5219320000000  0.5160690000000  0.6083020000000 1.0
C      1  0.4785390000000  0.4843670000000  0.6083010000000 1.0
C      1  0.5140380000000  0.3715970000000  0.4840530000000 1.0
C      1  0.4864360000000  0.6288460000000  0.4840590000000 1.0
C      1  0.5146840000000  0.6341430000000  0.4817000000000 1.0
C      1  0.4857900000000  0.3662990000000  0.4816930000000 1.0
C      1  0.5343600000000  0.5611730000000  0.4127180000000 1.0
C      1  0.4661150000000  0.4392730000000  0.4127140000000 1.0
C      1  0.5330220000000  0.4387820000000  0.4108660000000 1.0
C      1  0.4674540000000  0.5616640000000  0.4108690000000 1.0
C      1  0.5002380000000  0.5002230000000  0.4244810000000 1.0
END
