TITL C-862501-1041-1270 -50.5506555205228 125000 -225.433469323509 0 0 42 (C1) n - 1
REM
REM in /home/nfs/bkarasulu/CARBON/AIRSS/Generating-Clusters/TERSOFF/Higher-Symm/FIRE-HFTN
REM
REM
REM
REM
REM
REM ./C.cell (b20cbc046b6831c77cfcea5457e17084)
REM AIRSS Version 0.9.1 bugfix July 2018 build 013d7b7c2542+ Fri, 06 Jul 2018 19:26:36 +0100
REM compiler GCC version 9.2.1 20190827 (Red Hat 9.2.1-1)
REM options -cpp -mtune=generic -march=x86-64 -g -O0 -fpre-include=/usr/include/finclude/math-vector-fortran.h
REM seed 134641793 1634121404 1624902690 1655765904 -920943556 676251534 716090354 1227394945 -1548898391 2050740699 -227136827 -1006322028 1793375396 -1780879950 528924756 -1031919722 -211180777 1137685099 -1159741703 1136487801 -738541894 126599103 328146100 1258865557 -894933605 2064256104 -566899018 -1221779923 401400491 -750440516 2063405458 1967358580 1027007374
REM
CELL 1.54180   50.00000   50.00000   50.00000   90.00000   90.00000   90.00000
LATT -1
SFAC C  
C      1  0.5273640000000  0.4514030000000  0.5094690000000 1.0
C      1  0.5018960000000  0.4868410000000  0.5409250000000 1.0
C      1  0.5624990000000  0.4857540000000  0.5538420000000 1.0
C      1  0.5172350000000  0.5121890000000  0.5509010000000 1.0
C      1  0.5029260000000  0.4605310000000  0.4601120000000 1.0
C      1  0.4421950000000  0.4703660000000  0.4734050000000 1.0
C      1  0.5267650000000  0.4802240000000  0.4554550000000 1.0
C      1  0.5196040000000  0.5094980000000  0.4494270000000 1.0
C      1  0.5580380000000  0.4548220000000  0.5132050000000 1.0
C      1  0.5439960000000  0.5071860000000  0.5625650000000 1.0
C      1  0.4462980000000  0.5213000000000  0.5033180000000 1.0
C      1  0.4540040000000  0.4757040000000  0.4482160000000 1.0
C      1  0.5092700000000  0.5684520000000  0.4991590000000 1.0
C      1  0.4733310000000  0.5371480000000  0.4568640000000 1.0
C      1  0.5247350000000  0.4794790000000  0.5200220000000 1.0
C      1  0.5387940000000  0.4986620000000  0.5037690000000 1.0
C      1  0.4801540000000  0.5632360000000  0.5033400000000 1.0
C      1  0.4631630000000  0.5525480000000  0.4808900000000 1.0
C      1  0.5227630000000  0.5223760000000  0.4953180000000 1.0
C      1  0.4550530000000  0.4653560000000  0.5366040000000 1.0
C      1  0.5667310000000  0.5093790000000  0.4743160000000 1.0
C      1  0.5386140000000  0.5244150000000  0.4683230000000 1.0
C      1  0.5020870000000  0.4500410000000  0.4909570000000 1.0
C      1  0.5109480000000  0.5392860000000  0.5382180000000 1.0
C      1  0.4580330000000  0.5130030000000  0.5530650000000 1.0
C      1  0.5237530000000  0.5461260000000  0.5120600000000 1.0
C      1  0.4271000000000  0.5220640000000  0.4816710000000 1.0
C      1  0.5032030000000  0.4377280000000  0.4410470000000 1.0
C      1  0.4688270000000  0.5018440000000  0.5054170000000 1.0
C      1  0.5480000000000  0.4825400000000  0.4757190000000 1.0
C      1  0.5711820000000  0.5047120000000  0.5073800000000 1.0
C      1  0.5691950000000  0.4796720000000  0.5256520000000 1.0
C      1  0.4899580000000  0.5115630000000  0.4583500000000 1.0
C      1  0.4599510000000  0.4738980000000  0.4958580000000 1.0
C      1  0.4818240000000  0.4827660000000  0.4508870000000 1.0
C      1  0.4954320000000  0.4543840000000  0.5365250000000 1.0
C      1  0.4601920000000  0.5406880000000  0.5471500000000 1.0
C      1  0.4740570000000  0.4492260000000  0.5105080000000 1.0
C      1  0.4825270000000  0.5502820000000  0.5321690000000 1.0
C      1  0.4706980000000  0.4927490000000  0.5359990000000 1.0
C      1  0.4939250000000  0.5115080000000  0.4882760000000 1.0
C      1  0.4336810000000  0.5190510000000  0.4536460000000 1.0
END
