TITL C-862130-1496-1214 1.66999126830791e-05 125000 -611.995816040313 0 0 111 (C1) n - 1
REM
REM in /home/nfs/bkarasulu/CARBON/AIRSS/Generating-Clusters/TERSOFF/Higher-Symm/FIRE-HFTN
REM
REM
REM
REM
REM
REM ./C.cell (b20cbc046b6831c77cfcea5457e17084)
REM AIRSS Version 0.9.1 bugfix July 2018 build 013d7b7c2542+ Fri, 06 Jul 2018 19:26:36 +0100
REM compiler GCC version 9.2.1 20190827 (Red Hat 9.2.1-1)
REM options -cpp -mtune=generic -march=x86-64 -g -O0 -fpre-include=/usr/include/finclude/math-vector-fortran.h
REM seed 109588920 -552524182 -959342136 -1921040058 470028191 281524234 -279301824 1060663716 -597199379 -399243174 1094461497 -1188854043 -1267503790 887323093 355467492 1848441883 -1882396200 -209547763 21112385 1755816358 358819211 -1594944121 -1350688141 973558673 -576677363 -658013503 -1698811718 -2049499561 -1438981532 1565358663 -694552497 -1518926760 -1183744258
REM
CELL 1.54180   50.00000   50.00000   50.00000   90.00000   90.00000   90.00000
LATT -1
SFAC C  
C      1  0.4908300000000  0.4846220000000  0.5833490000000 1.0
C      1  0.4899810000000  0.5774270000000  0.4718820000000 1.0
C      1  0.4884580000000  0.4346600000000  0.4430410000000 1.0
C      1  0.4770560000000  0.5772800000000  0.5682190000000 1.0
C      1  0.4781430000000  0.5202990000000  0.3976910000000 1.0
C      1  0.4798430000000  0.4056970000000  0.5301150000000 1.0
C      1  0.4731980000000  0.4591650000000  0.5473770000000 1.0
C      1  0.4754400000000  0.5606130000000  0.5129770000000 1.0
C      1  0.4744390000000  0.4799300000000  0.4415260000000 1.0
C      1  0.4506460000000  0.4144330000000  0.4938780000000 1.0
C      1  0.4513240000000  0.5383200000000  0.5779390000000 1.0
C      1  0.4517040000000  0.5484750000000  0.4257380000000 1.0
C      1  0.4836600000000  0.4573830000000  0.4640700000000 1.0
C      1  0.4921590000000  0.4857870000000  0.5515110000000 1.0
C      1  0.4904810000000  0.5490750000000  0.4858860000000 1.0
C      1  0.5706740000000  0.4947660000000  0.4317250000000 1.0
C      1  0.5783540000000  0.4413690000000  0.5509800000000 1.0
C      1  0.5772400000000  0.5802110000000  0.5243750000000 1.0
C      1  0.5430500000000  0.4586320000000  0.5098160000000 1.0
C      1  0.5437460000000  0.5304900000000  0.5265920000000 1.0
C      1  0.5465930000000  0.5087360000000  0.4686610000000 1.0
C      1  0.5221680000000  0.4140320000000  0.4775590000000 1.0
C      1  0.5237920000000  0.5261540000000  0.5813850000000 1.0
C      1  0.5240540000000  0.5561150000000  0.4378860000000 1.0
C      1  0.4956860000000  0.4416270000000  0.5598910000000 1.0
C      1  0.4955440000000  0.5816190000000  0.5206120000000 1.0
C      1  0.4942240000000  0.4770410000000  0.4199240000000 1.0
C      1  0.4955660000000  0.4120870000000  0.4619780000000 1.0
C      1  0.4977630000000  0.5128390000000  0.5916610000000 1.0
C      1  0.4978950000000  0.5715890000000  0.4434770000000 1.0
C      1  0.4742460000000  0.3996120000000  0.4816100000000 1.0
C      1  0.4760440000000  0.5351700000000  0.5950630000000 1.0
C      1  0.4771070000000  0.5642050000000  0.4213410000000 1.0
C      1  0.5311550000000  0.4427920000000  0.4831180000000 1.0
C      1  0.5342610000000  0.5159540000000  0.5534300000000 1.0
C      1  0.5355960000000  0.5378610000000  0.4617270000000 1.0
C      1  0.5838660000000  0.4655580000000  0.5352600000000 1.0
C      1  0.5857460000000  0.5552320000000  0.5119520000000 1.0
C      1  0.5814030000000  0.4875660000000  0.4586040000000 1.0
C      1  0.5428250000000  0.4581140000000  0.4598400000000 1.0
C      1  0.5459390000000  0.4878640000000  0.5552150000000 1.0
C      1  0.5459990000000  0.5566300000000  0.4833870000000 1.0
C      1  0.5062810000000  0.5274600000000  0.4661790000000 1.0
C      1  0.5058040000000  0.4569440000000  0.4886120000000 1.0
C      1  0.5058950000000  0.5145200000000  0.5435290000000 1.0
C      1  0.5283680000000  0.4865930000000  0.4643840000000 1.0
C      1  0.5222590000000  0.4755210000000  0.5330470000000 1.0
C      1  0.5213780000000  0.5397670000000  0.5034660000000 1.0
C      1  0.5842800000000  0.5263130000000  0.4745260000000 1.0
C      1  0.5838190000000  0.4498870000000  0.4876220000000 1.0
C      1  0.5857420000000  0.5135330000000  0.5407470000000 1.0
C      1  0.4373090000000  0.5609020000000  0.5305450000000 1.0
C      1  0.4377890000000  0.4962960000000  0.4293560000000 1.0
C      1  0.4352790000000  0.4428930000000  0.5396080000000 1.0
C      1  0.4638150000000  0.5209360000000  0.5058430000000 1.0
C      1  0.4602630000000  0.4884160000000  0.4799480000000 1.0
C      1  0.4518260000000  0.4884310000000  0.5139270000000 1.0
C      1  0.4495640000000  0.4673440000000  0.4243830000000 1.0
C      1  0.4485610000000  0.4550880000000  0.5662500000000 1.0
C      1  0.4496990000000  0.5785230000000  0.5074250000000 1.0
C      1  0.4493260000000  0.5206280000000  0.4129670000000 1.0
C      1  0.4501920000000  0.4181900000000  0.5245240000000 1.0
C      1  0.4490210000000  0.5631240000000  0.5599230000000 1.0
C      1  0.4710410000000  0.5365570000000  0.5360540000000 1.0
C      1  0.4706270000000  0.5142380000000  0.4485130000000 1.0
C      1  0.4662100000000  0.4574050000000  0.5153510000000 1.0
C      1  0.5757170000000  0.5518460000000  0.4844550000000 1.0
C      1  0.5731190000000  0.4595120000000  0.4627480000000 1.0
C      1  0.5752290000000  0.4887910000000  0.5496240000000 1.0
C      1  0.5099420000000  0.4865720000000  0.5038330000000 1.0
C      1  0.4991300000000  0.5157600000000  0.5128490000000 1.0
C      1  0.4957350000000  0.4956540000000  0.4761600000000 1.0
C      1  0.5380110000000  0.5844570000000  0.4924950000000 1.0
C      1  0.5370120000000  0.4550970000000  0.4306840000000 1.0
C      1  0.5392170000000  0.4646780000000  0.5741720000000 1.0
C      1  0.5729640000000  0.5263640000000  0.5178510000000 1.0
C      1  0.5730670000000  0.5014860000000  0.4911670000000 1.0
C      1  0.5723340000000  0.4688600000000  0.5074850000000 1.0
C      1  0.5191810000000  0.5550190000000  0.5872770000000 1.0
C      1  0.5207020000000  0.5468430000000  0.4096930000000 1.0
C      1  0.5185830000000  0.3945830000000  0.4997260000000 1.0
C      1  0.4950000000000  0.5421410000000  0.5538230000000 1.0
C      1  0.4960500000000  0.5248970000000  0.4356510000000 1.0
C      1  0.4920980000000  0.4447290000000  0.5115300000000 1.0
C      1  0.4199450000000  0.5144610000000  0.5398070000000 1.0
C      1  0.4185760000000  0.5228430000000  0.4680770000000 1.0
C      1  0.4122650000000  0.4548250000000  0.4963260000000 1.0
C      1  0.5095440000000  0.5890050000000  0.4944970000000 1.0
C      1  0.5092030000000  0.4515230000000  0.4237270000000 1.0
C      1  0.5109670000000  0.4599120000000  0.5788300000000 1.0
C      1  0.4331500000000  0.4989930000000  0.4593900000000 1.0
C      1  0.4253160000000  0.4650010000000  0.5207420000000 1.0
C      1  0.4324860000000  0.5326710000000  0.5203220000000 1.0
C      1  0.4921620000000  0.5477290000000  0.4001650000000 1.0
C      1  0.4898980000000  0.3896790000000  0.5063790000000 1.0
C      1  0.4903860000000  0.5621710000000  0.5916210000000 1.0
C      1  0.5015500000000  0.5041500000000  0.4115700000000 1.0
C      1  0.5012140000000  0.4269010000000  0.5344810000000 1.0
C      1  0.5013900000000  0.5733980000000  0.5484790000000 1.0
C      1  0.4625190000000  0.4737070000000  0.5875100000000 1.0
C      1  0.4615440000000  0.5858520000000  0.4793680000000 1.0
C      1  0.4608680000000  0.4384270000000  0.4296330000000 1.0
C      1  0.5579820000000  0.4420440000000  0.5718410000000 1.0
C      1  0.5560350000000  0.5959870000000  0.5125040000000 1.0
C      1  0.5532950000000  0.4760520000000  0.4167980000000 1.0
C      1  0.4643060000000  0.5316190000000  0.4756930000000 1.0
C      1  0.4581520000000  0.4567260000000  0.4822850000000 1.0
C      1  0.4654150000000  0.5015880000000  0.5428400000000 1.0
C      1  0.4383710000000  0.4997240000000  0.5569420000000 1.0
C      1  0.4369710000000  0.5442260000000  0.4741040000000 1.0
C      1  0.4311520000000  0.4469600000000  0.4758450000000 1.0
END
