TITL C-862502-1143-1207 6.45431589599545e-05 125000 -95.3603377998968 0 0 19 (D3) n - 1
REM
REM in /home/nfs/bkarasulu/CARBON/AIRSS/Generating-Clusters/TERSOFF/Higher-Symm/FIRE-HFTN
REM
REM
REM
REM
REM
REM ./C.cell (b20cbc046b6831c77cfcea5457e17084)
REM AIRSS Version 0.9.1 bugfix July 2018 build 013d7b7c2542+ Fri, 06 Jul 2018 19:26:36 +0100
REM compiler GCC version 9.2.1 20190827 (Red Hat 9.2.1-1)
REM options -cpp -mtune=generic -march=x86-64 -g -O0 -fpre-include=/usr/include/finclude/math-vector-fortran.h
REM seed -295585843 937490225 -30173819 -457008755 1388390206 -362338980 2139322080 752263984 1511329769 -929679985 114710780 110235759 -1413907267 -112805938 -1426379333 -1146545260 -1445387290 1970768417 -1627190166 1896128559 1713543371 -1973867013 -2947917 631711067 -125685670 699382203 374114945 565061972 -1929297291 529344918 -1837989935 -545963115 1331431373
REM
CELL 1.54180   50.00000   50.00000   50.00000   90.00000   90.00000   90.00000
LATT -1
SFAC C  
C      1  0.5343870000000  0.5303590000000  0.4736850000000 1.0
C      1  0.5343390000000  0.4603900000000  0.4828650000000 1.0
C      1  0.5343480000000  0.5033250000000  0.5388690000000 1.0
C      1  0.4653000000000  0.5373990000000  0.4878120000000 1.0
C      1  0.4652630000000  0.4691920000000  0.4697090000000 1.0
C      1  0.4652520000000  0.4876170000000  0.5378290000000 1.0
C      1  0.4652710000000  0.5165160000000  0.5347770000000 1.0
C      1  0.4652970000000  0.5203060000000  0.4643110000000 1.0
C      1  0.4652460000000  0.4573850000000  0.4962620000000 1.0
C      1  0.5343690000000  0.5288950000000  0.5250620000000 1.0
C      1  0.5343760000000  0.5056160000000  0.4584440000000 1.0
C      1  0.5343290000000  0.4595630000000  0.5119130000000 1.0
C      1  0.5200180000000  0.4827200000000  0.5233300000000 1.0
C      1  0.5200550000000  0.5272220000000  0.4993000000000 1.0
C      1  0.5200360000000  0.4841600000000  0.4727750000000 1.0
C      1  0.4795730000000  0.4744450000000  0.5156300000000 1.0
C      1  0.4796070000000  0.5247410000000  0.5103180000000 1.0
C      1  0.4796010000000  0.4949930000000  0.4694160000000 1.0
C      1  0.4998150000000  0.4980470000000  0.4984620000000 1.0
END
