TITL C-862500-986-478 1.30135392697134e-06 125000 -306.49028696901 0 0 59 (C3) n - 1
REM
REM in /home/nfs/bkarasulu/CARBON/AIRSS/Generating-Clusters/TERSOFF/Higher-Symm/FIRE-HFTN
REM
REM
REM
REM
REM
REM ./C.cell (b20cbc046b6831c77cfcea5457e17084)
REM AIRSS Version 0.9.1 bugfix July 2018 build 013d7b7c2542+ Fri, 06 Jul 2018 19:26:36 +0100
REM compiler GCC version 9.2.1 20190827 (Red Hat 9.2.1-1)
REM options -cpp -mtune=generic -march=x86-64 -g -O0 -fpre-include=/usr/include/finclude/math-vector-fortran.h
REM seed -811790653 326267071 2075361249 965656937 1005204676 1063377169 247154182 -2095597781 -172831327 86131242 -997951850 -1236558322 1096986656 -414592184 -1610024338 725242736 -492473219 650979065 979351557 581534023 -1384126008 -1172301769 163143473 -1146908488 -360969462 1165504379 -425370504 -1318556869 469909987 236832931 -1442685141 2062579498 -1755578011
REM
CELL 1.54180   50.00000   50.00000   50.00000   90.00000   90.00000   90.00000
LATT -1
SFAC C  
C      1  0.4505450000000  0.5413120000000  0.5156740000000 1.0
C      1  0.5607580000000  0.5234050000000  0.5156740000000 1.0
C      1  0.4901430000000  0.4369120000000  0.5156740000000 1.0
C      1  0.4692540000000  0.5143040000000  0.4446880000000 1.0
C      1  0.5280140000000  0.5207070000000  0.4446890000000 1.0
C      1  0.5041790000000  0.4666180000000  0.4446890000000 1.0
C      1  0.5435330000000  0.5244930000000  0.5626970000000 1.0
C      1  0.4996970000000  0.4512850000000  0.5626970000000 1.0
C      1  0.4582150000000  0.5258520000000  0.5626970000000 1.0
C      1  0.5443580000000  0.4469370000000  0.5431070000000 1.0
C      1  0.4321190000000  0.4893490000000  0.5431070000000 1.0
C      1  0.5249690000000  0.5653450000000  0.5431070000000 1.0
C      1  0.5665400000000  0.5052740000000  0.4904090000000 1.0
C      1  0.4715500000000  0.4409700000000  0.4904090000000 1.0
C      1  0.4633560000000  0.5553860000000  0.4904090000000 1.0
C      1  0.4264080000000  0.4882610000000  0.4822360000000 1.0
C      1  0.5268820000000  0.5708350000000  0.4822360000000 1.0
C      1  0.5481560000000  0.4425340000000  0.4822360000000 1.0
C      1  0.4249410000000  0.5195780000000  0.4791730000000 1.0
C      1  0.5547370000000  0.5564460000000  0.4791730000000 1.0
C      1  0.5217680000000  0.4256060000000  0.4791730000000 1.0
C      1  0.5202340000000  0.5407640000000  0.5576400000000 1.0
C      1  0.5254380000000  0.4633270000000  0.5576400000000 1.0
C      1  0.4557730000000  0.4975390000000  0.5576400000000 1.0
C      1  0.4698170000000  0.4700130000000  0.4810660000000 1.0
C      1  0.4893750000000  0.5423650000000  0.4810660000000 1.0
C      1  0.5422540000000  0.4892510000000  0.4810660000000 1.0
C      1  0.4458140000000  0.4758210000000  0.4639510000000 1.0
C      1  0.5064060000000  0.5602490000000  0.4639510000000 1.0
C      1  0.5492270000000  0.4655600000000  0.4639510000000 1.0
C      1  0.4968880000000  0.4388620000000  0.4664620000000 1.0
C      1  0.4488620000000  0.5344970000000  0.4664620000000 1.0
C      1  0.5556970000000  0.5282710000000  0.4664620000000 1.0
C      1  0.4861000000000  0.5635230000000  0.5171720000000 1.0
C      1  0.5622150000000  0.4815090000000  0.5171720000000 1.0
C      1  0.4531310000000  0.4565980000000  0.5171720000000 1.0
C      1  0.5188460000000  0.5096080000000  0.4739110000000 1.0
C      1  0.4991500000000  0.4801080000000  0.4739110000000 1.0
C      1  0.4834500000000  0.5119140000000  0.4739110000000 1.0
C      1  0.4966140000000  0.5274710000000  0.5448890000000 1.0
C      1  0.5257360000000  0.4904300000000  0.5448890000000 1.0
C      1  0.4790960000000  0.4837300000000  0.5448890000000 1.0
C      1  0.4316450000000  0.5195670000000  0.5097030000000 1.0
C      1  0.5513760000000  0.5506460000000  0.5097030000000 1.0
C      1  0.5184250000000  0.4314170000000  0.5097030000000 1.0
C      1  0.5532190000000  0.5050660000000  0.5412530000000 1.0
C      1  0.4780300000000  0.4526100000000  0.5412530000000 1.0
C      1  0.4701970000000  0.5439540000000  0.5412530000000 1.0
C      1  0.5096060000000  0.5275240000000  0.5037990000000 1.0
C      1  0.5192870000000  0.4791510000000  0.5037990000000 1.0
C      1  0.4725540000000  0.4949540000000  0.5037990000000 1.0
C      1  0.4515180000000  0.4908850000000  0.4402020000000 1.0
C      1  0.5166000000000  0.5477760000000  0.4402020000000 1.0
C      1  0.5333290000000  0.4629680000000  0.4402020000000 1.0
C      1  0.4389180000000  0.4859560000000  0.5133830000000 1.0
C      1  0.5186310000000  0.5611530000000  0.5133840000000 1.0
C      1  0.5438970000000  0.4545210000000  0.5133840000000 1.0
C      1  0.5004820000000  0.5005430000000  0.4372750000000 1.0
C      1  0.5004820000000  0.5005430000000  0.5261390000000 1.0
END
