TITL C-862130-1496-400 -32.0675841932918 125000 -541.121993630475 0 0 95 (C1) n - 1
REM
REM in /home/nfs/bkarasulu/CARBON/AIRSS/Generating-Clusters/TERSOFF/Higher-Symm/FIRE-HFTN
REM
REM
REM
REM
REM
REM ./C.cell (b20cbc046b6831c77cfcea5457e17084)
REM AIRSS Version 0.9.1 bugfix July 2018 build 013d7b7c2542+ Fri, 06 Jul 2018 19:26:36 +0100
REM compiler GCC version 9.2.1 20190827 (Red Hat 9.2.1-1)
REM options -cpp -mtune=generic -march=x86-64 -g -O0 -fpre-include=/usr/include/finclude/math-vector-fortran.h
REM seed -46301729 -818846293 -769832735 -933012893 1154138527 -694825808 497587944 -610645939 2008162713 515659874 446210396 -368771656 39491522 -800390203 1575190151 232715296 1398877690 216469188 -2069351940 -158732276 1407241475 -1538672531 793698054 624789059 1455195987 -1279475182 2097091243 -757804257 -746101846 1236670943 -532588905 -1342397648 498677688
REM
CELL 1.54180   50.00000   50.00000   50.00000   90.00000   90.00000   90.00000
LATT -1
SFAC C  
C      1  0.4633920000000  0.5545570000000  0.4420710000000 1.0
C      1  0.5377500000000  0.5553530000000  0.5578050000000 1.0
C      1  0.4626720000000  0.5537980000000  0.5579070000000 1.0
C      1  0.5385370000000  0.5543720000000  0.4420150000000 1.0
C      1  0.3929860000000  0.4883180000000  0.5391970000000 1.0
C      1  0.6067250000000  0.4879290000000  0.4605930000000 1.0
C      1  0.3931700000000  0.4899130000000  0.4616710000000 1.0
C      1  0.6064480000000  0.4893950000000  0.5386600000000 1.0
C      1  0.5587210000000  0.5263260000000  0.5299250000000 1.0
C      1  0.4412840000000  0.5265860000000  0.4699220000000 1.0
C      1  0.5590930000000  0.5254260000000  0.4707130000000 1.0
C      1  0.4408910000000  0.5259080000000  0.5294040000000 1.0
C      1  0.5997090000000  0.4984800000000  0.5661710000000 1.0
C      1  0.3994200000000  0.4996090000000  0.4342420000000 1.0
C      1  0.6006230000000  0.4979840000000  0.4333290000000 1.0
C      1  0.3987800000000  0.4990310000000  0.5663100000000 1.0
C      1  0.5575060000000  0.4504010000000  0.5548680000000 1.0
C      1  0.4429250000000  0.4520200000000  0.4448060000000 1.0
C      1  0.5568410000000  0.4498380000000  0.4447440000000 1.0
C      1  0.4435630000000  0.4513110000000  0.5553690000000 1.0
C      1  0.4220380000000  0.5097070000000  0.5142480000000 1.0
C      1  0.5774970000000  0.5086870000000  0.4858770000000 1.0
C      1  0.4213520000000  0.5112030000000  0.4843980000000 1.0
C      1  0.5783500000000  0.5104120000000  0.5155780000000 1.0
C      1  0.4697400000000  0.4761780000000  0.5146480000000 1.0
C      1  0.5281360000000  0.4807210000000  0.4849650000000 1.0
C      1  0.4696220000000  0.4762590000000  0.4853250000000 1.0
C      1  0.5282770000000  0.4807410000000  0.5147210000000 1.0
C      1  0.5719790000000  0.4514080000000  0.4700160000000 1.0
C      1  0.4288490000000  0.4526240000000  0.5298580000000 1.0
C      1  0.5725310000000  0.4516020000000  0.5294820000000 1.0
C      1  0.4283400000000  0.4528820000000  0.4704350000000 1.0
C      1  0.4733670000000  0.4476250000000  0.4419920000000 1.0
C      1  0.5274980000000  0.4502140000000  0.5570520000000 1.0
C      1  0.4740120000000  0.4473820000000  0.5579140000000 1.0
C      1  0.5268840000000  0.4500010000000  0.4426960000000 1.0
C      1  0.5856640000000  0.4778470000000  0.5178560000000 1.0
C      1  0.4143960000000  0.4786750000000  0.4820940000000 1.0
C      1  0.5855370000000  0.4777920000000  0.4809260000000 1.0
C      1  0.4144860000000  0.4786090000000  0.5189700000000 1.0
C      1  0.4760970000000  0.5041030000000  0.4765530000000 1.0
C      1  0.5209960000000  0.5094140000000  0.5225700000000 1.0
C      1  0.4761770000000  0.5040320000000  0.5233110000000 1.0
C      1  0.5208350000000  0.5094820000000  0.4774240000000 1.0
C      1  0.5299240000000  0.4903830000000  0.5889410000000 1.0
C      1  0.4682550000000  0.4881220000000  0.4098130000000 1.0
C      1  0.5296780000000  0.4901900000000  0.4110630000000 1.0
C      1  0.4685120000000  0.4878110000000  0.5900060000000 1.0
C      1  0.5146970000000  0.4596310000000  0.4692420000000 1.0
C      1  0.4854200000000  0.4569890000000  0.5303390000000 1.0
C      1  0.5150570000000  0.4596440000000  0.5305130000000 1.0
C      1  0.4850650000000  0.4570740000000  0.4695270000000 1.0
C      1  0.4820060000000  0.5550440000000  0.5322490000000 1.0
C      1  0.5193360000000  0.5566560000000  0.4676950000000 1.0
C      1  0.4827990000000  0.5549750000000  0.4676500000000 1.0
C      1  0.5185330000000  0.5566900000000  0.5321280000000 1.0
C      1  0.5155810000000  0.4662670000000  0.5809800000000 1.0
C      1  0.4844950000000  0.4648510000000  0.4180700000000 1.0
C      1  0.5151030000000  0.4661770000000  0.4188740000000 1.0
C      1  0.4849900000000  0.4647010000000  0.5817650000000 1.0
C      1  0.4434590000000  0.5279390000000  0.4390250000000 1.0
C      1  0.5565920000000  0.5279130000000  0.5606690000000 1.0
C      1  0.4427960000000  0.5269980000000  0.5604150000000 1.0
C      1  0.5573630000000  0.5267340000000  0.4398650000000 1.0
C      1  0.5833120000000  0.5211830000000  0.4270410000000 1.0
C      1  0.4160850000000  0.5223430000000  0.5722900000000 1.0
C      1  0.5828470000000  0.5219290000000  0.5729470000000 1.0
C      1  0.4164760000000  0.5229760000000  0.4276620000000 1.0
C      1  0.4264380000000  0.4286920000000  0.4858870000000 1.0
C      1  0.5752520000000  0.4274970000000  0.5139860000000 1.0
C      1  0.4266360000000  0.4285800000000  0.5141670000000 1.0
C      1  0.5750080000000  0.4274150000000  0.4856760000000 1.0
C      1  0.4862510000000  0.5821550000000  0.4840410000000 1.0
C      1  0.5156710000000  0.5842100000000  0.5158990000000 1.0
C      1  0.4832060000000  0.5826660000000  0.5158710000000 1.0
C      1  0.5185490000000  0.5846500000000  0.4837460000000 1.0
C      1  0.4851480000000  0.5057430000000  0.5503720000000 1.0
C      1  0.5123350000000  0.5123530000000  0.4503540000000 1.0
C      1  0.4851880000000  0.5057790000000  0.4494570000000 1.0
C      1  0.5123310000000  0.5120880000000  0.5496190000000 1.0
C      1  0.4662790000000  0.5334620000000  0.5151130000000 1.0
C      1  0.5348000000000  0.5351730000000  0.4850190000000 1.0
C      1  0.4664750000000  0.5335960000000  0.4847080000000 1.0
C      1  0.5345590000000  0.5353280000000  0.5150180000000 1.0
C      1  0.4624470000000  0.5748310000000  0.5778920000000 1.0
C      1  0.5395380000000  0.5751170000000  0.4217590000000 1.0
C      1  0.4631650000000  0.5761090000000  0.4226530000000 1.0
C      1  0.5387220000000  0.5767170000000  0.5774020000000 1.0
C      1  0.5311180000000  0.5128500000000  0.5709340000000 1.0
C      1  0.4672350000000  0.5107530000000  0.4281290000000 1.0
C      1  0.5313850000000  0.5124780000000  0.4292540000000 1.0
C      1  0.4670470000000  0.5104060000000  0.5716520000000 1.0
C      1  0.5021060000000  0.4302130000000  0.5589810000000 1.0
C      1  0.5013520000000  0.4302220000000  0.4408840000000 1.0
C      1  0.4981940000000  0.5108030000000  0.5000050000000 1.0
END
