TITL C-862131-2149-794 0.10020188922293 125000 -575.33366388873 0 0 110 (C1) n - 1
REM
REM in /home/nfs/bkarasulu/CARBON/AIRSS/Generating-Clusters/TERSOFF/Higher-Symm/FIRE-HFTN
REM
REM
REM
REM
REM
REM ./C.cell (b20cbc046b6831c77cfcea5457e17084)
REM AIRSS Version 0.9.1 bugfix July 2018 build 013d7b7c2542+ Fri, 06 Jul 2018 19:26:36 +0100
REM compiler GCC version 9.2.1 20190827 (Red Hat 9.2.1-1)
REM options -cpp -mtune=generic -march=x86-64 -g -O0 -fpre-include=/usr/include/finclude/math-vector-fortran.h
REM seed -2018497271 -1434096276 2031165652 -1232921999 1659418251 1456352018 -300164335 -422285117 -2129699768 -1900736560 -678596787 -1262981002 -1258996995 2131858399 1476673789 802594537 328427437 596005403 1288537300 609740823 2052162505 -1077766985 -1172763347 57285563 -1194259185 1846812635 1270128424 77375639 -302440957 -991877010 1563291407 524927528 1929700243
REM
CELL 1.54180   50.00000   50.00000   50.00000   90.00000   90.00000   90.00000
LATT -1
SFAC C  
C      1  0.4569630000000  0.4851170000000  0.4785830000000 1.0
C      1  0.4528960000000  0.4891080000000  0.5256100000000 1.0
C      1  0.4567500000000  0.5290710000000  0.4976450000000 1.0
C      1  0.5267060000000  0.5241780000000  0.5580620000000 1.0
C      1  0.5299520000000  0.5442830000000  0.4519160000000 1.0
C      1  0.5250440000000  0.4413610000000  0.4908500000000 1.0
C      1  0.5188110000000  0.4914090000000  0.5830720000000 1.0
C      1  0.5172930000000  0.5804520000000  0.4687810000000 1.0
C      1  0.5180020000000  0.4360670000000  0.4498450000000 1.0
C      1  0.5170280000000  0.5034330000000  0.4443230000000 1.0
C      1  0.5174820000000  0.4581450000000  0.5285910000000 1.0
C      1  0.5149800000000  0.5500030000000  0.5224380000000 1.0
C      1  0.5678490000000  0.5443240000000  0.4857180000000 1.0
C      1  0.5646860000000  0.4728110000000  0.4723670000000 1.0
C      1  0.5679540000000  0.4936650000000  0.5417960000000 1.0
C      1  0.5402350000000  0.5665920000000  0.4933500000000 1.0
C      1  0.5370850000000  0.4669510000000  0.4498550000000 1.0
C      1  0.5408220000000  0.4763970000000  0.5582220000000 1.0
C      1  0.4191880000000  0.4986200000000  0.5315570000000 1.0
C      1  0.4249330000000  0.5370620000000  0.4911060000000 1.0
C      1  0.4220510000000  0.4787630000000  0.4746630000000 1.0
C      1  0.5080090000000  0.5615150000000  0.4389720000000 1.0
C      1  0.5083420000000  0.4183690000000  0.4800670000000 1.0
C      1  0.5083700000000  0.5262300000000  0.5820510000000 1.0
C      1  0.4844050000000  0.5357190000000  0.4754710000000 1.0
C      1  0.4806210000000  0.4596140000000  0.4836970000000 1.0
C      1  0.4833120000000  0.5052530000000  0.5387780000000 1.0
C      1  0.4872680000000  0.4604100000000  0.5347160000000 1.0
C      1  0.4859310000000  0.5522740000000  0.5169160000000 1.0
C      1  0.4882430000000  0.4920890000000  0.4477350000000 1.0
C      1  0.5210300000000  0.4812610000000  0.4201940000000 1.0
C      1  0.5241810000000  0.4437210000000  0.5560150000000 1.0
C      1  0.5219180000000  0.5804900000000  0.5220670000000 1.0
C      1  0.4749040000000  0.5230080000000  0.4202410000000 1.0
C      1  0.4776270000000  0.4169810000000  0.5219570000000 1.0
C      1  0.4751930000000  0.5607360000000  0.5592890000000 1.0
C      1  0.4248110000000  0.5219640000000  0.5497010000000 1.0
C      1  0.4263040000000  0.5376400000000  0.4599200000000 1.0
C      1  0.4268390000000  0.4525040000000  0.4928110000000 1.0
C      1  0.4376590000000  0.5621490000000  0.5150250000000 1.0
C      1  0.4368940000000  0.4855620000000  0.4418180000000 1.0
C      1  0.4453650000000  0.4532250000000  0.5465750000000 1.0
C      1  0.4952490000000  0.4725970000000  0.5814060000000 1.0
C      1  0.4936480000000  0.5890650000000  0.4842900000000 1.0
C      1  0.4940910000000  0.4434740000000  0.4328330000000 1.0
C      1  0.5621370000000  0.4895300000000  0.4341550000000 1.0
C      1  0.5636070000000  0.4520760000000  0.5422860000000 1.0
C      1  0.5626500000000  0.5642560000000  0.5221320000000 1.0
C      1  0.4675000000000  0.5313570000000  0.5254480000000 1.0
C      1  0.4729500000000  0.5070940000000  0.4657660000000 1.0
C      1  0.4683390000000  0.4643630000000  0.5132430000000 1.0
C      1  0.5279530000000  0.5107070000000  0.4045770000000 1.0
C      1  0.5280160000000  0.4177680000000  0.5364750000000 1.0
C      1  0.5259020000000  0.5757970000000  0.5537180000000 1.0
C      1  0.4680010000000  0.5743790000000  0.5309190000000 1.0
C      1  0.4673470000000  0.4919090000000  0.4231230000000 1.0
C      1  0.4725630000000  0.4349350000000  0.5468740000000 1.0
C      1  0.5707120000000  0.5215440000000  0.5404240000000 1.0
C      1  0.5735410000000  0.5299970000000  0.4610990000000 1.0
C      1  0.5713460000000  0.4574890000000  0.4948320000000 1.0
C      1  0.5058520000000  0.5295890000000  0.4210450000000 1.0
C      1  0.5069890000000  0.4103820000000  0.5154340000000 1.0
C      1  0.5046970000000  0.5600700000000  0.5695160000000 1.0
C      1  0.5521740000000  0.4374620000000  0.5008870000000 1.0
C      1  0.5525870000000  0.5365230000000  0.5563580000000 1.0
C      1  0.5548260000000  0.5352670000000  0.4398650000000 1.0
C      1  0.4207290000000  0.5139850000000  0.4420790000000 1.0
C      1  0.4242710000000  0.4513240000000  0.5238660000000 1.0
C      1  0.4225420000000  0.5500630000000  0.5403640000000 1.0
C      1  0.5809570000000  0.4990140000000  0.4647940000000 1.0
C      1  0.5818630000000  0.4745940000000  0.5198570000000 1.0
C      1  0.5805510000000  0.5337780000000  0.5131200000000 1.0
C      1  0.4484000000000  0.4795380000000  0.5661170000000 1.0
C      1  0.4492070000000  0.5705540000000  0.4838510000000 1.0
C      1  0.4498250000000  0.4549120000000  0.4503060000000 1.0
C      1  0.5188900000000  0.5006680000000  0.5421940000000 1.0
C      1  0.5198940000000  0.5399070000000  0.4801040000000 1.0
C      1  0.5136540000000  0.4669790000000  0.4779280000000 1.0
C      1  0.5366690000000  0.5292450000000  0.5170810000000 1.0
C      1  0.5396070000000  0.5057960000000  0.4656150000000 1.0
C      1  0.5400900000000  0.4753790000000  0.5162580000000 1.0
C      1  0.4746940000000  0.4271370000000  0.4902740000000 1.0
C      1  0.4757760000000  0.5275090000000  0.5663340000000 1.0
C      1  0.4754960000000  0.5464640000000  0.4446180000000 1.0
C      1  0.4978880000000  0.4429000000000  0.5713290000000 1.0
C      1  0.4944730000000  0.5933050000000  0.5151510000000 1.0
C      1  0.4934900000000  0.4688360000000  0.4132460000000 1.0
C      1  0.5533730000000  0.5137670000000  0.4198690000000 1.0
C      1  0.5538780000000  0.4280480000000  0.5278160000000 1.0
C      1  0.5526020000000  0.5644200000000  0.5501790000000 1.0
C      1  0.4789990000000  0.4613170000000  0.4519050000000 1.0
C      1  0.4779450000000  0.4798060000000  0.5581580000000 1.0
C      1  0.4775480000000  0.5644670000000  0.4888430000000 1.0
C      1  0.4461120000000  0.4368810000000  0.4763710000000 1.0
C      1  0.4469760000000  0.5119130000000  0.5672190000000 1.0
C      1  0.4476180000000  0.5575500000000  0.4551110000000 1.0
C      1  0.4119090000000  0.5044850000000  0.4980020000000 1.0
C      1  0.6675770000000  0.4798150000000  0.5018010000000 1.0
C      1  0.6389060000000  0.4796270000000  0.4978430000000 1.0
C      1  0.6219380000000  0.5030540000000  0.4988750000000 1.0
C      1  0.4461220000000  0.5019540000000  0.4997290000000 1.0
C      1  0.4876130000000  0.5007110000000  0.5050850000000 1.0
C      1  0.3161810000000  0.4925250000000  0.4784340000000 1.0
C      1  0.5101780000000  0.4927210000000  0.4924880000000 1.0
C      1  0.3814840000000  0.5060220000000  0.4950780000000 1.0
C      1  0.3350030000000  0.4846680000000  0.4989710000000 1.0
C      1  0.6863960000000  0.4946280000000  0.4855470000000 1.0
C      1  0.5918790000000  0.5024670000000  0.4991080000000 1.0
C      1  0.5358570000000  0.5045080000000  0.5000530000000 1.0
C      1  0.3636880000000  0.4831970000000  0.4953940000000 1.0
END
