TITL C-862129-6180-100 -0.205186547690944 125000 -880.704020194065 0 0 160 (C2h) n - 1
REM
REM in /home/nfs/bkarasulu/CARBON/AIRSS/Generating-Clusters/TERSOFF/Higher-Symm/FIRE-HFTN
REM
REM
REM
REM
REM
REM ./C.cell (b20cbc046b6831c77cfcea5457e17084)
REM AIRSS Version 0.9.1 bugfix July 2018 build 013d7b7c2542+ Fri, 06 Jul 2018 19:26:36 +0100
REM compiler GCC version 9.2.1 20190827 (Red Hat 9.2.1-1)
REM options -cpp -mtune=generic -march=x86-64 -g -O0 -fpre-include=/usr/include/finclude/math-vector-fortran.h
REM seed 925606131 1168950654 -1076942281 -507536777 355790102 -1624416050 -926859424 -1669851293 -1407428095 -1420851945 -2106699480 1958051846 -605027271 -1942082612 743625202 -1945545922 -43786019 -698491434 444530490 -808390904 89605396 1847181550 1434857032 1638543789 147467959 997035443 511502041 814108379 2023418441 -2115784670 -2052192841 278824891 -616362960
REM
CELL 1.54180   50.00000   50.00000   50.00000   90.00000   90.00000   90.00000
LATT -1
SFAC C  
C      1  0.5209890000000  0.5669700000000  0.5514700000000 1.0
C      1  0.5209890000000  0.4330300000000  0.4485300000000 1.0
C      1  0.4790110000000  0.5669700000000  0.5514700000000 1.0
C      1  0.4790110000000  0.4330300000000  0.4485300000000 1.0
C      1  0.4686390000000  0.5903730000000  0.5386060000000 1.0
C      1  0.4686390000000  0.4096270000000  0.4613940000000 1.0
C      1  0.5313610000000  0.5903730000000  0.5386060000000 1.0
C      1  0.5313610000000  0.4096270000000  0.4613940000000 1.0
C      1  0.4084780000000  0.4732800000000  0.5257230000000 1.0
C      1  0.4084780000000  0.5267200000000  0.4742770000000 1.0
C      1  0.5915220000000  0.4732800000000  0.5257230000000 1.0
C      1  0.5915220000000  0.5267200000000  0.4742770000000 1.0
C      1  0.4112820000000  0.4966820000000  0.4283000000000 1.0
C      1  0.4112820000000  0.5033180000000  0.5717000000000 1.0
C      1  0.5887180000000  0.4966820000000  0.4283000000000 1.0
C      1  0.5887180000000  0.5033180000000  0.5717000000000 1.0
C      1  0.6096840000000  0.4871360000000  0.4494090000000 1.0
C      1  0.6096840000000  0.5128640000000  0.5505910000000 1.0
C      1  0.3903160000000  0.4871360000000  0.4494090000000 1.0
C      1  0.3903160000000  0.5128640000000  0.5505910000000 1.0
C      1  0.5622550000000  0.4232840000000  0.5289310000000 1.0
C      1  0.5622550000000  0.5767160000000  0.4710690000000 1.0
C      1  0.4377450000000  0.4232840000000  0.5289310000000 1.0
C      1  0.4377450000000  0.5767160000000  0.4710690000000 1.0
C      1  0.4840240000000  0.5293320000000  0.4140690000000 1.0
C      1  0.4840240000000  0.4706680000000  0.5859310000000 1.0
C      1  0.5159760000000  0.5293320000000  0.4140690000000 1.0
C      1  0.5159760000000  0.4706680000000  0.5859310000000 1.0
C      1  0.4837890000000  0.4269540000000  0.5668810000000 1.0
C      1  0.4837890000000  0.5730460000000  0.4331190000000 1.0
C      1  0.5162110000000  0.4269540000000  0.5668810000000 1.0
C      1  0.5162110000000  0.5730460000000  0.4331190000000 1.0
C      1  0.5166130000000  0.5100480000000  0.5152740000000 1.0
C      1  0.5166130000000  0.4899520000000  0.4847260000000 1.0
C      1  0.4833870000000  0.5100480000000  0.5152740000000 1.0
C      1  0.4833870000000  0.4899520000000  0.4847260000000 1.0
C      1  0.4290660000000  0.4411940000000  0.4486870000000 1.0
C      1  0.4290660000000  0.5588060000000  0.5513130000000 1.0
C      1  0.5709340000000  0.4411940000000  0.4486870000000 1.0
C      1  0.5709340000000  0.5588060000000  0.5513130000000 1.0
C      1  0.4684830000000  0.6102370000000  0.4959660000000 1.0
C      1  0.4684830000000  0.3897630000000  0.5040340000000 1.0
C      1  0.5315170000000  0.6102370000000  0.4959660000000 1.0
C      1  0.5315170000000  0.3897630000000  0.5040340000000 1.0
C      1  0.4439980000000  0.5290680000000  0.5426280000000 1.0
C      1  0.4439980000000  0.4709320000000  0.4573720000000 1.0
C      1  0.5560020000000  0.5290680000000  0.5426280000000 1.0
C      1  0.5560020000000  0.4709320000000  0.4573720000000 1.0
C      1  0.5624270000000  0.4480320000000  0.4950830000000 1.0
C      1  0.5624270000000  0.5519680000000  0.5049170000000 1.0
C      1  0.4375730000000  0.4480320000000  0.4950830000000 1.0
C      1  0.4375730000000  0.5519680000000  0.5049170000000 1.0
C      1  0.6048260000000  0.4853920000000  0.5004370000000 1.0
C      1  0.6048260000000  0.5146080000000  0.4995630000000 1.0
C      1  0.3951740000000  0.4853920000000  0.5004370000000 1.0
C      1  0.3951740000000  0.5146080000000  0.4995630000000 1.0
C      1  0.4729140000000  0.5601220000000  0.4068600000000 1.0
C      1  0.4729140000000  0.4398780000000  0.5931400000000 1.0
C      1  0.5270860000000  0.5601220000000  0.4068600000000 1.0
C      1  0.5270860000000  0.4398780000000  0.5931400000000 1.0
C      1  0.4849090000000  0.4876740000000  0.5376550000000 1.0
C      1  0.4849090000000  0.5123260000000  0.4623450000000 1.0
C      1  0.5150910000000  0.4876740000000  0.5376550000000 1.0
C      1  0.5150910000000  0.5123260000000  0.4623450000000 1.0
C      1  0.5782140000000  0.4743700000000  0.5696220000000 1.0
C      1  0.5782140000000  0.5256300000000  0.4303780000000 1.0
C      1  0.4217860000000  0.4743700000000  0.5696220000000 1.0
C      1  0.4217860000000  0.5256300000000  0.4303780000000 1.0
C      1  0.5299920000000  0.5180030000000  0.4374130000000 1.0
C      1  0.5299920000000  0.4819970000000  0.5625870000000 1.0
C      1  0.4700080000000  0.5180030000000  0.4374130000000 1.0
C      1  0.4700080000000  0.4819970000000  0.5625870000000 1.0
C      1  0.4661350000000  0.5574560000000  0.5126730000000 1.0
C      1  0.4661350000000  0.4425440000000  0.4873270000000 1.0
C      1  0.5338650000000  0.5574560000000  0.5126730000000 1.0
C      1  0.5338650000000  0.4425440000000  0.4873270000000 1.0
C      1  0.4278760000000  0.4961420000000  0.4668330000000 1.0
C      1  0.4278760000000  0.5038580000000  0.5331670000000 1.0
C      1  0.5721240000000  0.4961420000000  0.4668330000000 1.0
C      1  0.5721240000000  0.5038580000000  0.5331670000000 1.0
C      1  0.3862180000000  0.4843500000000  0.5435550000000 1.0
C      1  0.3862180000000  0.5156500000000  0.4564450000000 1.0
C      1  0.6137820000000  0.4843500000000  0.5435550000000 1.0
C      1  0.6137820000000  0.5156500000000  0.4564450000000 1.0
C      1  0.5147780000000  0.6063800000000  0.5198890000000 1.0
C      1  0.5147780000000  0.3936200000000  0.4801110000000 1.0
C      1  0.4852220000000  0.6063800000000  0.5198890000000 1.0
C      1  0.4852220000000  0.3936200000000  0.4801110000000 1.0
C      1  0.4230730000000  0.4774480000000  0.4101340000000 1.0
C      1  0.4230730000000  0.5225520000000  0.5898660000000 1.0
C      1  0.5769270000000  0.4774480000000  0.4101340000000 1.0
C      1  0.5769270000000  0.5225520000000  0.5898660000000 1.0
C      1  0.5535250000000  0.4654270000000  0.5527230000000 1.0
C      1  0.5535250000000  0.5345730000000  0.4472770000000 1.0
C      1  0.4464750000000  0.4654270000000  0.5527230000000 1.0
C      1  0.4464750000000  0.5345730000000  0.4472770000000 1.0
C      1  0.5597150000000  0.4670600000000  0.5186480000000 1.0
C      1  0.5597150000000  0.5329400000000  0.4813520000000 1.0
C      1  0.4402850000000  0.4670600000000  0.5186480000000 1.0
C      1  0.4402850000000  0.5329400000000  0.4813520000000 1.0
C      1  0.5277890000000  0.4528560000000  0.6220530000000 1.0
C      1  0.5277890000000  0.5471440000000  0.3779470000000 1.0
C      1  0.4722110000000  0.4528560000000  0.6220530000000 1.0
C      1  0.4722110000000  0.5471440000000  0.3779470000000 1.0
C      1  0.5160320000000  0.5181780000000  0.3813580000000 1.0
C      1  0.5160320000000  0.4818220000000  0.6186420000000 1.0
C      1  0.4839680000000  0.5181780000000  0.3813580000000 1.0
C      1  0.4839680000000  0.4818220000000  0.6186420000000 1.0
C      1  0.5284730000000  0.4692610000000  0.5192350000000 1.0
C      1  0.5284730000000  0.5307390000000  0.4807650000000 1.0
C      1  0.4715270000000  0.4692610000000  0.5192350000000 1.0
C      1  0.4715270000000  0.5307390000000  0.4807650000000 1.0
C      1  0.4645290000000  0.5647330000000  0.4572430000000 1.0
C      1  0.4645290000000  0.4352670000000  0.5427570000000 1.0
C      1  0.5354710000000  0.5647330000000  0.4572430000000 1.0
C      1  0.5354710000000  0.4352670000000  0.5427570000000 1.0
C      1  0.4848030000000  0.4417920000000  0.5136720000000 1.0
C      1  0.4848030000000  0.5582080000000  0.4863280000000 1.0
C      1  0.5151970000000  0.4417920000000  0.5136720000000 1.0
C      1  0.5151970000000  0.5582080000000  0.4863280000000 1.0
C      1  0.5598050000000  0.4144000000000  0.4700710000000 1.0
C      1  0.5598050000000  0.5856000000000  0.5299290000000 1.0
C      1  0.4401950000000  0.4144000000000  0.4700710000000 1.0
C      1  0.4401950000000  0.5856000000000  0.5299290000000 1.0
C      1  0.3956590000000  0.5294130000000  0.5247580000000 1.0
C      1  0.3956590000000  0.4705870000000  0.4752420000000 1.0
C      1  0.6043410000000  0.5294130000000  0.5247580000000 1.0
C      1  0.6043410000000  0.4705870000000  0.4752420000000 1.0
C      1  0.4852460000000  0.4321870000000  0.4190040000000 1.0
C      1  0.4852460000000  0.5678130000000  0.5809960000000 1.0
C      1  0.5147540000000  0.4321870000000  0.4190040000000 1.0
C      1  0.5147540000000  0.5678130000000  0.5809960000000 1.0
C      1  0.4394690000000  0.4550880000000  0.4188000000000 1.0
C      1  0.4394690000000  0.5449120000000  0.5812000000000 1.0
C      1  0.5605310000000  0.4550880000000  0.4188000000000 1.0
C      1  0.5605310000000  0.5449120000000  0.5812000000000 1.0
C      1  0.4427200000000  0.4057270000000  0.5043090000000 1.0
C      1  0.4427200000000  0.5942730000000  0.4956910000000 1.0
C      1  0.5572800000000  0.4057270000000  0.5043090000000 1.0
C      1  0.5572800000000  0.5942730000000  0.4956910000000 1.0
C      1  0.4733330000000  0.4648590000000  0.4647980000000 1.0
C      1  0.4733330000000  0.5351410000000  0.5352020000000 1.0
C      1  0.5266670000000  0.4648590000000  0.4647980000000 1.0
C      1  0.5266670000000  0.5351410000000  0.5352020000000 1.0
C      1  0.5859530000000  0.4478480000000  0.4754910000000 1.0
C      1  0.5859530000000  0.5521520000000  0.5245090000000 1.0
C      1  0.4140470000000  0.4478480000000  0.4754910000000 1.0
C      1  0.4140470000000  0.5521520000000  0.5245090000000 1.0
C      1  0.5884170000000  0.5607750000000  0.4685070000000 1.0
C      1  0.5884170000000  0.4392250000000  0.5314930000000 1.0
C      1  0.4115830000000  0.5607750000000  0.4685070000000 1.0
C      1  0.4115830000000  0.4392250000000  0.5314930000000 1.0
C      1  0.5308510000000  0.4573050000000  0.4142020000000 1.0
C      1  0.5308510000000  0.5426950000000  0.5857980000000 1.0
C      1  0.4691490000000  0.4573050000000  0.4142020000000 1.0
C      1  0.4691490000000  0.5426950000000  0.5857980000000 1.0
C      1  0.4851470000000  0.4725400000000  0.4356990000000 1.0
C      1  0.4851470000000  0.5274600000000  0.5643010000000 1.0
C      1  0.5148530000000  0.4725400000000  0.4356990000000 1.0
C      1  0.5148530000000  0.5274600000000  0.5643010000000 1.0
END
