TITL C-862503-991-1000 5796.37403317891 125000 -1003.23205810981 0 0 171 (C1) n - 1
REM
REM in /home/nfs/bkarasulu/CARBON/AIRSS/Generating-Clusters/TERSOFF/Higher-Symm/FIRE-HFTN
REM
REM
REM
REM
REM
REM ./C.cell (b20cbc046b6831c77cfcea5457e17084)
REM AIRSS Version 0.9.1 bugfix July 2018 build 013d7b7c2542+ Fri, 06 Jul 2018 19:26:36 +0100
REM compiler GCC version 9.2.1 20190827 (Red Hat 9.2.1-1)
REM options -cpp -mtune=generic -march=x86-64 -g -O0 -fpre-include=/usr/include/finclude/math-vector-fortran.h
REM seed -2089091481 2014146146 7712077 1669974711 -416984212 125965599 457528279 -1193442737 445005640 868437710 -1253601097 707646727 -2113015148 -1733686669 860357766 1337833620 1286730624 -647847225 -276763933 759661904 283697134 980956 -935242666 1253817163 -461104246 892285339 14662082 -555400418 318405520 661456520 -1485732090 581296573 878063186
REM
CELL 1.54180   50.00000   50.00000   50.00000   90.00000   90.00000   90.00000
LATT -1
SFAC C  
C      1  0.5489070000000  0.5340120000000  0.4974010000000 1.0
C      1  0.5533030000000  0.4594390000000  0.4170730000000 1.0
C      1  0.5046450000000  0.5909610000000  0.5800150000000 1.0
C      1  0.5494560000000  0.4976660000000  0.4554820000000 1.0
C      1  0.5408880000000  0.5234370000000  0.4199940000000 1.0
C      1  0.4823930000000  0.4189000000000  0.4805210000000 1.0
C      1  0.4994870000000  0.5187220000000  0.6311460000000 1.0
C      1  0.4346330000000  0.4278160000000  0.5447420000000 1.0
C      1  0.4974930000000  0.6170080000000  0.4495130000000 1.0
C      1  0.4817230000000  0.4889120000000  0.5482330000000 1.0
C      1  0.4443690000000  0.5737240000000  0.5658850000000 1.0
C      1  0.4972950000000  0.4512060000000  0.6014920000000 1.0
C      1  0.5512130000000  0.5666690000000  0.3959370000000 1.0
C      1  0.4903500000000  0.4320430000000  0.5558270000000 1.0
C      1  0.5232660000000  0.5472480000000  0.5971510000000 1.0
C      1  0.4555390000000  0.4012280000000  0.4255280000000 1.0
C      1  0.4465290000000  0.3867790000000  0.5687360000000 1.0
C      1  0.4956870000000  0.4800380000000  0.4841060000000 1.0
C      1  0.6048700000000  0.4733890000000  0.5255880000000 1.0
C      1  0.4261380000000  0.5659040000000  0.4555400000000 1.0
C      1  0.5962030000000  0.5330310000000  0.4667270000000 1.0
C      1  0.5708940000000  0.4622470000000  0.4842740000000 1.0
C      1  0.4488110000000  0.4864800000000  0.5852630000000 1.0
C      1  0.5644140000000  0.5551470000000  0.6000590000000 1.0
C      1  0.6070810000000  0.5044090000000  0.4260720000000 1.0
C      1  0.5718190000000  0.5449180000000  0.4542200000000 1.0
C      1  0.5325550000000  0.4040570000000  0.5427070000000 1.0
C      1  0.4413570000000  0.4524140000000  0.5309720000000 1.0
C      1  0.4813710000000  0.4483330000000  0.5779800000000 1.0
C      1  0.5107310000000  0.4966880000000  0.3898470000000 1.0
C      1  0.5169680000000  0.4269540000000  0.4546690000000 1.0
C      1  0.4673950000000  0.4583770000000  0.5195840000000 1.0
C      1  0.4823910000000  0.4953780000000  0.6237720000000 1.0
C      1  0.5274390000000  0.6288820000000  0.6040730000000 1.0
C      1  0.4937030000000  0.5924560000000  0.4054170000000 1.0
C      1  0.3952220000000  0.4570290000000  0.5138040000000 1.0
C      1  0.5462630000000  0.6113420000000  0.5608260000000 1.0
C      1  0.5295230000000  0.4543540000000  0.4532620000000 1.0
C      1  0.5198370000000  0.5633020000000  0.4744670000000 1.0
C      1  0.4786920000000  0.5636090000000  0.5289890000000 1.0
C      1  0.4857690000000  0.5900880000000  0.5201980000000 1.0
C      1  0.4950550000000  0.5357550000000  0.6541230000000 1.0
C      1  0.5243710000000  0.5005050000000  0.5234270000000 1.0
C      1  0.5328670000000  0.5455910000000  0.4036550000000 1.0
C      1  0.5083690000000  0.6078680000000  0.4769390000000 1.0
C      1  0.5035670000000  0.4775120000000  0.6110190000000 1.0
C      1  0.4676490000000  0.5548900000000  0.4283290000000 1.0
C      1  0.4989350000000  0.5319010000000  0.4952120000000 1.0
C      1  0.4213610000000  0.4883030000000  0.5746130000000 1.0
C      1  0.5830990000000  0.4156890000000  0.4368220000000 1.0
C      1  0.4176150000000  0.5625820000000  0.5628700000000 1.0
C      1  0.5796060000000  0.5667240000000  0.4015500000000 1.0
C      1  0.5085120000000  0.6083050000000  0.4244840000000 1.0
C      1  0.4437090000000  0.5268270000000  0.6153590000000 1.0
C      1  0.4230760000000  0.5802010000000  0.5052390000000 1.0
C      1  0.5304900000000  0.5922390000000  0.5159720000000 1.0
C      1  0.5945500000000  0.4455490000000  0.5240180000000 1.0
C      1  0.3669290000000  0.4633310000000  0.4737000000000 1.0
C      1  0.4716560000000  0.5200340000000  0.3673250000000 1.0
C      1  0.5494960000000  0.4840390000000  0.5249500000000 1.0
C      1  0.4016960000000  0.5255720000000  0.4748480000000 1.0
C      1  0.5875120000000  0.5528520000000  0.5149790000000 1.0
C      1  0.5534940000000  0.4120960000000  0.4402140000000 1.0
C      1  0.4460020000000  0.4286210000000  0.4279720000000 1.0
C      1  0.4845650000000  0.5989800000000  0.4928030000000 1.0
C      1  0.5316200000000  0.4949100000000  0.4115480000000 1.0
C      1  0.5817860000000  0.4398990000000  0.4987290000000 1.0
C      1  0.4790060000000  0.5644020000000  0.6144130000000 1.0
C      1  0.4876390000000  0.5641660000000  0.4085460000000 1.0
C      1  0.5675820000000  0.5131150000000  0.4900570000000 1.0
C      1  0.5891880000000  0.4872490000000  0.4096180000000 1.0
C      1  0.5666590000000  0.5265090000000  0.5578670000000 1.0
C      1  0.5094860000000  0.4978420000000  0.5479300000000 1.0
C      1  0.5481350000000  0.5926270000000  0.5389010000000 1.0
C      1  0.5305360000000  0.4926440000000  0.5688370000000 1.0
C      1  0.4026190000000  0.4733750000000  0.4393190000000 1.0
C      1  0.5715270000000  0.4773350000000  0.5919780000000 1.0
C      1  0.5408390000000  0.4622390000000  0.4780130000000 1.0
C      1  0.4295710000000  0.4905140000000  0.4943720000000 1.0
C      1  0.4824400000000  0.3950890000000  0.4342390000000 1.0
C      1  0.5623250000000  0.4951950000000  0.5520840000000 1.0
C      1  0.4536280000000  0.5526550000000  0.6063830000000 1.0
C      1  0.3829690000000  0.4310860000000  0.5090650000000 1.0
C      1  0.4486440000000  0.6259180000000  0.4324690000000 1.0
C      1  0.5135940000000  0.3762230000000  0.4748460000000 1.0
C      1  0.4954110000000  0.5207240000000  0.3839620000000 1.0
C      1  0.5047800000000  0.4132430000000  0.4323360000000 1.0
C      1  0.5575410000000  0.5824080000000  0.4843590000000 1.0
C      1  0.5517770000000  0.4074610000000  0.4734750000000 1.0
C      1  0.5649670000000  0.5291250000000  0.5872010000000 1.0
C      1  0.5481250000000  0.5273910000000  0.4483670000000 1.0
C      1  0.3552280000000  0.4293990000000  0.5005270000000 1.0
C      1  0.5654500000000  0.5041850000000  0.6029680000000 1.0
C      1  0.4479290000000  0.5993610000000  0.5791610000000 1.0
C      1  0.4693450000000  0.4738050000000  0.5695540000000 1.0
C      1  0.4516040000000  0.5402710000000  0.4947480000000 1.0
C      1  0.4346820000000  0.4932420000000  0.5237350000000 1.0
C      1  0.4349580000000  0.4732070000000  0.4042190000000 1.0
C      1  0.4500480000000  0.4976510000000  0.4732150000000 1.0
C      1  0.4276320000000  0.4871410000000  0.4292280000000 1.0
C      1  0.4383780000000  0.3804800000000  0.4146240000000 1.0
C      1  0.5173190000000  0.4777150000000  0.4373250000000 1.0
C      1  0.4752050000000  0.4637850000000  0.4402120000000 1.0
C      1  0.5234560000000  0.5245190000000  0.5077130000000 1.0
C      1  0.5000220000000  0.4931500000000  0.4570200000000 1.0
C      1  0.5215380000000  0.5222050000000  0.6115360000000 1.0
C      1  0.3983240000000  0.4068560000000  0.5135120000000 1.0
C      1  0.6207660000000  0.4857830000000  0.5030750000000 1.0
C      1  0.5755910000000  0.4135600000000  0.4893210000000 1.0
C      1  0.5077070000000  0.4084650000000  0.5583620000000 1.0
C      1  0.3699040000000  0.4678820000000  0.5559740000000 1.0
C      1  0.5261080000000  0.6104480000000  0.5816380000000 1.0
C      1  0.4503370000000  0.4164230000000  0.5677260000000 1.0
C      1  0.5516700000000  0.4583660000000  0.5807690000000 1.0
C      1  0.3906460000000  0.5445010000000  0.4934370000000 1.0
C      1  0.4511880000000  0.4817890000000  0.4478940000000 1.0
C      1  0.4422090000000  0.4451760000000  0.4039020000000 1.0
C      1  0.5605940000000  0.5603250000000  0.5046260000000 1.0
C      1  0.4593430000000  0.6009130000000  0.4766320000000 1.0
C      1  0.4703810000000  0.4654950000000  0.4909270000000 1.0
C      1  0.5628190000000  0.4954310000000  0.3976790000000 1.0
C      1  0.4062520000000  0.5581070000000  0.5134840000000 1.0
C      1  0.4233380000000  0.5350470000000  0.4556160000000 1.0
C      1  0.3926010000000  0.4723620000000  0.5383460000000 1.0
C      1  0.5368390000000  0.6056530000000  0.4887430000000 1.0
C      1  0.6055670000000  0.5433680000000  0.4931760000000 1.0
C      1  0.5827410000000  0.4624330000000  0.4570540000000 1.0
C      1  0.4500430000000  0.5273530000000  0.4685090000000 1.0
C      1  0.5084090000000  0.4203200000000  0.4951990000000 1.0
C      1  0.4032330000000  0.4973060000000  0.4827730000000 1.0
C      1  0.4910520000000  0.4461190000000  0.5311700000000 1.0
C      1  0.4653530000000  0.4417750000000  0.4745900000000 1.0
C      1  0.3906900000000  0.4777960000000  0.4653910000000 1.0
C      1  0.4204190000000  0.4045120000000  0.5319830000000 1.0
C      1  0.5812490000000  0.4347290000000  0.5475650000000 1.0
C      1  0.5899460000000  0.5408260000000  0.5424050000000 1.0
C      1  0.4724310000000  0.5351960000000  0.4503150000000 1.0
C      1  0.5151060000000  0.4442070000000  0.5153430000000 1.0
C      1  0.4087010000000  0.5463410000000  0.5402910000000 1.0
C      1  0.5275280000000  0.3980900000000  0.4897280000000 1.0
C      1  0.5347660000000  0.3880560000000  0.5177820000000 1.0
C      1  0.4894210000000  0.4565510000000  0.4141360000000 1.0
C      1  0.6140350000000  0.4845110000000  0.4741230000000 1.0
C      1  0.4981950000000  0.5221520000000  0.4543860000000 1.0
C      1  0.5085940000000  0.4327420000000  0.4107300000000 1.0
C      1  0.4435580000000  0.4403630000000  0.4548320000000 1.0
C      1  0.5545940000000  0.4440970000000  0.5547880000000 1.0
C      1  0.4760500000000  0.5431340000000  0.5087490000000 1.0
C      1  0.5635310000000  0.4755060000000  0.4406710000000 1.0
C      1  0.5198360000000  0.4679580000000  0.4968300000000 1.0
C      1  0.6062420000000  0.5074170000000  0.4559290000000 1.0
C      1  0.4129880000000  0.4937500000000  0.5452300000000 1.0
C      1  0.5022670000000  0.5675010000000  0.5969340000000 1.0
C      1  0.6080120000000  0.5177610000000  0.5474990000000 1.0
C      1  0.4279440000000  0.3794120000000  0.5464700000000 1.0
C      1  0.5219430000000  0.5375670000000  0.4605350000000 1.0
C      1  0.5398560000000  0.4332790000000  0.4185590000000 1.0
C      1  0.4228980000000  0.5178700000000  0.4297690000000 1.0
C      1  0.4565750000000  0.5012690000000  0.6098400000000 1.0
C      1  0.4674660000000  0.5595640000000  0.5553820000000 1.0
C      1  0.5664510000000  0.5734220000000  0.4583310000000 1.0
C      1  0.5967960000000  0.4391290000000  0.4467110000000 1.0
C      1  0.5949130000000  0.4915200000000  0.5465660000000 1.0
C      1  0.3974440000000  0.5197880000000  0.5451710000000 1.0
C      1  0.5670190000000  0.4869000000000  0.5014350000000 1.0
C      1  0.4672590000000  0.6153870000000  0.4519770000000 1.0
C      1  0.4360780000000  0.5824690000000  0.4790110000000 1.0
C      1  0.5052590000000  0.5454770000000  0.3956180000000 1.0
C      1  0.5192610000000  0.5676310000000  0.5037820000000 1.0
C      1  0.5247950000000  0.4950280000000  0.5977660000000 1.0
C      1  0.5408780000000  0.4558160000000  0.5310900000000 1.0
END
