TITL C-862132-7359-530 -571.91217813821 125000 -437.04313692955 0 0 87 (C1) n - 1
REM
REM in /home/nfs/bkarasulu/CARBON/AIRSS/Generating-Clusters/TERSOFF/Higher-Symm/FIRE-HFTN
REM
REM
REM
REM
REM
REM ./C.cell (b20cbc046b6831c77cfcea5457e17084)
REM AIRSS Version 0.9.1 bugfix July 2018 build 013d7b7c2542+ Fri, 06 Jul 2018 19:26:36 +0100
REM compiler GCC version 9.2.1 20190827 (Red Hat 9.2.1-1)
REM options -cpp -mtune=generic -march=x86-64 -g -O0 -fpre-include=/usr/include/finclude/math-vector-fortran.h
REM seed 422102040 -1169748980 -2066961942 -324544090 1090609914 303031797 -1447691448 691956418 1244368390 1882149583 1324955817 1282540559 -858219737 -53583446 -477027878 591142298 -942917694 1549043018 -177695247 106945404 -1452655898 866437815 789816130 -598928174 -1463092952 701674463 1847339363 660042322 32645493 962824419 -853192438 408740038 -1438887312
REM
CELL 1.54180   50.00000   50.00000   50.00000   90.00000   90.00000   90.00000
LATT -1
SFAC C  
C      1  0.4574320000000  0.5058040000000  0.4970090000000 1.0
C      1  0.5193180000000  0.4579760000000  0.4970690000000 1.0
C      1  0.5292200000000  0.5358970000000  0.4970200000000 1.0
C      1  0.4594190000000  0.5134740000000  0.5267770000000 1.0
C      1  0.5106620000000  0.4564180000000  0.5265430000000 1.0
C      1  0.5350360000000  0.5300010000000  0.5267670000000 1.0
C      1  0.5581180000000  0.4620150000000  0.4612170000000 1.0
C      1  0.5059890000000  0.5603000000000  0.4592530000000 1.0
C      1  0.4380010000000  0.4686700000000  0.4613270000000 1.0
C      1  0.5219390000000  0.5328360000000  0.5706930000000 1.0
C      1  0.4628180000000  0.5008460000000  0.5704560000000 1.0
C      1  0.5197590000000  0.4656370000000  0.5705730000000 1.0
C      1  0.4828080000000  0.5390840000000  0.5369480000000 1.0
C      1  0.4767350000000  0.4633140000000  0.5370060000000 1.0
C      1  0.5452140000000  0.4968810000000  0.5371900000000 1.0
C      1  0.4281260000000  0.4629790000000  0.4935560000000 1.0
C      1  0.5687420000000  0.4580910000000  0.4925550000000 1.0
C      1  0.5024960000000  0.5753440000000  0.4877970000000 1.0
C      1  0.4657110000000  0.4949900000000  0.4289170000000 1.0
C      1  0.5255430000000  0.4733960000000  0.4281300000000 1.0
C      1  0.5133640000000  0.5325590000000  0.4286010000000 1.0
C      1  0.4972010000000  0.5596080000000  0.4286710000000 1.0
C      1  0.4524720000000  0.4683000000000  0.4334360000000 1.0
C      1  0.5556490000000  0.4740560000000  0.4327830000000 1.0
C      1  0.5469720000000  0.4156620000000  0.5118460000000 1.0
C      1  0.5477550000000  0.5836690000000  0.5105120000000 1.0
C      1  0.4068070000000  0.5058730000000  0.5115640000000 1.0
C      1  0.4561510000000  0.4888190000000  0.5442080000000 1.0
C      1  0.5334130000000  0.4658710000000  0.5442760000000 1.0
C      1  0.5151270000000  0.5447110000000  0.5443630000000 1.0
C      1  0.5626020000000  0.4883170000000  0.5074180000000 1.0
C      1  0.4813780000000  0.5558370000000  0.5053830000000 1.0
C      1  0.4589060000000  0.4524340000000  0.5076610000000 1.0
C      1  0.5202030000000  0.5740720000000  0.5438560000000 1.0
C      1  0.4280080000000  0.4790240000000  0.5434380000000 1.0
C      1  0.5561450000000  0.4466000000000  0.5434920000000 1.0
C      1  0.4518690000000  0.5145920000000  0.4451000000000 1.0
C      1  0.5155470000000  0.4506300000000  0.4444820000000 1.0
C      1  0.5369650000000  0.5353480000000  0.4457810000000 1.0
C      1  0.5752270000000  0.4988020000000  0.5475330000000 1.0
C      1  0.4662410000000  0.5645310000000  0.5460340000000 1.0
C      1  0.4640120000000  0.4359810000000  0.5472170000000 1.0
C      1  0.5067190000000  0.4255550000000  0.5276180000000 1.0
C      1  0.5633650000000  0.5423650000000  0.5289040000000 1.0
C      1  0.4345320000000  0.5317360000000  0.5296320000000 1.0
C      1  0.5049890000000  0.4125610000000  0.4784120000000 1.0
C      1  0.5763350000000  0.5483080000000  0.4799750000000 1.0
C      1  0.4214800000000  0.5399260000000  0.4811250000000 1.0
C      1  0.4882840000000  0.4582570000000  0.4577190000000 1.0
C      1  0.5481040000000  0.5098850000000  0.4577480000000 1.0
C      1  0.4686450000000  0.5365000000000  0.4577140000000 1.0
C      1  0.5320300000000  0.4291430000000  0.4627210000000 1.0
C      1  0.5477460000000  0.5611970000000  0.4626640000000 1.0
C      1  0.4251750000000  0.5093730000000  0.4624050000000 1.0
C      1  0.4534250000000  0.5325440000000  0.4829830000000 1.0
C      1  0.4979080000000  0.4440700000000  0.4819800000000 1.0
C      1  0.5536100000000  0.5249250000000  0.4828540000000 1.0
C      1  0.5385890000000  0.5086590000000  0.5688530000000 1.0
C      1  0.4753970000000  0.5273790000000  0.5685640000000 1.0
C      1  0.4904780000000  0.4630700000000  0.5687980000000 1.0
C      1  0.4910970000000  0.4111790000000  0.5070930000000 1.0
C      1  0.5842950000000  0.5365620000000  0.5089220000000 1.0
C      1  0.4284430000000  0.5527620000000  0.5098750000000 1.0
C      1  0.4788870000000  0.4832990000000  0.5874830000000 1.0
C      1  0.5268630000000  0.4884670000000  0.5874440000000 1.0
C      1  0.4985120000000  0.5274830000000  0.5874400000000 1.0
C      1  0.5324700000000  0.5677730000000  0.4911640000000 1.0
C      1  0.4265900000000  0.4946010000000  0.4926840000000 1.0
C      1  0.5444510000000  0.4379280000000  0.4927730000000 1.0
C      1  0.4969090000000  0.5344110000000  0.4804760000000 1.0
C      1  0.4664910000000  0.4744210000000  0.4815570000000 1.0
C      1  0.5381660000000  0.4843640000000  0.4812110000000 1.0
C      1  0.4695130000000  0.5584540000000  0.4385220000000 1.0
C      1  0.4713350000000  0.4464160000000  0.4354190000000 1.0
C      1  0.5670340000000  0.5003870000000  0.4367560000000 1.0
C      1  0.5862950000000  0.5069910000000  0.5054780000000 1.0
C      1  0.4535160000000  0.5683130000000  0.5049900000000 1.0
C      1  0.4640330000000  0.4229970000000  0.5049480000000 1.0
C      1  0.5034850000000  0.5028360000000  0.5322360000000 1.0
C      1  0.5014940000000  0.5006780000000  0.4259710000000 1.0
C      1  0.5014140000000  0.4997540000000  0.6024130000000 1.0
C      1  0.4971880000000  0.5040020000000  0.4810770000000 1.0
C      1  0.5070390000000  0.5083770000000  0.3733190000000 1.0
C      1  0.5014410000000  0.4997680000000  0.6316390000000 1.0
C      1  0.4979720000000  0.4925900000000  0.3958200000000 1.0
C      1  0.4953640000000  0.4909310000000  0.5071980000000 1.0
C      1  0.4969640000000  0.4880010000000  0.4560610000000 1.0
END
