TITL C-862129-6180-1446 430413.301813659 125000 -756.262394691435 0 0 138 (C1) n - 1
REM
REM in /home/nfs/bkarasulu/CARBON/AIRSS/Generating-Clusters/TERSOFF/Higher-Symm/FIRE-HFTN
REM
REM
REM
REM
REM
REM ./C.cell (b20cbc046b6831c77cfcea5457e17084)
REM AIRSS Version 0.9.1 bugfix July 2018 build 013d7b7c2542+ Fri, 06 Jul 2018 19:26:36 +0100
REM compiler GCC version 9.2.1 20190827 (Red Hat 9.2.1-1)
REM options -cpp -mtune=generic -march=x86-64 -g -O0 -fpre-include=/usr/include/finclude/math-vector-fortran.h
REM seed 1874729904 -203833800 -1051924360 1236209582 -776050879 -678133600 -957539892 -87625835 1755303495 382916823 -284733098 -2051214838 1210441526 1303167349 -515966094 -1975027587 533325849 1495147866 1388166449 577459653 -2104384387 -35616755 774866368 1827631009 -165214038 1708955563 1962976261 1361541990 -877503709 -1068940956 1997362840 1866184531 1321488704
REM
CELL 1.54180   50.00000   50.00000   50.00000   90.00000   90.00000   90.00000
LATT -1
SFAC C  
C      1  0.4982650000000  0.5070680000000  0.4075020000000 1.0
C      1  0.5480050000000  0.5067630000000  0.4197900000000 1.0
C      1  0.5773130000000  0.5068190000000  0.4609800000000 1.0
C      1  0.5886750000000  0.5078330000000  0.5103600000000 1.0
C      1  0.5705640000000  0.5064190000000  0.5579470000000 1.0
C      1  0.5286860000000  0.5070070000000  0.5869740000000 1.0
C      1  0.4775950000000  0.5065450000000  0.5854010000000 1.0
C      1  0.4321990000000  0.5059100000000  0.5621770000000 1.0
C      1  0.4125030000000  0.5052000000000  0.5152150000000 1.0
C      1  0.4183450000000  0.5069390000000  0.4649700000000 1.0
C      1  0.4501080000000  0.5085830000000  0.4246970000000 1.0
C      1  0.5022930000000  0.5501490000000  0.5935250000000 1.0
C      1  0.4474570000000  0.5477800000000  0.5868700000000 1.0
C      1  0.4057730000000  0.5457060000000  0.5448380000000 1.0
C      1  0.4008170000000  0.5475500000000  0.4892180000000 1.0
C      1  0.4284110000000  0.5514290000000  0.4416510000000 1.0
C      1  0.4708620000000  0.5497960000000  0.4030980000000 1.0
C      1  0.5275180000000  0.5478840000000  0.3981750000000 1.0
C      1  0.5754120000000  0.5479260000000  0.4316770000000 1.0
C      1  0.5919850000000  0.5504580000000  0.4829210000000 1.0
C      1  0.5926470000000  0.5486320000000  0.5403990000000 1.0
C      1  0.5570150000000  0.5485400000000  0.5833860000000 1.0
C      1  0.4940480000000  0.4756510000000  0.4122300000000 1.0
C      1  0.5416600000000  0.4760310000000  0.4221780000000 1.0
C      1  0.5725030000000  0.4746650000000  0.4607770000000 1.0
C      1  0.5861630000000  0.4764510000000  0.5049850000000 1.0
C      1  0.5692780000000  0.4750490000000  0.5517370000000 1.0
C      1  0.5314790000000  0.4756620000000  0.5824240000000 1.0
C      1  0.4819100000000  0.4746890000000  0.5842550000000 1.0
C      1  0.4392360000000  0.4748810000000  0.5628730000000 1.0
C      1  0.4183010000000  0.4734670000000  0.5175420000000 1.0
C      1  0.4209780000000  0.4749060000000  0.4700530000000 1.0
C      1  0.4484450000000  0.4771610000000  0.4309270000000 1.0
C      1  0.4520590000000  0.5202760000000  0.5785700000000 1.0
C      1  0.4162060000000  0.5189660000000  0.5409300000000 1.0
C      1  0.4093930000000  0.5198060000000  0.4896260000000 1.0
C      1  0.4325000000000  0.5226070000000  0.4437070000000 1.0
C      1  0.4728970000000  0.5218630000000  0.4109700000000 1.0
C      1  0.5248690000000  0.5206930000000  0.4078570000000 1.0
C      1  0.5677390000000  0.5204170000000  0.4368840000000 1.0
C      1  0.5856280000000  0.5221360000000  0.4849710000000 1.0
C      1  0.5848720000000  0.5208790000000  0.5366910000000 1.0
C      1  0.5528750000000  0.5204830000000  0.5773640000000 1.0
C      1  0.5027210000000  0.5213940000000  0.5887250000000 1.0
C      1  0.5826520000000  0.4777600000000  0.4311310000000 1.0
C      1  0.6077570000000  0.4781620000000  0.4833360000000 1.0
C      1  0.5995270000000  0.4790360000000  0.5447130000000 1.0
C      1  0.5603430000000  0.4787600000000  0.5926060000000 1.0
C      1  0.4995890000000  0.4800120000000  0.6094050000000 1.0
C      1  0.4412340000000  0.4794860000000  0.5935460000000 1.0
C      1  0.4016150000000  0.4769600000000  0.5443260000000 1.0
C      1  0.3935950000000  0.4780570000000  0.4838890000000 1.0
C      1  0.4178720000000  0.4793430000000  0.4284090000000 1.0
C      1  0.4688980000000  0.4800720000000  0.3943610000000 1.0
C      1  0.5313070000000  0.4789390000000  0.3931260000000 1.0
C      1  0.5243340000000  0.5715200000000  0.4144350000000 1.0
C      1  0.5660860000000  0.5707090000000  0.4467520000000 1.0
C      1  0.5733320000000  0.5721470000000  0.4880930000000 1.0
C      1  0.5782220000000  0.5713290000000  0.5298000000000 1.0
C      1  0.5418300000000  0.5702230000000  0.5718290000000 1.0
C      1  0.4998500000000  0.5707390000000  0.5727900000000 1.0
C      1  0.4578640000000  0.5710840000000  0.5732380000000 1.0
C      1  0.4194600000000  0.5699070000000  0.5373280000000 1.0
C      1  0.4184320000000  0.5701260000000  0.4854770000000 1.0
C      1  0.4456560000000  0.5719330000000  0.4535550000000 1.0
C      1  0.4725600000000  0.5722480000000  0.4213130000000 1.0
C      1  0.4231450000000  0.4477010000000  0.4555150000000 1.0
C      1  0.4568830000000  0.4494750000000  0.4204960000000 1.0
C      1  0.5057080000000  0.4477540000000  0.4047700000000 1.0
C      1  0.5536250000000  0.4478340000000  0.4260880000000 1.0
C      1  0.5844230000000  0.4469000000000  0.4677720000000 1.0
C      1  0.5875640000000  0.4484640000000  0.5185260000000 1.0
C      1  0.5685830000000  0.4474750000000  0.5658270000000 1.0
C      1  0.5205000000000  0.4481500000000  0.5917710000000 1.0
C      1  0.4679680000000  0.4473940000000  0.5891800000000 1.0
C      1  0.4273350000000  0.4466150000000  0.5577580000000 1.0
C      1  0.4078140000000  0.4462220000000  0.5073010000000 1.0
C      1  0.5532130000000  0.4091090000000  0.5029530000000 1.0
C      1  0.5495850000000  0.4071170000000  0.5374380000000 1.0
C      1  0.5210480000000  0.4081080000000  0.5549180000000 1.0
C      1  0.4876380000000  0.4065680000000  0.5620490000000 1.0
C      1  0.4615150000000  0.4084970000000  0.5406360000000 1.0
C      1  0.4402650000000  0.4056380000000  0.5146630000000 1.0
C      1  0.4484880000000  0.4058710000000  0.4826070000000 1.0
C      1  0.4642070000000  0.4062310000000  0.4502090000000 1.0
C      1  0.4934120000000  0.4078640000000  0.4373040000000 1.0
C      1  0.5222030000000  0.4118100000000  0.4517320000000 1.0
C      1  0.5502440000000  0.4069600000000  0.4700550000000 1.0
C      1  0.4679770000000  0.5712020000000  0.5454480000000 1.0
C      1  0.4462120000000  0.5709400000000  0.5254660000000 1.0
C      1  0.4460900000000  0.5715650000000  0.4955500000000 1.0
C      1  0.4700180000000  0.5669670000000  0.4741250000000 1.0
C      1  0.4871470000000  0.5719950000000  0.4470430000000 1.0
C      1  0.5168290000000  0.5714290000000  0.4428990000000 1.0
C      1  0.5405520000000  0.5718510000000  0.4610920000000 1.0
C      1  0.5418490000000  0.5687170000000  0.4925050000000 1.0
C      1  0.5499210000000  0.5712510000000  0.5229480000000 1.0
C      1  0.5309520000000  0.5703120000000  0.5445900000000 1.0
C      1  0.4992560000000  0.5657930000000  0.5392250000000 1.0
C      1  0.5175840000000  0.4359050000000  0.5446960000000 1.0
C      1  0.4926070000000  0.4470770000000  0.5451070000000 1.0
C      1  0.4722150000000  0.4343340000000  0.5311280000000 1.0
C      1  0.4605590000000  0.4468770000000  0.5094810000000 1.0
C      1  0.4590520000000  0.4337480000000  0.4848150000000 1.0
C      1  0.4659110000000  0.4466200000000  0.4615730000000 1.0
C      1  0.4920020000000  0.4519150000000  0.4540410000000 1.0
C      1  0.5136750000000  0.4368950000000  0.4644200000000 1.0
C      1  0.5321850000000  0.4492290000000  0.4810220000000 1.0
C      1  0.5409660000000  0.4360870000000  0.5039990000000 1.0
C      1  0.5367960000000  0.4475650000000  0.5284780000000 1.0
C      1  0.4224710000000  0.4207140000000  0.4688250000000 1.0
C      1  0.4477660000000  0.4235770000000  0.4315200000000 1.0
C      1  0.4928910000000  0.4216690000000  0.4106160000000 1.0
C      1  0.5380330000000  0.4226330000000  0.4266780000000 1.0
C      1  0.5737780000000  0.4210970000000  0.4582140000000 1.0
C      1  0.5819540000000  0.4225680000000  0.5051160000000 1.0
C      1  0.5715420000000  0.4213410000000  0.5521160000000 1.0
C      1  0.5298940000000  0.4216280000000  0.5822260000000 1.0
C      1  0.4812420000000  0.4209850000000  0.5875620000000 1.0
C      1  0.4415050000000  0.4209500000000  0.5613530000000 1.0
C      1  0.4146040000000  0.4200570000000  0.5190440000000 1.0
C      1  0.5546670000000  0.4843610000000  0.5029080000000 1.0
C      1  0.5439820000000  0.4754580000000  0.5320840000000 1.0
C      1  0.5210900000000  0.4838540000000  0.5527740000000 1.0
C      1  0.4901320000000  0.4747900000000  0.5531030000000 1.0
C      1  0.4617250000000  0.4823570000000  0.5413740000000 1.0
C      1  0.4507340000000  0.4740290000000  0.5126800000000 1.0
C      1  0.4488640000000  0.4838500000000  0.4822710000000 1.0
C      1  0.4678870000000  0.4882950000000  0.4568470000000 1.0
C      1  0.4965260000000  0.4784550000000  0.4439150000000 1.0
C      1  0.5262160000000  0.4842130000000  0.4485190000000 1.0
C      1  0.5426890000000  0.4755580000000  0.4741780000000 1.0
C      1  0.5087530000000  0.5404330000000  0.4934980000000 1.0
C      1  0.4986670000000  0.4635490000000  0.5024200000000 1.0
C      1  0.5110120000000  0.4896880000000  0.5009600000000 1.0
C      1  0.5034180000000  0.5904950000000  0.4929630000000 1.0
C      1  0.4965490000000  0.5147280000000  0.4988290000000 1.0
C      1  0.5024470000000  0.5653020000000  0.5076510000000 1.0
END
