TITL C-862128-1543-699 29.1990073743294 125000 -577.225613316899 0 0 102 (C1) n - 1
REM
REM in /home/nfs/bkarasulu/CARBON/AIRSS/Generating-Clusters/TERSOFF/Higher-Symm/FIRE-HFTN
REM
REM
REM
REM
REM
REM ./C.cell (b20cbc046b6831c77cfcea5457e17084)
REM AIRSS Version 0.9.1 bugfix July 2018 build 013d7b7c2542+ Fri, 06 Jul 2018 19:26:36 +0100
REM compiler GCC version 9.2.1 20190827 (Red Hat 9.2.1-1)
REM options -cpp -mtune=generic -march=x86-64 -g -O0 -fpre-include=/usr/include/finclude/math-vector-fortran.h
REM seed 464695926 562772468 -840921597 1328427528 -531990247 -1089242152 -176587265 -582768070 -1392155154 -1601954846 2063403358 -1421429635 1371998706 1472945554 -475632747 -413540960 -1300920518 -945671487 -1837003388 1594726029 -1367797755 1647525980 -2057871910 -1449115687 557875001 655090595 1812782419 -2002422885 -138303414 -1466391473 1257423079 553099463 136021315
REM
CELL 1.54180   50.00000   50.00000   50.00000   90.00000   90.00000   90.00000
LATT -1
SFAC C  
C      1  0.5388130000000  0.4904500000000  0.5526550000000 1.0
C      1  0.5787780000000  0.5363510000000  0.4951780000000 1.0
C      1  0.4275820000000  0.4921130000000  0.5581870000000 1.0
C      1  0.5698810000000  0.5528770000000  0.5228840000000 1.0
C      1  0.5354710000000  0.5157340000000  0.4862890000000 1.0
C      1  0.5903560000000  0.4689850000000  0.4980350000000 1.0
C      1  0.5199600000000  0.5816460000000  0.5462380000000 1.0
C      1  0.4197250000000  0.4449300000000  0.5187030000000 1.0
C      1  0.5693340000000  0.5391650000000  0.5492320000000 1.0
C      1  0.5237920000000  0.5070550000000  0.4139820000000 1.0
C      1  0.5314980000000  0.4246380000000  0.5405230000000 1.0
C      1  0.5323730000000  0.5447020000000  0.4858970000000 1.0
C      1  0.5261820000000  0.4666480000000  0.5375310000000 1.0
C      1  0.5407410000000  0.5403470000000  0.5606340000000 1.0
C      1  0.4760820000000  0.5120420000000  0.4204010000000 1.0
C      1  0.5189680000000  0.5614840000000  0.5676310000000 1.0
C      1  0.5805860000000  0.4634870000000  0.5465330000000 1.0
C      1  0.4527800000000  0.5180950000000  0.4617130000000 1.0
C      1  0.4555920000000  0.5486560000000  0.4194500000000 1.0
C      1  0.4332560000000  0.4611640000000  0.5638460000000 1.0
C      1  0.5687910000000  0.4799690000000  0.4219790000000 1.0
C      1  0.5682640000000  0.4886560000000  0.5532410000000 1.0
C      1  0.4669720000000  0.5693270000000  0.5336770000000 1.0
C      1  0.5319890000000  0.4139780000000  0.4554670000000 1.0
C      1  0.4850080000000  0.5233680000000  0.4630550000000 1.0
C      1  0.5496930000000  0.4331520000000  0.5157280000000 1.0
C      1  0.5260680000000  0.5576670000000  0.5105090000000 1.0
C      1  0.4887240000000  0.5395330000000  0.4305490000000 1.0
C      1  0.5397130000000  0.5458850000000  0.4381430000000 1.0
C      1  0.4398360000000  0.4533680000000  0.4785250000000 1.0
C      1  0.5294710000000  0.5592910000000  0.4612120000000 1.0
C      1  0.4184980000000  0.4426420000000  0.5473490000000 1.0
C      1  0.4999060000000  0.5911120000000  0.4829000000000 1.0
C      1  0.5321590000000  0.4874760000000  0.4549500000000 1.0
C      1  0.4917450000000  0.5866900000000  0.5319750000000 1.0
C      1  0.5474890000000  0.4986060000000  0.4306740000000 1.0
C      1  0.4514570000000  0.5291880000000  0.5260760000000 1.0
C      1  0.5858700000000  0.4708490000000  0.4436710000000 1.0
C      1  0.4512460000000  0.5652720000000  0.4474220000000 1.0
C      1  0.4500120000000  0.5637170000000  0.5022970000000 1.0
C      1  0.5352580000000  0.4711040000000  0.5054020000000 1.0
C      1  0.5595590000000  0.5233140000000  0.4433690000000 1.0
C      1  0.5215540000000  0.4499300000000  0.4226190000000 1.0
C      1  0.4796050000000  0.5316370000000  0.5201210000000 1.0
C      1  0.5182160000000  0.5362650000000  0.4196140000000 1.0
C      1  0.5190380000000  0.4296800000000  0.5007330000000 1.0
C      1  0.5015460000000  0.4947930000000  0.4591120000000 1.0
C      1  0.5003520000000  0.5163260000000  0.5727690000000 1.0
C      1  0.5139290000000  0.4942700000000  0.4992250000000 1.0
C      1  0.4338430000000  0.5250760000000  0.5053020000000 1.0
C      1  0.5181700000000  0.5067410000000  0.5280520000000 1.0
C      1  0.5062350000000  0.5776880000000  0.4590000000000 1.0
C      1  0.5772860000000  0.4511560000000  0.5204860000000 1.0
C      1  0.5349120000000  0.4417530000000  0.4475130000000 1.0
C      1  0.4691550000000  0.4818420000000  0.5708720000000 1.0
C      1  0.4518110000000  0.4872550000000  0.5242310000000 1.0
C      1  0.4183670000000  0.4797160000000  0.4766270000000 1.0
C      1  0.4919460000000  0.5459760000000  0.5740230000000 1.0
C      1  0.4843310000000  0.5686970000000  0.4424190000000 1.0
C      1  0.5296210000000  0.5140320000000  0.5701460000000 1.0
C      1  0.4162480000000  0.4927180000000  0.5282380000000 1.0
C      1  0.4896520000000  0.4922470000000  0.5883410000000 1.0
C      1  0.4730480000000  0.4393930000000  0.5196750000000 1.0
C      1  0.4962870000000  0.4646930000000  0.4212790000000 1.0
C      1  0.5739820000000  0.5149670000000  0.4697170000000 1.0
C      1  0.5458620000000  0.4645560000000  0.4713960000000 1.0
C      1  0.5170240000000  0.4484860000000  0.5834600000000 1.0
C      1  0.4800080000000  0.4400640000000  0.5491870000000 1.0
C      1  0.4897470000000  0.4749200000000  0.4868150000000 1.0
C      1  0.4991820000000  0.4934850000000  0.4250130000000 1.0
C      1  0.3971670000000  0.5153760000000  0.5233000000000 1.0
C      1  0.4435650000000  0.5243510000000  0.5561660000000 1.0
C      1  0.4095570000000  0.5342800000000  0.4723130000000 1.0
C      1  0.5834910000000  0.4968170000000  0.5084990000000 1.0
C      1  0.4728050000000  0.4574190000000  0.4379740000000 1.0
C      1  0.5545810000000  0.4995380000000  0.5079670000000 1.0
C      1  0.5420840000000  0.3921380000000  0.4392820000000 1.0
C      1  0.5185840000000  0.4096180000000  0.4801550000000 1.0
C      1  0.4449860000000  0.4950470000000  0.4782050000000 1.0
C      1  0.4656600000000  0.5509610000000  0.5590100000000 1.0
C      1  0.4913860000000  0.5374380000000  0.4914070000000 1.0
C      1  0.4055210000000  0.5057060000000  0.4626370000000 1.0
C      1  0.5761860000000  0.4790370000000  0.4711880000000 1.0
C      1  0.4514390000000  0.5044170000000  0.4338320000000 1.0
C      1  0.5085560000000  0.4722870000000  0.5984050000000 1.0
C      1  0.5474940000000  0.5759040000000  0.5235650000000 1.0
C      1  0.4958900000000  0.4482250000000  0.5043250000000 1.0
C      1  0.4103680000000  0.4710720000000  0.5076710000000 1.0
C      1  0.4801340000000  0.4521670000000  0.4655950000000 1.0
C      1  0.4625490000000  0.4859540000000  0.4970940000000 1.0
C      1  0.5042820000000  0.5779530000000  0.5074630000000 1.0
C      1  0.5112250000000  0.4435310000000  0.5541250000000 1.0
C      1  0.4406610000000  0.5482810000000  0.4709870000000 1.0
C      1  0.5570950000000  0.4390410000000  0.4857090000000 1.0
C      1  0.4051850000000  0.5366710000000  0.5036400000000 1.0
C      1  0.5273970000000  0.5357870000000  0.5322450000000 1.0
C      1  0.4702180000000  0.4938200000000  0.5452220000000 1.0
C      1  0.4455250000000  0.4388360000000  0.5052550000000 1.0
C      1  0.4490630000000  0.4748100000000  0.4339460000000 1.0
C      1  0.4617880000000  0.4537720000000  0.5695310000000 1.0
C      1  0.4921660000000  0.5129630000000  0.5408370000000 1.0
C      1  0.5829540000000  0.5136850000000  0.5527530000000 1.0
END
