TITL C-862127-1500-887 -0.0252345893848189 125000 -345.053032278638 0 0 60 (C1) n - 1
REM
REM in /home/nfs/bkarasulu/CARBON/AIRSS/Generating-Clusters/TERSOFF/Higher-Symm/FIRE-HFTN
REM
REM
REM
REM
REM
REM ./C.cell (b20cbc046b6831c77cfcea5457e17084)
REM AIRSS Version 0.9.1 bugfix July 2018 build 013d7b7c2542+ Fri, 06 Jul 2018 19:26:36 +0100
REM compiler GCC version 9.2.1 20190827 (Red Hat 9.2.1-1)
REM options -cpp -mtune=generic -march=x86-64 -g -O0 -fpre-include=/usr/include/finclude/math-vector-fortran.h
REM seed 2002698166 2050583043 -1786764001 -271451762 110427127 -330755677 -1650711666 1664666717 656040539 1181446588 253401671 -493411033 -2094238433 1459659563 1645108368 -1134301468 -944887966 1252268588 -1566640500 625486453 -745906391 387610485 1142882991 1012296846 -47350849 -1263231129 1056514542 1035900288 1570458744 -926343402 -101622558 175380613 -1050504561
REM
CELL 1.54180   50.00000   50.00000   50.00000   90.00000   90.00000   90.00000
LATT -1
SFAC C  
C      1  0.4405820000000  0.4499890000000  0.4697420000000 1.0
C      1  0.4414430000000  0.4519890000000  0.5417960000000 1.0
C      1  0.4406400000000  0.5228530000000  0.5617240000000 1.0
C      1  0.4415770000000  0.5662720000000  0.4976660000000 1.0
C      1  0.4420500000000  0.5176450000000  0.4407340000000 1.0
C      1  0.5442620000000  0.4641380000000  0.5404690000000 1.0
C      1  0.5416360000000  0.5263260000000  0.5448810000000 1.0
C      1  0.5425920000000  0.5495410000000  0.4890660000000 1.0
C      1  0.5448020000000  0.5029530000000  0.4464690000000 1.0
C      1  0.5443970000000  0.4508400000000  0.4793750000000 1.0
C      1  0.5927580000000  0.4743490000000  0.4908380000000 1.0
C      1  0.5923310000000  0.4817160000000  0.5218410000000 1.0
C      1  0.5907760000000  0.5134640000000  0.5244450000000 1.0
C      1  0.5914810000000  0.5261680000000  0.4952500000000 1.0
C      1  0.5912430000000  0.5018090000000  0.4749280000000 1.0
C      1  0.4446520000000  0.5444840000000  0.5170280000000 1.0
C      1  0.4510960000000  0.5327310000000  0.4645480000000 1.0
C      1  0.4537660000000  0.4749780000000  0.4631750000000 1.0
C      1  0.4546820000000  0.4535280000000  0.5158830000000 1.0
C      1  0.4530570000000  0.4982620000000  0.5520360000000 1.0
C      1  0.4737560000000  0.5176000000000  0.4800380000000 1.0
C      1  0.4743690000000  0.4855610000000  0.4818440000000 1.0
C      1  0.4729510000000  0.4760950000000  0.5110170000000 1.0
C      1  0.4676510000000  0.5008410000000  0.5271720000000 1.0
C      1  0.4557840000000  0.5193240000000  0.5069540000000 1.0
C      1  0.4736920000000  0.4831960000000  0.4194480000000 1.0
C      1  0.4748160000000  0.4202280000000  0.4882380000000 1.0
C      1  0.4759030000000  0.4628430000000  0.5747390000000 1.0
C      1  0.4729590000000  0.5599560000000  0.5552330000000 1.0
C      1  0.4766960000000  0.5734880000000  0.4620650000000 1.0
C      1  0.5119630000000  0.5240430000000  0.5479120000000 1.0
C      1  0.5131680000000  0.5516140000000  0.4918200000000 1.0
C      1  0.5152650000000  0.5091840000000  0.4415220000000 1.0
C      1  0.5151930000000  0.4507150000000  0.4741100000000 1.0
C      1  0.5149720000000  0.4601950000000  0.5398590000000 1.0
C      1  0.5026830000000  0.4740720000000  0.5164140000000 1.0
C      1  0.4955360000000  0.5146910000000  0.5243390000000 1.0
C      1  0.4984160000000  0.5259140000000  0.4972270000000 1.0
C      1  0.4846810000000  0.5117200000000  0.4506590000000 1.0
C      1  0.5028360000000  0.4793660000000  0.4747520000000 1.0
C      1  0.5579170000000  0.5257350000000  0.4942230000000 1.0
C      1  0.5580640000000  0.5013550000000  0.4724940000000 1.0
C      1  0.5591790000000  0.4735920000000  0.4894600000000 1.0
C      1  0.5590170000000  0.4807290000000  0.5217800000000 1.0
C      1  0.5573260000000  0.5132980000000  0.5241080000000 1.0
C      1  0.5093310000000  0.4533910000000  0.4424000000000 1.0
C      1  0.5083140000000  0.4332230000000  0.5243790000000 1.0
C      1  0.5057700000000  0.5033000000000  0.5695460000000 1.0
C      1  0.5060990000000  0.5666500000000  0.5173470000000 1.0
C      1  0.5120650000000  0.5420680000000  0.4410160000000 1.0
C      1  0.4507810000000  0.5618630000000  0.4697870000000 1.0
C      1  0.4509560000000  0.4891780000000  0.4373700000000 1.0
C      1  0.4501310000000  0.4350520000000  0.4931330000000 1.0
C      1  0.4502110000000  0.4706270000000  0.5630670000000 1.0
C      1  0.4475070000000  0.5478870000000  0.5469160000000 1.0
C      1  0.5015630000000  0.4797770000000  0.4292890000000 1.0
C      1  0.5008230000000  0.4317280000000  0.4947960000000 1.0
C      1  0.5008600000000  0.4738440000000  0.5643690000000 1.0
C      1  0.4988280000000  0.5532540000000  0.5431370000000 1.0
C      1  0.5021430000000  0.5587670000000  0.4641280000000 1.0
END
