TITL C-862505-1648-534 2.12387689374076e-05 125000 -875.641016110559 0 0 162 () n - 1
REM
REM in /home/nfs/bkarasulu/CARBON/AIRSS/Generating-Clusters/TERSOFF/Higher-Symm/FIRE-HFTN
REM
REM
REM
REM
REM
REM ./C.cell (b20cbc046b6831c77cfcea5457e17084)
REM AIRSS Version 0.9.1 bugfix July 2018 build 013d7b7c2542+ Fri, 06 Jul 2018 19:26:36 +0100
REM compiler GCC version 9.2.1 20190827 (Red Hat 9.2.1-1)
REM options -cpp -mtune=generic -march=x86-64 -g -O0 -fpre-include=/usr/include/finclude/math-vector-fortran.h
REM seed 1286151853 -1840483082 -507591309 203510789 1421160120 1954335877 369005346 388821986 -1726204156 -1621838868 -1493920072 883492335 103932183 1024111975 1394716912 1631886156 -1013736801 1001918464 -516546941 2074525745 1681805750 -989585926 3616269 668026534 1167271051 1258279199 1148978912 -1714681390 -192379183 1016379603 2120938621 -1716775136 1700024687
REM
CELL 1.54180   50.00000   50.00000   50.00000   90.00000   90.00000   90.00000
LATT -1
SFAC C  
C      1  0.5281160000000  0.4379940000000  0.4788050000000 1.0
C      1  0.5324130000000  0.4379940000000  0.5137520000000 1.0
C      1  0.5042970000000  0.4379940000000  0.5349460000000 1.0
C      1  0.4718840000000  0.4379940000000  0.5211950000000 1.0
C      1  0.4675870000000  0.4379940000000  0.4862480000000 1.0
C      1  0.4957030000000  0.4379940000000  0.4650540000000 1.0
C      1  0.4718840000000  0.5616210000000  0.4788050000000 1.0
C      1  0.4675870000000  0.5616210000000  0.5137520000000 1.0
C      1  0.4957030000000  0.5616210000000  0.5349460000000 1.0
C      1  0.5281160000000  0.5616210000000  0.5211950000000 1.0
C      1  0.5324130000000  0.5616210000000  0.4862480000000 1.0
C      1  0.5042970000000  0.5616210000000  0.4650540000000 1.0
C      1  0.4179430000000  0.5673430000000  0.4833360000000 1.0
C      1  0.4734030000000  0.5673430000000  0.4206040000000 1.0
C      1  0.5554600000000  0.5673430000000  0.4372680000000 1.0
C      1  0.5820570000000  0.5673430000000  0.5166640000000 1.0
C      1  0.5265970000000  0.5673430000000  0.5793960000000 1.0
C      1  0.4445400000000  0.5673430000000  0.5627320000000 1.0
C      1  0.5820570000000  0.4322710000000  0.4833360000000 1.0
C      1  0.5265970000000  0.4322710000000  0.4206040000000 1.0
C      1  0.4445400000000  0.4322710000000  0.4372680000000 1.0
C      1  0.4179430000000  0.4322710000000  0.5166640000000 1.0
C      1  0.4734030000000  0.4322710000000  0.5793960000000 1.0
C      1  0.5554600000000  0.4322710000000  0.5627320000000 1.0
C      1  0.5045860000000  0.4793500000000  0.5279420000000 1.0
C      1  0.4780940000000  0.4793500000000  0.5179430000000 1.0
C      1  0.4735080000000  0.4793500000000  0.4900000000000 1.0
C      1  0.4954140000000  0.4793500000000  0.4720580000000 1.0
C      1  0.5219060000000  0.4793500000000  0.4820570000000 1.0
C      1  0.5264920000000  0.4793500000000  0.5100000000000 1.0
C      1  0.4954140000000  0.5202640000000  0.5279420000000 1.0
C      1  0.5219060000000  0.5202640000000  0.5179430000000 1.0
C      1  0.5264920000000  0.5202640000000  0.4900000000000 1.0
C      1  0.5045860000000  0.5202640000000  0.4720580000000 1.0
C      1  0.4780940000000  0.5202640000000  0.4820570000000 1.0
C      1  0.4735080000000  0.5202640000000  0.5100000000000 1.0
C      1  0.4660760000000  0.5245010000000  0.5694170000000 1.0
C      1  0.4229210000000  0.5245010000000  0.5053300000000 1.0
C      1  0.4568450000000  0.5245010000000  0.4359120000000 1.0
C      1  0.5339240000000  0.5245010000000  0.4305830000000 1.0
C      1  0.5770790000000  0.5245010000000  0.4946700000000 1.0
C      1  0.5431550000000  0.5245010000000  0.5640880000000 1.0
C      1  0.5339240000000  0.4751130000000  0.5694170000000 1.0
C      1  0.5770790000000  0.4751130000000  0.5053300000000 1.0
C      1  0.5431550000000  0.4751130000000  0.4359120000000 1.0
C      1  0.4660760000000  0.4751130000000  0.4305830000000 1.0
C      1  0.4229210000000  0.4751130000000  0.4946700000000 1.0
C      1  0.4568450000000  0.4751130000000  0.5640880000000 1.0
C      1  0.5750840000000  0.5639580000000  0.4626610000000 1.0
C      1  0.5698780000000  0.5639580000000  0.5463550000000 1.0
C      1  0.4947940000000  0.5639580000000  0.5836940000000 1.0
C      1  0.4249160000000  0.5639580000000  0.5373390000000 1.0
C      1  0.4301220000000  0.5639580000000  0.4536450000000 1.0
C      1  0.5052060000000  0.5639580000000  0.4163060000000 1.0
C      1  0.4249160000000  0.4356560000000  0.4626610000000 1.0
C      1  0.4301220000000  0.4356560000000  0.5463550000000 1.0
C      1  0.5052060000000  0.4356560000000  0.5836940000000 1.0
C      1  0.5750840000000  0.4356560000000  0.5373390000000 1.0
C      1  0.5698780000000  0.4356560000000  0.4536450000000 1.0
C      1  0.4947940000000  0.4356560000000  0.4163060000000 1.0
C      1  0.4180220000000  0.5250500000000  0.5704760000000 1.0
C      1  0.3979770000000  0.5250500000000  0.4642430000000 1.0
C      1  0.4799550000000  0.5250500000000  0.3937670000000 1.0
C      1  0.5819780000000  0.5250500000000  0.4295240000000 1.0
C      1  0.6020230000000  0.5250500000000  0.5357570000000 1.0
C      1  0.5200450000000  0.5250500000000  0.6062330000000 1.0
C      1  0.5819780000000  0.4745640000000  0.5704760000000 1.0
C      1  0.6020230000000  0.4745640000000  0.4642430000000 1.0
C      1  0.5200450000000  0.4745640000000  0.3937670000000 1.0
C      1  0.4180220000000  0.4745640000000  0.4295240000000 1.0
C      1  0.3979770000000  0.4745640000000  0.5357570000000 1.0
C      1  0.4799550000000  0.4745640000000  0.6062330000000 1.0
C      1  0.5248460000000  0.5949740000000  0.5191650000000 1.0
C      1  0.4958250000000  0.5949740000000  0.5311000000000 1.0
C      1  0.4709790000000  0.5949740000000  0.5119350000000 1.0
C      1  0.4751540000000  0.5949740000000  0.4808350000000 1.0
C      1  0.5041750000000  0.5949740000000  0.4689000000000 1.0
C      1  0.5290210000000  0.5949740000000  0.4880650000000 1.0
C      1  0.4751540000000  0.4046400000000  0.5191650000000 1.0
C      1  0.5041750000000  0.4046400000000  0.5311000000000 1.0
C      1  0.5290210000000  0.4046400000000  0.5119350000000 1.0
C      1  0.5248460000000  0.4046400000000  0.4808350000000 1.0
C      1  0.4958250000000  0.4046400000000  0.4689000000000 1.0
C      1  0.4709790000000  0.4046400000000  0.4880650000000 1.0
C      1  0.5083020000000  0.4664720000000  0.5553900000000 1.0
C      1  0.4561820000000  0.4664720000000  0.5348850000000 1.0
C      1  0.4478790000000  0.4664720000000  0.4794950000000 1.0
C      1  0.4916980000000  0.4664720000000  0.4446100000000 1.0
C      1  0.5438180000000  0.4664720000000  0.4651150000000 1.0
C      1  0.5521210000000  0.4664720000000  0.5205050000000 1.0
C      1  0.4916980000000  0.5331420000000  0.5553900000000 1.0
C      1  0.5438180000000  0.5331420000000  0.5348850000000 1.0
C      1  0.5521210000000  0.5331420000000  0.4794950000000 1.0
C      1  0.5083020000000  0.5331420000000  0.4446100000000 1.0
C      1  0.4561820000000  0.5331420000000  0.4651150000000 1.0
C      1  0.4478790000000  0.5331420000000  0.5205050000000 1.0
C      1  0.4157990000000  0.5343360000000  0.4415790000000 1.0
C      1  0.5084940000000  0.5343360000000  0.3978690000000 1.0
C      1  0.5926950000000  0.5343360000000  0.4562910000000 1.0
C      1  0.5842010000000  0.5343360000000  0.5584210000000 1.0
C      1  0.4915060000000  0.5343360000000  0.6021310000000 1.0
C      1  0.4073050000000  0.5343360000000  0.5437090000000 1.0
C      1  0.5842010000000  0.4652780000000  0.4415790000000 1.0
C      1  0.4915060000000  0.4652780000000  0.3978690000000 1.0
C      1  0.4073050000000  0.4652780000000  0.4562910000000 1.0
C      1  0.4157990000000  0.4652780000000  0.5584210000000 1.0
C      1  0.5084940000000  0.4652780000000  0.6021310000000 1.0
C      1  0.5926950000000  0.4652780000000  0.5437090000000 1.0
C      1  0.4868270000000  0.4881210000000  0.5671540000000 1.0
C      1  0.4352570000000  0.4881210000000  0.5221680000000 1.0
C      1  0.4484300000000  0.4881210000000  0.4550150000000 1.0
C      1  0.5131730000000  0.4881210000000  0.4328460000000 1.0
C      1  0.5647430000000  0.4881210000000  0.4778320000000 1.0
C      1  0.5515700000000  0.4881210000000  0.5449850000000 1.0
C      1  0.5131730000000  0.5114930000000  0.5671540000000 1.0
C      1  0.5647430000000  0.5114930000000  0.5221680000000 1.0
C      1  0.5515700000000  0.5114930000000  0.4550150000000 1.0
C      1  0.4868270000000  0.5114930000000  0.4328460000000 1.0
C      1  0.4352570000000  0.5114930000000  0.4778320000000 1.0
C      1  0.4484300000000  0.5114930000000  0.5449850000000 1.0
C      1  0.5960900000000  0.4929150000000  0.5256240000000 1.0
C      1  0.5258540000000  0.4929150000000  0.5960280000000 1.0
C      1  0.4297650000000  0.4929150000000  0.5704040000000 1.0
C      1  0.4039100000000  0.4929150000000  0.4743760000000 1.0
C      1  0.4741460000000  0.4929150000000  0.4039720000000 1.0
C      1  0.5702350000000  0.4929150000000  0.4295960000000 1.0
C      1  0.4039100000000  0.5066990000000  0.5256240000000 1.0
C      1  0.4741460000000  0.5066990000000  0.5960280000000 1.0
C      1  0.5702350000000  0.5066990000000  0.5704040000000 1.0
C      1  0.5960900000000  0.5066990000000  0.4743760000000 1.0
C      1  0.5258540000000  0.5066990000000  0.4039720000000 1.0
C      1  0.4297650000000  0.5066990000000  0.4295960000000 1.0
C      1  0.5439390000000  0.5777040000000  0.5566160000000 1.0
C      1  0.4729380000000  0.5777040000000  0.5663600000000 1.0
C      1  0.4289990000000  0.5777040000000  0.5097440000000 1.0
C      1  0.4560610000000  0.5777040000000  0.4433840000000 1.0
C      1  0.5270620000000  0.5777040000000  0.4336400000000 1.0
C      1  0.5710010000000  0.5777040000000  0.4902560000000 1.0
C      1  0.4560610000000  0.4219100000000  0.5566160000000 1.0
C      1  0.5270620000000  0.4219100000000  0.5663600000000 1.0
C      1  0.5710010000000  0.4219100000000  0.5097440000000 1.0
C      1  0.5439390000000  0.4219100000000  0.4433840000000 1.0
C      1  0.4729380000000  0.4219100000000  0.4336400000000 1.0
C      1  0.4289990000000  0.4219100000000  0.4902560000000 1.0
C      1  0.5376040000000  0.4577900000000  0.4116910000000 1.0
C      1  0.5952800000000  0.4577900000000  0.4884110000000 1.0
C      1  0.5576760000000  0.4577900000000  0.5767200000000 1.0
C      1  0.4623960000000  0.4577900000000  0.5883090000000 1.0
C      1  0.4047200000000  0.4577900000000  0.5115890000000 1.0
C      1  0.4423240000000  0.4577900000000  0.4232800000000 1.0
C      1  0.4623960000000  0.5418240000000  0.4116910000000 1.0
C      1  0.4047200000000  0.5418240000000  0.4884110000000 1.0
C      1  0.4423240000000  0.5418240000000  0.5767200000000 1.0
C      1  0.5376040000000  0.5418240000000  0.5883090000000 1.0
C      1  0.5952800000000  0.5418240000000  0.5115890000000 1.0
C      1  0.5576760000000  0.5418240000000  0.4232800000000 1.0
C      1  0.3878720000000  0.4998070000000  0.5000000000000 1.0
C      1  0.6121280000000  0.4998070000000  0.5000000000000 1.0
C      1  0.5560640000000  0.4998070000000  0.5971060000000 1.0
C      1  0.4439360000000  0.4998070000000  0.5971060000000 1.0
C      1  0.5560640000000  0.4998070000000  0.4028940000000 1.0
C      1  0.4439360000000  0.4998070000000  0.4028940000000 1.0
END
