TITL C-862501-1041-455 0.00989697406227666 125000 -741.812804393941 0 0 131 (C3) n - 1
REM
REM in /home/nfs/bkarasulu/CARBON/AIRSS/Generating-Clusters/TERSOFF/Higher-Symm/FIRE-HFTN
REM
REM
REM
REM
REM
REM ./C.cell (b20cbc046b6831c77cfcea5457e17084)
REM AIRSS Version 0.9.1 bugfix July 2018 build 013d7b7c2542+ Fri, 06 Jul 2018 19:26:36 +0100
REM compiler GCC version 9.2.1 20190827 (Red Hat 9.2.1-1)
REM options -cpp -mtune=generic -march=x86-64 -g -O0 -fpre-include=/usr/include/finclude/math-vector-fortran.h
REM seed 1349389977 -1496302949 1046055795 -1922410291 1591826818 2109367851 -14667551 -1757117146 -29403788 -1256214843 -1408483739 -436781484 -2028124166 1569141610 1914207391 -162220588 633883478 519014096 2105640644 -1525168179 -1742823117 191406917 -1435174224 -275998689 -1679940830 1144939377 -1868997873 -896242990 878699030 -74590590 1516346849 681988378 -1639577829
REM
CELL 1.54180   50.00000   50.00000   50.00000   90.00000   90.00000   90.00000
LATT -1
SFAC C  
C      1  0.5111550000000  0.4081550000000  0.4664980000000 1.0
C      1  0.5233010000000  0.4081550000000  0.5263340000000 1.0
C      1  0.4654090000000  0.4081550000000  0.5069350000000 1.0
C      1  0.5998190000000  0.4822750000000  0.5106530000000 1.0
C      1  0.4407310000000  0.4822770000000  0.5810410000000 1.0
C      1  0.4593170000000  0.4822760000000  0.4080730000000 1.0
C      1  0.4569440000000  0.4622720000000  0.5347260000000 1.0
C      1  0.4913200000000  0.4622720000000  0.4452720000000 1.0
C      1  0.5516020000000  0.4622720000000  0.5197700000000 1.0
C      1  0.5884600000000  0.5487470000000  0.4590350000000 1.0
C      1  0.4911130000000  0.5487480000000  0.5970130000000 1.0
C      1  0.4202950000000  0.5487480000000  0.4437190000000 1.0
C      1  0.5194850000000  0.5254230000000  0.5250240000000 1.0
C      1  0.4684530000000  0.5254230000000  0.5042840000000 1.0
C      1  0.5119300000000  0.5254230000000  0.4704590000000 1.0
C      1  0.5228330000000  0.5080060000000  0.5692260000000 1.0
C      1  0.4284990000000  0.5080070000000  0.4850830000000 1.0
C      1  0.5485360000000  0.5080060000000  0.4454590000000 1.0
C      1  0.4961960000000  0.5181060000000  0.5912390000000 1.0
C      1  0.4227540000000  0.5181070000000  0.4510090000000 1.0
C      1  0.5809180000000  0.5181050000000  0.4575200000000 1.0
C      1  0.4205020000000  0.4629030000000  0.4915010000000 1.0
C      1  0.5469760000000  0.4629010000000  0.4353250000000 1.0
C      1  0.5323890000000  0.4629020000000  0.5729420000000 1.0
C      1  0.5090050000000  0.4648450000000  0.4073150000000 1.0
C      1  0.5756310000000  0.4648450000000  0.5540630000000 1.0
C      1  0.4152300000000  0.4648460000000  0.5383890000000 1.0
C      1  0.4814910000000  0.4319410000000  0.5501880000000 1.0
C      1  0.4656560000000  0.4319410000000  0.4587990000000 1.0
C      1  0.5527180000000  0.4319410000000  0.4907800000000 1.0
C      1  0.5737640000000  0.4700610000000  0.4440840000000 1.0
C      1  0.5114080000000  0.4700610000000  0.5917620000000 1.0
C      1  0.4146940000000  0.4700620000000  0.4639210000000 1.0
C      1  0.5289520000000  0.4989340000000  0.4643360000000 1.0
C      1  0.5162760000000  0.4989340000000  0.5428270000000 1.0
C      1  0.4546390000000  0.4989340000000  0.4926040000000 1.0
C      1  0.4660730000000  0.5275760000000  0.4531210000000 1.0
C      1  0.5574290000000  0.5275750000000  0.4939800000000 1.0
C      1  0.4763660000000  0.5275760000000  0.5526670000000 1.0
C      1  0.4271920000000  0.5523090000000  0.4849800000000 1.0
C      1  0.5492790000000  0.5523080000000  0.4443780000000 1.0
C      1  0.5233970000000  0.5523090000000  0.5704090000000 1.0
C      1  0.5356720000000  0.4334250000000  0.5643010000000 1.0
C      1  0.4263430000000  0.4334260000000  0.4986650000000 1.0
C      1  0.5378510000000  0.4334250000000  0.4368020000000 1.0
C      1  0.4996470000000  0.4549290000000  0.5316010000000 1.0
C      1  0.4726750000000  0.4549290000000  0.4838160000000 1.0
C      1  0.5275440000000  0.4549280000000  0.4843500000000 1.0
C      1  0.5035830000000  0.5148290000000  0.4213320000000 1.0
C      1  0.5662030000000  0.5148290000000  0.5423590000000 1.0
C      1  0.4300810000000  0.5148300000000  0.5360760000000 1.0
C      1  0.5094730000000  0.4327770000000  0.4218830000000 1.0
C      1  0.5627800000000  0.4327770000000  0.5471850000000 1.0
C      1  0.4276120000000  0.4327780000000  0.5307000000000 1.0
C      1  0.4458260000000  0.5875020000000  0.4716860000000 1.0
C      1  0.5514750000000  0.5875010000000  0.4671620000000 1.0
C      1  0.5025680000000  0.5875020000000  0.5609190000000 1.0
C      1  0.5870170000000  0.4953880000000  0.4345340000000 1.0
C      1  0.5130530000000  0.4953890000000  0.6080140000000 1.0
C      1  0.3997970000000  0.4953900000000  0.4572200000000 1.0
C      1  0.4916690000000  0.4200420000000  0.4477870000000 1.0
C      1  0.5492490000000  0.4200420000000  0.5188150000000 1.0
C      1  0.4589470000000  0.4200430000000  0.5331660000000 1.0
C      1  0.5795010000000  0.4675640000000  0.4726520000000 1.0
C      1  0.4838000000000  0.4675650000000  0.5824470000000 1.0
C      1  0.4365650000000  0.4675660000000  0.4446700000000 1.0
C      1  0.4294430000000  0.4879450000000  0.5533810000000 1.0
C      1  0.4889160000000  0.4879440000000  0.4121270000000 1.0
C      1  0.5815080000000  0.4879440000000  0.5342600000000 1.0
C      1  0.4499870000000  0.4187910000000  0.4841870000000 1.0
C      1  0.5385660000000  0.4187900000000  0.4645170000000 1.0
C      1  0.5113120000000  0.4187900000000  0.5510640000000 1.0
C      1  0.5393900000000  0.5405060000000  0.4704190000000 1.0
C      1  0.5057900000000  0.5405070000000  0.5488250000000 1.0
C      1  0.4546890000000  0.5405070000000  0.4805240000000 1.0
C      1  0.4060300000000  0.5398430000000  0.5006880000000 1.0
C      1  0.5462560000000  0.5398410000000  0.4181970000000 1.0
C      1  0.5475830000000  0.5398410000000  0.5808820000000 1.0
C      1  0.4712340000000  0.5890920000000  0.4861400000000 1.0
C      1  0.5262530000000  0.5890910000000  0.4819390000000 1.0
C      1  0.5023820000000  0.5890910000000  0.5316880000000 1.0
C      1  0.5350780000000  0.5112190000000  0.4165300000000 1.0
C      1  0.5546140000000  0.5112190000000  0.5720360000000 1.0
C      1  0.4101750000000  0.5112210000000  0.5112020000000 1.0
C      1  0.4556920000000  0.5704690000000  0.5636120000000 1.0
C      1  0.4669310000000  0.5704690000000  0.4297430000000 1.0
C      1  0.5772460000000  0.5704680000000  0.5064120000000 1.0
C      1  0.5271760000000  0.4686360000000  0.5403170000000 1.0
C      1  0.4513630000000  0.4686370000000  0.5032990000000 1.0
C      1  0.5213280000000  0.4686360000000  0.4561520000000 1.0
C      1  0.5959580000000  0.4937630000000  0.4797180000000 1.0
C      1  0.4694530000000  0.4937640000000  0.5931650000000 1.0
C      1  0.4344570000000  0.4937640000000  0.4268850000000 1.0
C      1  0.4560960000000  0.5329770000000  0.5306390000000 1.0
C      1  0.4952850000000  0.5329770000000  0.4465800000000 1.0
C      1  0.5484870000000  0.5329760000000  0.5225480000000 1.0
C      1  0.5360000000000  0.4785330000000  0.4116360000000 1.0
C      1  0.5583920000000  0.4785330000000  0.5752810000000 1.0
C      1  0.4054750000000  0.4785350000000  0.5128510000000 1.0
C      1  0.5270280000000  0.5790960000000  0.5125740000000 1.0
C      1  0.4754640000000  0.5790970000000  0.5170410000000 1.0
C      1  0.4973780000000  0.5790970000000  0.4701520000000 1.0
C      1  0.4468070000000  0.4405780000000  0.4361360000000 1.0
C      1  0.5817700000000  0.4405770000000  0.4857890000000 1.0
C      1  0.4712880000000  0.4405780000000  0.5778440000000 1.0
C      1  0.5607330000000  0.4778030000000  0.4960630000000 1.0
C      1  0.4729100000000  0.4778040000000  0.5544870000000 1.0
C      1  0.4662240000000  0.4778040000000  0.4492180000000 1.0
C      1  0.4924140000000  0.5639040000000  0.4445770000000 1.0
C      1  0.5516580000000  0.5639030000000  0.5210640000000 1.0
C      1  0.4557960000000  0.5639040000000  0.5341270000000 1.0
C      1  0.5193080000000  0.4817580000000  0.5013360000000 1.0
C      1  0.4890560000000  0.4817580000000  0.5159750000000 1.0
C      1  0.4915030000000  0.4817580000000  0.4824570000000 1.0
C      1  0.4701330000000  0.5000830000000  0.4665360000000 1.0
C      1  0.5437810000000  0.5000820000000  0.4907880000000 1.0
C      1  0.4859540000000  0.5000830000000  0.5424430000000 1.0
C      1  0.4386790000000  0.5525250000000  0.5799800000000 1.0
C      1  0.4612630000000  0.5525240000000  0.4068260000000 1.0
C      1  0.5999270000000  0.5525230000000  0.5129610000000 1.0
C      1  0.5874470000000  0.5308270000000  0.4970020000000 1.0
C      1  0.4587400000000  0.5308280000000  0.5771520000000 1.0
C      1  0.4536810000000  0.5308280000000  0.4256130000000 1.0
C      1  0.4437640000000  0.4521040000000  0.5833770000000 1.0
C      1  0.4557770000000  0.4521040000000  0.4095320000000 1.0
C      1  0.6003240000000  0.4521030000000  0.5068590000000 1.0
C      1  0.4427320000000  0.5709270000000  0.4473920000000 1.0
C      1  0.5740610000000  0.5709260000000  0.4766300000000 1.0
C      1  0.4830760000000  0.5709270000000  0.5757460000000 1.0
C      1  0.4999560000000  0.5617760000000  0.4999220000000 1.0
C      1  0.4999560000000  0.5312050000000  0.4999220000000 1.0
END
