TITL C-862131-2149-965 0.392951623631881 125000 -1051.76003186102 0 0 182 (C1) n - 1
REM
REM in /home/nfs/bkarasulu/CARBON/AIRSS/Generating-Clusters/TERSOFF/Higher-Symm/FIRE-HFTN
REM
REM
REM
REM
REM
REM ./C.cell (b20cbc046b6831c77cfcea5457e17084)
REM AIRSS Version 0.9.1 bugfix July 2018 build 013d7b7c2542+ Fri, 06 Jul 2018 19:26:36 +0100
REM compiler GCC version 9.2.1 20190827 (Red Hat 9.2.1-1)
REM options -cpp -mtune=generic -march=x86-64 -g -O0 -fpre-include=/usr/include/finclude/math-vector-fortran.h
REM seed 108912184 1940879136 2047223992 159941927 -1948026451 -338623463 1862531253 -1855386269 81716976 -1924932796 1264806913 -1706943832 1158091637 -1468159962 -1218947704 41155524 -312104087 2029072981 4711772 -1287599831 -1579456710 603581640 1545121050 1410599053 1969918636 1739704017 -1542649634 962282401 808862884 -535232927 -475201495 -1688876184 223741706
REM
CELL 1.54180   50.00000   50.00000   50.00000   90.00000   90.00000   90.00000
LATT -1
SFAC C  
C      1  0.5777220000000  0.4277860000000  0.4688700000000 1.0
C      1  0.4606300000000  0.5388190000000  0.5330010000000 1.0
C      1  0.5381370000000  0.4008860000000  0.5545180000000 1.0
C      1  0.5165200000000  0.5967440000000  0.5656050000000 1.0
C      1  0.4984130000000  0.5071830000000  0.5044800000000 1.0
C      1  0.5975060000000  0.5516590000000  0.5358410000000 1.0
C      1  0.5821460000000  0.4675360000000  0.4474720000000 1.0
C      1  0.5233520000000  0.4973480000000  0.5533030000000 1.0
C      1  0.5852600000000  0.5057310000000  0.5378700000000 1.0
C      1  0.4371520000000  0.4739700000000  0.4479620000000 1.0
C      1  0.5126760000000  0.5307590000000  0.5966180000000 1.0
C      1  0.3914510000000  0.4348500000000  0.4543090000000 1.0
C      1  0.5400740000000  0.5398350000000  0.4954750000000 1.0
C      1  0.5391910000000  0.5996590000000  0.5459130000000 1.0
C      1  0.5173440000000  0.4727680000000  0.5724800000000 1.0
C      1  0.4874550000000  0.4743760000000  0.4552750000000 1.0
C      1  0.4837840000000  0.5287640000000  0.3873820000000 1.0
C      1  0.4485870000000  0.6102100000000  0.4837740000000 1.0
C      1  0.4747170000000  0.5311710000000  0.4341340000000 1.0
C      1  0.5308010000000  0.5708440000000  0.5027260000000 1.0
C      1  0.5278800000000  0.4360290000000  0.4934700000000 1.0
C      1  0.5842010000000  0.5204050000000  0.5801170000000 1.0
C      1  0.4918510000000  0.5084430000000  0.5999010000000 1.0
C      1  0.4846290000000  0.5829870000000  0.5219620000000 1.0
C      1  0.6003090000000  0.4814090000000  0.5373830000000 1.0
C      1  0.4335420000000  0.4243120000000  0.5173680000000 1.0
C      1  0.5437950000000  0.4842340000000  0.5189630000000 1.0
C      1  0.5557640000000  0.4633540000000  0.5369710000000 1.0
C      1  0.4902540000000  0.5915990000000  0.5549260000000 1.0
C      1  0.3934260000000  0.5222210000000  0.4390020000000 1.0
C      1  0.5483670000000  0.5990270000000  0.4362010000000 1.0
C      1  0.3874950000000  0.5467730000000  0.4534350000000 1.0
C      1  0.5869930000000  0.4558300000000  0.5050030000000 1.0
C      1  0.4190190000000  0.4899150000000  0.4657850000000 1.0
C      1  0.4879480000000  0.5244110000000  0.5270440000000 1.0
C      1  0.5636860000000  0.5539520000000  0.4424240000000 1.0
C      1  0.5902880000000  0.4404370000000  0.5303590000000 1.0
C      1  0.5398310000000  0.5245290000000  0.6033840000000 1.0
C      1  0.5635000000000  0.4934110000000  0.4202050000000 1.0
C      1  0.5094040000000  0.4926220000000  0.4142350000000 1.0
C      1  0.4046990000000  0.4420400000000  0.4292860000000 1.0
C      1  0.4817450000000  0.5012890000000  0.4786750000000 1.0
C      1  0.4546640000000  0.4973470000000  0.5672080000000 1.0
C      1  0.4411940000000  0.5768910000000  0.4339420000000 1.0
C      1  0.5982000000000  0.5265870000000  0.5526520000000 1.0
C      1  0.4353200000000  0.5648540000000  0.4614810000000 1.0
C      1  0.4360840000000  0.4965150000000  0.5920880000000 1.0
C      1  0.5439680000000  0.5323690000000  0.4470060000000 1.0
C      1  0.5803550000000  0.4139280000000  0.5336690000000 1.0
C      1  0.4678340000000  0.4737110000000  0.5228460000000 1.0
C      1  0.5683860000000  0.4903640000000  0.5866520000000 1.0
C      1  0.5146880000000  0.4807200000000  0.6024520000000 1.0
C      1  0.4494830000000  0.4733140000000  0.6064110000000 1.0
C      1  0.5031400000000  0.5681290000000  0.4186730000000 1.0
C      1  0.5117310000000  0.5521780000000  0.5763700000000 1.0
C      1  0.4190870000000  0.4525360000000  0.5620350000000 1.0
C      1  0.5104740000000  0.5174720000000  0.3948560000000 1.0
C      1  0.4323890000000  0.5108620000000  0.4791060000000 1.0
C      1  0.4395710000000  0.5438190000000  0.5133800000000 1.0
C      1  0.5540960000000  0.5722480000000  0.5869760000000 1.0
C      1  0.4710070000000  0.5459540000000  0.5841450000000 1.0
C      1  0.5354440000000  0.4659860000000  0.3923400000000 1.0
C      1  0.5342820000000  0.5339870000000  0.4005680000000 1.0
C      1  0.5485020000000  0.6066810000000  0.5154830000000 1.0
C      1  0.5860530000000  0.5596270000000  0.4609980000000 1.0
C      1  0.5591330000000  0.3923860000000  0.5001890000000 1.0
C      1  0.4504140000000  0.5601060000000  0.4119410000000 1.0
C      1  0.5623750000000  0.4722980000000  0.4964890000000 1.0
C      1  0.5160760000000  0.3653630000000  0.4962900000000 1.0
C      1  0.5720730000000  0.5667670000000  0.5405050000000 1.0
C      1  0.4757700000000  0.5729740000000  0.5944280000000 1.0
C      1  0.4993460000000  0.4467140000000  0.4935500000000 1.0
C      1  0.4483200000000  0.4818780000000  0.5431170000000 1.0
C      1  0.5078980000000  0.5103180000000  0.4636890000000 1.0
C      1  0.5307760000000  0.5617080000000  0.4084400000000 1.0
C      1  0.5078260000000  0.4533320000000  0.4530070000000 1.0
C      1  0.4365290000000  0.4989480000000  0.4228490000000 1.0
C      1  0.3960590000000  0.5176190000000  0.5106760000000 1.0
C      1  0.4823200000000  0.4144420000000  0.4303130000000 1.0
C      1  0.5024170000000  0.5822220000000  0.4455860000000 1.0
C      1  0.5386460000000  0.4515660000000  0.5733260000000 1.0
C      1  0.5524090000000  0.4059330000000  0.5275730000000 1.0
C      1  0.3846710000000  0.5442880000000  0.5193080000000 1.0
C      1  0.5719670000000  0.4472770000000  0.4269630000000 1.0
C      1  0.5601530000000  0.5406340000000  0.5876260000000 1.0
C      1  0.5686420000000  0.5842010000000  0.5152680000000 1.0
C      1  0.4807380000000  0.6026610000000  0.4486670000000 1.0
C      1  0.4666450000000  0.4108190000000  0.4763690000000 1.0
C      1  0.5434770000000  0.4506230000000  0.4167230000000 1.0
C      1  0.4439160000000  0.5748910000000  0.5646050000000 1.0
C      1  0.4643270000000  0.5050820000000  0.4317840000000 1.0
C      1  0.4142410000000  0.4824960000000  0.5716350000000 1.0
C      1  0.4811000000000  0.5070170000000  0.5721240000000 1.0
C      1  0.4545870000000  0.6135200000000  0.5520410000000 1.0
C      1  0.4061770000000  0.5607020000000  0.4708680000000 1.0
C      1  0.5378750000000  0.3813060000000  0.4521780000000 1.0
C      1  0.5307840000000  0.5289750000000  0.5247470000000 1.0
C      1  0.4814650000000  0.4819860000000  0.4279930000000 1.0
C      1  0.6104110000000  0.4656120000000  0.4891200000000 1.0
C      1  0.5055630000000  0.4245090000000  0.5899180000000 1.0
C      1  0.4757470000000  0.4963780000000  0.3843370000000 1.0
C      1  0.5441960000000  0.4953730000000  0.6051560000000 1.0
C      1  0.4867870000000  0.4654280000000  0.5707560000000 1.0
C      1  0.5170370000000  0.5500070000000  0.5448780000000 1.0
C      1  0.4584700000000  0.5203960000000  0.4721670000000 1.0
C      1  0.4751420000000  0.4386620000000  0.4773830000000 1.0
C      1  0.4986810000000  0.5128290000000  0.5514270000000 1.0
C      1  0.5917550000000  0.5507610000000  0.5047670000000 1.0
C      1  0.5521760000000  0.5090610000000  0.5384330000000 1.0
C      1  0.5387800000000  0.3790760000000  0.4836130000000 1.0
C      1  0.4401470000000  0.5968150000000  0.5079710000000 1.0
C      1  0.4823470000000  0.5646160000000  0.4908890000000 1.0
C      1  0.4728380000000  0.3957120000000  0.4517170000000 1.0
C      1  0.5717590000000  0.5318870000000  0.4932240000000 1.0
C      1  0.5230340000000  0.5359850000000  0.4690100000000 1.0
C      1  0.5539830000000  0.5739380000000  0.4232440000000 1.0
C      1  0.5310580000000  0.4225270000000  0.5746220000000 1.0
C      1  0.5491130000000  0.4037720000000  0.4350910000000 1.0
C      1  0.5305280000000  0.5997160000000  0.4862520000000 1.0
C      1  0.3972000000000  0.4760470000000  0.4784690000000 1.0
C      1  0.4910190000000  0.3609250000000  0.4825840000000 1.0
C      1  0.5263190000000  0.5983180000000  0.4544770000000 1.0
C      1  0.4339660000000  0.4488380000000  0.4309680000000 1.0
C      1  0.4449200000000  0.4038220000000  0.4945570000000 1.0
C      1  0.4684140000000  0.4563150000000  0.5935150000000 1.0
C      1  0.3990330000000  0.5658990000000  0.5007870000000 1.0
C      1  0.5061570000000  0.4282390000000  0.4362480000000 1.0
C      1  0.4154530000000  0.5188600000000  0.4202970000000 1.0
C      1  0.5620780000000  0.5989360000000  0.4764960000000 1.0
C      1  0.4574330000000  0.4304210000000  0.5898280000000 1.0
C      1  0.5057870000000  0.4766300000000  0.3863220000000 1.0
C      1  0.4480450000000  0.4036880000000  0.5375090000000 1.0
C      1  0.4567100000000  0.6009090000000  0.4335340000000 1.0
C      1  0.5840660000000  0.5777230000000  0.4874190000000 1.0
C      1  0.5243000000000  0.5772280000000  0.5862300000000 1.0
C      1  0.4648650000000  0.5960900000000  0.5753470000000 1.0
C      1  0.4511790000000  0.4582810000000  0.4768610000000 1.0
C      1  0.4427080000000  0.4240370000000  0.4445330000000 1.0
C      1  0.5011600000000  0.6138140000000  0.4928420000000 1.0
C      1  0.5039010000000  0.5619610000000  0.4695190000000 1.0
C      1  0.5813710000000  0.4053290000000  0.4868630000000 1.0
C      1  0.5372300000000  0.4299930000000  0.5198660000000 1.0
C      1  0.4746390000000  0.4068960000000  0.5502430000000 1.0
C      1  0.4617730000000  0.5133650000000  0.6088660000000 1.0
C      1  0.4582940000000  0.5502770000000  0.4763630000000 1.0
C      1  0.5575520000000  0.5407220000000  0.5548490000000 1.0
C      1  0.4150220000000  0.4448030000000  0.5337150000000 1.0
C      1  0.4513080000000  0.4844590000000  0.3973750000000 1.0
C      1  0.6087090000000  0.4954980000000  0.4859980000000 1.0
C      1  0.5631700000000  0.5863370000000  0.5619430000000 1.0
C      1  0.4770820000000  0.6125190000000  0.4748750000000 1.0
C      1  0.5062100000000  0.4492430000000  0.6103900000000 1.0
C      1  0.4602090000000  0.6012150000000  0.5265400000000 1.0
C      1  0.5653000000000  0.4854870000000  0.4682230000000 1.0
C      1  0.4592400000000  0.4577770000000  0.4124210000000 1.0
C      1  0.5251170000000  0.5748610000000  0.5308070000000 1.0
C      1  0.5825230000000  0.5082440000000  0.4785790000000 1.0
C      1  0.3898710000000  0.4949070000000  0.5274430000000 1.0
C      1  0.4788060000000  0.4146600000000  0.5783350000000 1.0
C      1  0.4663170000000  0.4278930000000  0.4100140000000 1.0
C      1  0.4280100000000  0.4419950000000  0.4900030000000 1.0
C      1  0.5366810000000  0.4588560000000  0.4481850000000 1.0
C      1  0.4297960000000  0.4314800000000  0.5801750000000 1.0
C      1  0.4956040000000  0.4676170000000  0.5297540000000 1.0
C      1  0.5673090000000  0.4651440000000  0.5683670000000 1.0
C      1  0.5397160000000  0.5104790000000  0.4241420000000 1.0
C      1  0.4633970000000  0.4793030000000  0.4940690000000 1.0
C      1  0.4263400000000  0.5706520000000  0.5100400000000 1.0
C      1  0.5739110000000  0.4192780000000  0.4400480000000 1.0
C      1  0.3938350000000  0.4998100000000  0.5565210000000 1.0
C      1  0.5939340000000  0.4578470000000  0.5535300000000 1.0
C      1  0.5480710000000  0.4421550000000  0.4710450000000 1.0
C      1  0.5306440000000  0.4227580000000  0.4221480000000 1.0
C      1  0.3913630000000  0.5320450000000  0.5505600000000 1.0
C      1  0.4234160000000  0.5215060000000  0.5027380000000 1.0
C      1  0.4533290000000  0.5471130000000  0.5603350000000 1.0
C      1  0.3998530000000  0.4471580000000  0.4798510000000 1.0
C      1  0.5999870000000  0.4506610000000  0.4654000000000 1.0
C      1  0.4877930000000  0.3705660000000  0.4552230000000 1.0
C      1  0.5144790000000  0.4838880000000  0.5145220000000 1.0
C      1  0.4784420000000  0.5490220000000  0.4108650000000 1.0
C      1  0.5134360000000  0.3688890000000  0.4411380000000 1.0
END
