TITL C-862503-991-440 -0.029808895959378 125000 -595.283148592492 0 0 101 (C1) n - 1
REM
REM in /home/nfs/bkarasulu/CARBON/AIRSS/Generating-Clusters/TERSOFF/Higher-Symm/FIRE-HFTN
REM
REM
REM
REM
REM
REM ./C.cell (b20cbc046b6831c77cfcea5457e17084)
REM AIRSS Version 0.9.1 bugfix July 2018 build 013d7b7c2542+ Fri, 06 Jul 2018 19:26:36 +0100
REM compiler GCC version 9.2.1 20190827 (Red Hat 9.2.1-1)
REM options -cpp -mtune=generic -march=x86-64 -g -O0 -fpre-include=/usr/include/finclude/math-vector-fortran.h
REM seed 323713853 2110862439 -1576809901 -1095860402 -1070680835 604632553 1932233910 1072496394 -1826825749 2077929895 -851258917 -990540262 -1332007087 -1961430578 843626706 -1067439954 -303932617 -1349013824 67547584 -8796111 1851448089 -2062571214 51834108 1410645506 1027033631 -19671376 -1308612370 -995452569 -330679670 -184720958 908647041 -1731286723 225402622
REM
CELL 1.54180   50.00000   50.00000   50.00000   90.00000   90.00000   90.00000
LATT -1
SFAC C  
C      1  0.5399830000000  0.4793600000000  0.4339380000000 1.0
C      1  0.4626430000000  0.4731880000000  0.4336830000000 1.0
C      1  0.4960590000000  0.5411810000000  0.4374560000000 1.0
C      1  0.4948360000000  0.4692660000000  0.5719700000000 1.0
C      1  0.4740730000000  0.5203220000000  0.5733620000000 1.0
C      1  0.5299950000000  0.5114590000000  0.5730060000000 1.0
C      1  0.4808470000000  0.5425980000000  0.4847750000000 1.0
C      1  0.5446450000000  0.4925870000000  0.4774150000000 1.0
C      1  0.4709840000000  0.4650860000000  0.4763100000000 1.0
C      1  0.5355210000000  0.4360310000000  0.5697190000000 1.0
C      1  0.4255740000000  0.4995150000000  0.5690360000000 1.0
C      1  0.5373940000000  0.5630280000000  0.5712960000000 1.0
C      1  0.4994190000000  0.5758340000000  0.5428010000000 1.0
C      1  0.5614150000000  0.4662890000000  0.5409050000000 1.0
C      1  0.4396800000000  0.4632680000000  0.5393560000000 1.0
C      1  0.4700140000000  0.5566280000000  0.5078310000000 1.0
C      1  0.5582380000000  0.4981910000000  0.5034250000000 1.0
C      1  0.4715850000000  0.4515800000000  0.5032110000000 1.0
C      1  0.5515330000000  0.4521500000000  0.4972600000000 1.0
C      1  0.4347120000000  0.4800210000000  0.4978930000000 1.0
C      1  0.5144550000000  0.5733720000000  0.5007600000000 1.0
C      1  0.4969620000000  0.4086940000000  0.4901570000000 1.0
C      1  0.4220850000000  0.5484360000000  0.4899200000000 1.0
C      1  0.5796670000000  0.5415460000000  0.4905150000000 1.0
C      1  0.4670760000000  0.4647460000000  0.5282090000000 1.0
C      1  0.4822430000000  0.5533350000000  0.5333890000000 1.0
C      1  0.5483470000000  0.4901860000000  0.5289450000000 1.0
C      1  0.4533290000000  0.4523760000000  0.4538270000000 1.0
C      1  0.4834290000000  0.5585990000000  0.4577660000000 1.0
C      1  0.5625020000000  0.4817350000000  0.4541100000000 1.0
C      1  0.5815200000000  0.5070070000000  0.4525850000000 1.0
C      1  0.4655240000000  0.4236730000000  0.4526350000000 1.0
C      1  0.4531560000000  0.5653460000000  0.4537080000000 1.0
C      1  0.5282830000000  0.5081510000000  0.5416260000000 1.0
C      1  0.4918730000000  0.4758320000000  0.5413370000000 1.0
C      1  0.4818670000000  0.5237220000000  0.5427300000000 1.0
C      1  0.4229810000000  0.4515900000000  0.4628280000000 1.0
C      1  0.4969330000000  0.5859810000000  0.4641100000000 1.0
C      1  0.5790360000000  0.4566130000000  0.4626510000000 1.0
C      1  0.4360000000000  0.5303980000000  0.5353870000000 1.0
C      1  0.5579970000000  0.5461030000000  0.5372740000000 1.0
C      1  0.5069570000000  0.4307340000000  0.5356560000000 1.0
C      1  0.5875930000000  0.4933150000000  0.4998080000000 1.0
C      1  0.4528950000000  0.4282770000000  0.4998590000000 1.0
C      1  0.4589050000000  0.5831260000000  0.5003360000000 1.0
C      1  0.5906050000000  0.5153530000000  0.4797950000000 1.0
C      1  0.4687100000000  0.4126480000000  0.4801000000000 1.0
C      1  0.4398660000000  0.5709710000000  0.4796360000000 1.0
C      1  0.5430530000000  0.5793840000000  0.4879000000000 1.0
C      1  0.5468260000000  0.4235440000000  0.4872190000000 1.0
C      1  0.4113030000000  0.4969080000000  0.4877370000000 1.0
C      1  0.5730680000000  0.5293870000000  0.4363960000000 1.0
C      1  0.4887250000000  0.4193690000000  0.4359820000000 1.0
C      1  0.4378050000000  0.5482460000000  0.4363330000000 1.0
C      1  0.4033870000000  0.4972070000000  0.5199660000000 1.0
C      1  0.5483980000000  0.5843790000000  0.5228960000000 1.0
C      1  0.5501240000000  0.4174050000000  0.5207990000000 1.0
C      1  0.5494930000000  0.4391130000000  0.5432400000000 1.0
C      1  0.4211910000000  0.4860780000000  0.5425830000000 1.0
C      1  0.5289100000000  0.5753140000000  0.5453100000000 1.0
C      1  0.5006560000000  0.4074210000000  0.5193880000000 1.0
C      1  0.4181580000000  0.5464250000000  0.5190580000000 1.0
C      1  0.5812410000000  0.5464890000000  0.5195970000000 1.0
C      1  0.4207210000000  0.5222340000000  0.4741480000000 1.0
C      1  0.5580250000000  0.5557660000000  0.4751540000000 1.0
C      1  0.5198370000000  0.4197300000000  0.4740730000000 1.0
C      1  0.5261290000000  0.4653370000000  0.5034510000000 1.0
C      1  0.4583780000000  0.4972950000000  0.5032070000000 1.0
C      1  0.5152250000000  0.5452540000000  0.5087430000000 1.0
C      1  0.4047920000000  0.4754680000000  0.4664570000000 1.0
C      1  0.5260460000000  0.5903830000000  0.4641550000000 1.0
C      1  0.5678690000000  0.4290570000000  0.4653760000000 1.0
C      1  0.5082240000000  0.4571370000000  0.5246470000000 1.0
C      1  0.4590730000000  0.5186330000000  0.5234470000000 1.0
C      1  0.5333000000000  0.5338870000000  0.5283250000000 1.0
C      1  0.4722410000000  0.4896570000000  0.5825500000000 1.0
C      1  0.5044840000000  0.5283940000000  0.5834550000000 1.0
C      1  0.5222020000000  0.4817650000000  0.5824870000000 1.0
C      1  0.4911980000000  0.4715070000000  0.4218490000000 1.0
C      1  0.4803910000000  0.5190620000000  0.4236840000000 1.0
C      1  0.5272520000000  0.5048990000000  0.4227680000000 1.0
C      1  0.5157640000000  0.4590630000000  0.4360330000000 1.0
C      1  0.4570510000000  0.5042880000000  0.4366980000000 1.0
C      1  0.5255010000000  0.5314350000000  0.4383660000000 1.0
C      1  0.4312390000000  0.4487050000000  0.4920210000000 1.0
C      1  0.4878220000000  0.5914380000000  0.4925420000000 1.0
C      1  0.5807160000000  0.4646090000000  0.4920550000000 1.0
C      1  0.4858150000000  0.4896810000000  0.4693860000000 1.0
C      1  0.4926640000000  0.5163800000000  0.4882460000000 1.0
C      1  0.5188910000000  0.5043960000000  0.4698120000000 1.0
C      1  0.5510680000000  0.5456560000000  0.4468240000000 1.0
C      1  0.5142620000000  0.4300550000000  0.4455110000000 1.0
C      1  0.4328760000000  0.5210390000000  0.4457430000000 1.0
C      1  0.5047380000000  0.4349340000000  0.5662680000000 1.0
C      1  0.4392240000000  0.5266540000000  0.5656500000000 1.0
C      1  0.5549040000000  0.5372870000000  0.5681850000000 1.0
C      1  0.5135760000000  0.5559630000000  0.5874990000000 1.0
C      1  0.5414850000000  0.4600100000000  0.5863620000000 1.0
C      1  0.4438480000000  0.4827300000000  0.5855220000000 1.0
C      1  0.4995730000000  0.4988390000000  0.4128620000000 1.0
C      1  0.5006220000000  0.5027110000000  0.5364770000000 1.0
END
