TITL C-862503-991-1139 -33.0447703581362 125000 -547.369115150529 0 0 99 (C1) n - 1
REM
REM in /home/nfs/bkarasulu/CARBON/AIRSS/Generating-Clusters/TERSOFF/Higher-Symm/FIRE-HFTN
REM
REM
REM
REM
REM
REM ./C.cell (b20cbc046b6831c77cfcea5457e17084)
REM AIRSS Version 0.9.1 bugfix July 2018 build 013d7b7c2542+ Fri, 06 Jul 2018 19:26:36 +0100
REM compiler GCC version 9.2.1 20190827 (Red Hat 9.2.1-1)
REM options -cpp -mtune=generic -march=x86-64 -g -O0 -fpre-include=/usr/include/finclude/math-vector-fortran.h
REM seed 1548162839 -617254187 -1650415842 -619150807 1716949017 -1706204674 -907833540 -1404267940 -1900840643 433138258 -360123029 -1737210394 -868001509 917629874 1692144088 -465607986 1234991797 -1767240011 -1728339298 -1231431879 812832834 -750629745 247468358 1711465719 -800492509 478951607 310039054 1125719019 1928858690 788352613 959053845 111306681 311716954
REM
CELL 1.54180   50.00000   50.00000   50.00000   90.00000   90.00000   90.00000
LATT -1
SFAC C  
C      1  0.4067640000000  0.5159410000000  0.4998820000000 1.0
C      1  0.4571560000000  0.4176010000000  0.5010080000000 1.0
C      1  0.5668600000000  0.4313990000000  0.4999120000000 1.0
C      1  0.5834860000000  0.5402720000000  0.5001860000000 1.0
C      1  0.4861870000000  0.5914670000000  0.4990040000000 1.0
C      1  0.5953380000000  0.4948370000000  0.5156180000000 1.0
C      1  0.5304550000000  0.5842400000000  0.5189610000000 1.0
C      1  0.4268210000000  0.5592590000000  0.5148710000000 1.0
C      1  0.4222960000000  0.4474740000000  0.5181990000000 1.0
C      1  0.5258630000000  0.4104100000000  0.5178920000000 1.0
C      1  0.5012520000000  0.4158730000000  0.4765030000000 1.0
C      1  0.5812030000000  0.4736430000000  0.4744970000000 1.0
C      1  0.5466930000000  0.5648830000000  0.4767730000000 1.0
C      1  0.4484090000000  0.5667100000000  0.4749150000000 1.0
C      1  0.4212620000000  0.4727730000000  0.4760270000000 1.0
C      1  0.5269540000000  0.4979080000000  0.5880710000000 1.0
C      1  0.5084890000000  0.5237270000000  0.5872900000000 1.0
C      1  0.4783410000000  0.5141620000000  0.5870510000000 1.0
C      1  0.4784790000000  0.4822790000000  0.5851640000000 1.0
C      1  0.5082260000000  0.4724350000000  0.5868550000000 1.0
C      1  0.5416340000000  0.4719920000000  0.4880720000000 1.0
C      1  0.5358570000000  0.5262770000000  0.4889610000000 1.0
C      1  0.4810320000000  0.5440170000000  0.4880370000000 1.0
C      1  0.4520180000000  0.4976150000000  0.4898150000000 1.0
C      1  0.4897410000000  0.4545970000000  0.4875610000000 1.0
C      1  0.4792130000000  0.5604890000000  0.4352580000000 1.0
C      1  0.4340570000000  0.4984620000000  0.4349560000000 1.0
C      1  0.4803020000000  0.4368870000000  0.4361100000000 1.0
C      1  0.5538410000000  0.4600920000000  0.4343140000000 1.0
C      1  0.5526700000000  0.5371180000000  0.4354110000000 1.0
C      1  0.4209400000000  0.4905690000000  0.5019650000000 1.0
C      1  0.4852270000000  0.4244370000000  0.5021310000000 1.0
C      1  0.5705310000000  0.4601580000000  0.5010070000000 1.0
C      1  0.5564800000000  0.5504960000000  0.5024880000000 1.0
C      1  0.4662880000000  0.5704960000000  0.5007900000000 1.0
C      1  0.5066130000000  0.5542410000000  0.4444470000000 1.0
C      1  0.4471850000000  0.5233140000000  0.4435250000000 1.0
C      1  0.4616720000000  0.4580380000000  0.4449180000000 1.0
C      1  0.5285270000000  0.4480040000000  0.4434510000000 1.0
C      1  0.5564300000000  0.5091500000000  0.4437540000000 1.0
C      1  0.5361410000000  0.5429590000000  0.5503700000000 1.0
C      1  0.4671000000000  0.5437540000000  0.5503320000000 1.0
C      1  0.4383700000000  0.4848100000000  0.5517010000000 1.0
C      1  0.4991450000000  0.4424910000000  0.5498020000000 1.0
C      1  0.5583640000000  0.4781860000000  0.5518080000000 1.0
C      1  0.5379340000000  0.5109320000000  0.5163310000000 1.0
C      1  0.4854290000000  0.5275720000000  0.5132570000000 1.0
C      1  0.4577970000000  0.5094470000000  0.5185780000000 1.0
C      1  0.4949740000000  0.4755300000000  0.5101400000000 1.0
C      1  0.5284520000000  0.4762000000000  0.5157770000000 1.0
C      1  0.5775920000000  0.4566270000000  0.4508620000000 1.0
C      1  0.5623490000000  0.5580680000000  0.4530780000000 1.0
C      1  0.4623340000000  0.5778790000000  0.4514570000000 1.0
C      1  0.4133800000000  0.4873100000000  0.4519870000000 1.0
C      1  0.4838340000000  0.4135730000000  0.4530970000000 1.0
C      1  0.4891300000000  0.5216870000000  0.5435830000000 1.0
C      1  0.4726690000000  0.4934710000000  0.5451040000000 1.0
C      1  0.4969010000000  0.4721050000000  0.5430290000000 1.0
C      1  0.5262310000000  0.4859640000000  0.5478270000000 1.0
C      1  0.5202350000000  0.5178200000000  0.5428050000000 1.0
C      1  0.5405090000000  0.4405620000000  0.5568030000000 1.0
C      1  0.5685420000000  0.5181070000000  0.5599620000000 1.0
C      1  0.5018540000000  0.5668260000000  0.5546070000000 1.0
C      1  0.4309200000000  0.5251130000000  0.5606980000000 1.0
C      1  0.4579100000000  0.4481670000000  0.5458640000000 1.0
C      1  0.4502690000000  0.5302900000000  0.4738830000000 1.0
C      1  0.4563980000000  0.4638030000000  0.4762650000000 1.0
C      1  0.5223690000000  0.4448920000000  0.4739450000000 1.0
C      1  0.5580870000000  0.5015080000000  0.4742400000000 1.0
C      1  0.5137800000000  0.5524390000000  0.4755570000000 1.0
C      1  0.5782970000000  0.4737830000000  0.5273900000000 1.0
C      1  0.5460910000000  0.5614670000000  0.5284640000000 1.0
C      1  0.4536020000000  0.5634580000000  0.5284940000000 1.0
C      1  0.4217570000000  0.4752670000000  0.5277810000000 1.0
C      1  0.5005810000000  0.4214000000000  0.5278750000000 1.0
C      1  0.4552350000000  0.5329060000000  0.5763480000000 1.0
C      1  0.4555670000000  0.4659790000000  0.5717940000000 1.0
C      1  0.5166770000000  0.4449620000000  0.5744220000000 1.0
C      1  0.5557950000000  0.4971100000000  0.5770430000000 1.0
C      1  0.5181560000000  0.5502140000000  0.5739930000000 1.0
C      1  0.5524420000000  0.4874510000000  0.4250550000000 1.0
C      1  0.5263740000000  0.5442180000000  0.4258760000000 1.0
C      1  0.4636470000000  0.5383570000000  0.4252180000000 1.0
C      1  0.4515230000000  0.4773660000000  0.4260160000000 1.0
C      1  0.5058890000000  0.4454770000000  0.4255860000000 1.0
C      1  0.5644530000000  0.5188380000000  0.5308670000000 1.0
C      1  0.4977900000000  0.5587820000000  0.5259310000000 1.0
C      1  0.4334180000000  0.5214600000000  0.5318520000000 1.0
C      1  0.4636830000000  0.4611790000000  0.5198090000000 1.0
C      1  0.5407600000000  0.4483060000000  0.5281400000000 1.0
C      1  0.4231500000000  0.5389780000000  0.4937960000000 1.0
C      1  0.4384650000000  0.4387310000000  0.4949580000000 1.0
C      1  0.5399250000000  0.4224420000000  0.4950650000000 1.0
C      1  0.5854140000000  0.5122110000000  0.4941620000000 1.0
C      1  0.5133320000000  0.5826260000000  0.4951090000000 1.0
C      1  0.4988330000000  0.4956790000000  0.4199060000000 1.0
C      1  0.5042710000000  0.5063020000000  0.4697970000000 1.0
C      1  0.4955510000000  0.4894090000000  0.4479710000000 1.0
C      1  0.4959450000000  0.5032460000000  0.4975010000000 1.0
END
