TITL C-862507-1800-417 -476454.938708488 125000 -941.409055894201 0 0 162 (C1) n - 1
REM
REM in /home/nfs/bkarasulu/CARBON/AIRSS/Generating-Clusters/TERSOFF/Higher-Symm/FIRE-HFTN
REM
REM
REM
REM
REM
REM ./C.cell (b20cbc046b6831c77cfcea5457e17084)
REM AIRSS Version 0.9.1 bugfix July 2018 build 013d7b7c2542+ Fri, 06 Jul 2018 19:26:36 +0100
REM compiler GCC version 9.2.1 20190827 (Red Hat 9.2.1-1)
REM options -cpp -mtune=generic -march=x86-64 -g -O0 -fpre-include=/usr/include/finclude/math-vector-fortran.h
REM seed 1208677541 1148084241 -996923135 890767304 38107173 232626409 1967816935 -1789978670 572798367 -1732652748 -697912557 -1801225909 -333147371 -1207042927 -444327774 -1365256075 653325714 -415705362 -1741261854 -1703545395 -177372251 -269812745 -531190099 329636522 -35335354 -522491797 -2116182145 1970696857 -2036703674 864815734 -1032581134 1155941515 -664567923
REM
CELL 1.54180   50.00000   50.00000   50.00000   90.00000   90.00000   90.00000
LATT -1
SFAC C  
C      1  0.5295800000000  0.4018900000000  0.5021240000000 1.0
C      1  0.4225790000000  0.4422120000000  0.4526130000000 1.0
C      1  0.5663510000000  0.4192320000000  0.4412240000000 1.0
C      1  0.5173010000000  0.4022640000000  0.4403590000000 1.0
C      1  0.4616140000000  0.4895960000000  0.4821000000000 1.0
C      1  0.4818180000000  0.4921700000000  0.4585600000000 1.0
C      1  0.5004770000000  0.4815500000000  0.6022080000000 1.0
C      1  0.5183820000000  0.5449570000000  0.4924550000000 1.0
C      1  0.3817130000000  0.4973530000000  0.4894290000000 1.0
C      1  0.5086540000000  0.4572680000000  0.4081380000000 1.0
C      1  0.4595150000000  0.4951070000000  0.5321140000000 1.0
C      1  0.6119660000000  0.4341360000000  0.5015010000000 1.0
C      1  0.5722550000000  0.3946790000000  0.5235150000000 1.0
C      1  0.4322660000000  0.5900000000000  0.5287470000000 1.0
C      1  0.5235560000000  0.6028620000000  0.4996210000000 1.0
C      1  0.4932090000000  0.4092760000000  0.5557060000000 1.0
C      1  0.5996210000000  0.5260400000000  0.4812950000000 1.0
C      1  0.4759110000000  0.5607400000000  0.4921760000000 1.0
C      1  0.5211530000000  0.4825720000000  0.4127830000000 1.0
C      1  0.4067870000000  0.4478320000000  0.4990840000000 1.0
C      1  0.4759600000000  0.4665820000000  0.5304270000000 1.0
C      1  0.5302680000000  0.5213770000000  0.4789570000000 1.0
C      1  0.4782530000000  0.5410540000000  0.4363660000000 1.0
C      1  0.4311470000000  0.4795930000000  0.5307700000000 1.0
C      1  0.5384620000000  0.5473130000000  0.5469690000000 1.0
C      1  0.4016320000000  0.5485370000000  0.5277880000000 1.0
C      1  0.5453290000000  0.4574960000000  0.4670040000000 1.0
C      1  0.4780010000000  0.5278320000000  0.6014070000000 1.0
C      1  0.4072270000000  0.5490870000000  0.4407800000000 1.0
C      1  0.5811500000000  0.5616890000000  0.4335720000000 1.0
C      1  0.5203900000000  0.4195290000000  0.5557670000000 1.0
C      1  0.5490300000000  0.3952360000000  0.4809360000000 1.0
C      1  0.5820950000000  0.5180830000000  0.5440560000000 1.0
C      1  0.5049670000000  0.5054360000000  0.5672030000000 1.0
C      1  0.5264910000000  0.5472200000000  0.4338600000000 1.0
C      1  0.4226700000000  0.4724570000000  0.4128340000000 1.0
C      1  0.4223250000000  0.5259620000000  0.5705020000000 1.0
C      1  0.4528550000000  0.4848600000000  0.5874190000000 1.0
C      1  0.3834240000000  0.5256390000000  0.4819550000000 1.0
C      1  0.4703140000000  0.4220270000000  0.5689040000000 1.0
C      1  0.4751950000000  0.5165200000000  0.5534520000000 1.0
C      1  0.4770340000000  0.4989060000000  0.5978490000000 1.0
C      1  0.5078160000000  0.6042640000000  0.5581110000000 1.0
C      1  0.5957840000000  0.4172710000000  0.4833240000000 1.0
C      1  0.4596600000000  0.4643710000000  0.5606470000000 1.0
C      1  0.4079730000000  0.4802460000000  0.5657540000000 1.0
C      1  0.4401010000000  0.4185360000000  0.4567530000000 1.0
C      1  0.5441970000000  0.5191170000000  0.3928560000000 1.0
C      1  0.5012800000000  0.5614520000000  0.4748170000000 1.0
C      1  0.6072730000000  0.4639260000000  0.4476050000000 1.0
C      1  0.4906840000000  0.4042610000000  0.4539640000000 1.0
C      1  0.4483450000000  0.5712890000000  0.4845250000000 1.0
C      1  0.4949190000000  0.5810680000000  0.5719420000000 1.0
C      1  0.4429330000000  0.4288690000000  0.5248040000000 1.0
C      1  0.5153050000000  0.4824640000000  0.5508970000000 1.0
C      1  0.5023900000000  0.5433780000000  0.6045910000000 1.0
C      1  0.5015500000000  0.5476930000000  0.4493020000000 1.0
C      1  0.5299590000000  0.4380760000000  0.5350400000000 1.0
C      1  0.5200330000000  0.5862760000000  0.4718880000000 1.0
C      1  0.5845080000000  0.5736450000000  0.4979360000000 1.0
C      1  0.5113820000000  0.4957300000000  0.4729400000000 1.0
C      1  0.5364850000000  0.6044200000000  0.5503960000000 1.0
C      1  0.4693580000000  0.5612330000000  0.4166610000000 1.0
C      1  0.5160750000000  0.5505870000000  0.5231710000000 1.0
C      1  0.5862400000000  0.4653470000000  0.4265520000000 1.0
C      1  0.5350860000000  0.5130190000000  0.5718500000000 1.0
C      1  0.4523130000000  0.5832070000000  0.4224200000000 1.0
C      1  0.4044750000000  0.4996430000000  0.4447130000000 1.0
C      1  0.4926180000000  0.5240040000000  0.3972420000000 1.0
C      1  0.5028350000000  0.5038460000000  0.4197470000000 1.0
C      1  0.3934860000000  0.4807420000000  0.4670420000000 1.0
C      1  0.4670000000000  0.4784810000000  0.3935640000000 1.0
C      1  0.4513390000000  0.4626960000000  0.4886740000000 1.0
C      1  0.6187510000000  0.4819580000000  0.5231830000000 1.0
C      1  0.5957930000000  0.5438710000000  0.5473330000000 1.0
C      1  0.4568020000000  0.5927530000000  0.5440640000000 1.0
C      1  0.5123950000000  0.5628140000000  0.5852650000000 1.0
C      1  0.6244760000000  0.5449580000000  0.5518090000000 1.0
C      1  0.3857370000000  0.5477640000000  0.5017620000000 1.0
C      1  0.5296610000000  0.4511640000000  0.4915010000000 1.0
C      1  0.4790740000000  0.4649620000000  0.4442660000000 1.0
C      1  0.5508310000000  0.5888230000000  0.5702160000000 1.0
C      1  0.3924880000000  0.5267950000000  0.4529150000000 1.0
C      1  0.5161600000000  0.4753420000000  0.4997550000000 1.0
C      1  0.4390470000000  0.4894590000000  0.3972720000000 1.0
C      1  0.4656050000000  0.4148050000000  0.4411650000000 1.0
C      1  0.5769700000000  0.3973440000000  0.4940010000000 1.0
C      1  0.4873170000000  0.5626790000000  0.5202460000000 1.0
C      1  0.4862090000000  0.4268360000000  0.4974770000000 1.0
C      1  0.3821380000000  0.4894390000000  0.5171670000000 1.0
C      1  0.4360470000000  0.5102990000000  0.4357590000000 1.0
C      1  0.5385660000000  0.4114960000000  0.5770250000000 1.0
C      1  0.5344110000000  0.5104130000000  0.5261050000000 1.0
C      1  0.4026950000000  0.4531170000000  0.4715220000000 1.0
C      1  0.4089700000000  0.5245300000000  0.5437540000000 1.0
C      1  0.4359120000000  0.5918980000000  0.5004000000000 1.0
C      1  0.4699990000000  0.4393360000000  0.5181550000000 1.0
C      1  0.5645350000000  0.5078550000000  0.4438920000000 1.0
C      1  0.5886520000000  0.4979250000000  0.4821080000000 1.0
C      1  0.4256000000000  0.5506080000000  0.5854120000000 1.0
C      1  0.4620370000000  0.5305760000000  0.3889520000000 1.0
C      1  0.4195240000000  0.3849610000000  0.5321680000000 1.0
C      1  0.4309940000000  0.5586540000000  0.4621170000000 1.0
C      1  0.5664550000000  0.4902210000000  0.4989830000000 1.0
C      1  0.5805380000000  0.5493650000000  0.4829250000000 1.0
C      1  0.5605440000000  0.5846790000000  0.4336090000000 1.0
C      1  0.4674100000000  0.5135370000000  0.4400730000000 1.0
C      1  0.5513860000000  0.4635530000000  0.5704140000000 1.0
C      1  0.5441790000000  0.4046880000000  0.4535730000000 1.0
C      1  0.4036910000000  0.4958210000000  0.5355840000000 1.0
C      1  0.4993170000000  0.4524940000000  0.5985360000000 1.0
C      1  0.5798790000000  0.5685150000000  0.5462480000000 1.0
C      1  0.4098630000000  0.5745480000000  0.5385560000000 1.0
C      1  0.6145260000000  0.4631990000000  0.4992720000000 1.0
C      1  0.5551300000000  0.5454060000000  0.5959720000000 1.0
C      1  0.5738150000000  0.4753560000000  0.5844220000000 1.0
C      1  0.5977800000000  0.4772720000000  0.5692850000000 1.0
C      1  0.5482760000000  0.5168760000000  0.5976820000000 1.0
C      1  0.4679220000000  0.4295160000000  0.4156510000000 1.0
C      1  0.4442340000000  0.4202260000000  0.5551850000000 1.0
C      1  0.5337460000000  0.5776210000000  0.4423630000000 1.0
C      1  0.5494530000000  0.4591170000000  0.5407880000000 1.0
C      1  0.4303470000000  0.4040520000000  0.5123300000000 1.0
C      1  0.5510880000000  0.5198870000000  0.5473660000000 1.0
C      1  0.4791380000000  0.4572180000000  0.4137990000000 1.0
C      1  0.5405020000000  0.5617930000000  0.5754430000000 1.0
C      1  0.4352950000000  0.5274220000000  0.4632310000000 1.0
C      1  0.4605070000000  0.5420670000000  0.5636730000000 1.0
C      1  0.5452080000000  0.5987110000000  0.5220550000000 1.0
C      1  0.5699870000000  0.5806610000000  0.5216590000000 1.0
C      1  0.5438500000000  0.5068890000000  0.5008860000000 1.0
C      1  0.4271290000000  0.3958960000000  0.5585790000000 1.0
C      1  0.5450770000000  0.5308250000000  0.4538540000000 1.0
C      1  0.4329630000000  0.5822190000000  0.4427230000000 1.0
C      1  0.4683960000000  0.5718780000000  0.5635600000000 1.0
C      1  0.6057700000000  0.4761300000000  0.4748250000000 1.0
C      1  0.5907160000000  0.5297760000000  0.4344650000000 1.0
C      1  0.5475420000000  0.4906380000000  0.4021320000000 1.0
C      1  0.4291220000000  0.4593250000000  0.5555100000000 1.0
C      1  0.4822400000000  0.5897480000000  0.5281620000000 1.0
C      1  0.4736930000000  0.4388810000000  0.5931570000000 1.0
C      1  0.5151190000000  0.4263700000000  0.4971350000000 1.0
C      1  0.5396810000000  0.4854020000000  0.4570970000000 1.0
C      1  0.4161570000000  0.5433480000000  0.4122660000000 1.0
C      1  0.4372920000000  0.5206270000000  0.4039840000000 1.0
C      1  0.6124020000000  0.5273700000000  0.4545550000000 1.0
C      1  0.5229870000000  0.5372160000000  0.4041970000000 1.0
C      1  0.5431630000000  0.3973080000000  0.5283610000000 1.0
C      1  0.4515440000000  0.4566620000000  0.6010860000000 1.0
C      1  0.5651540000000  0.5518330000000  0.4593590000000 1.0
C      1  0.5029800000000  0.4749420000000  0.5265890000000 1.0
C      1  0.5910670000000  0.4252590000000  0.4554790000000 1.0
C      1  0.5687600000000  0.4882580000000  0.4220190000000 1.0
C      1  0.4343470000000  0.4617520000000  0.4361490000000 1.0
C      1  0.4256730000000  0.4987090000000  0.5826610000000 1.0
C      1  0.5702020000000  0.4687220000000  0.5204470000000 1.0
C      1  0.5675780000000  0.4961250000000  0.6039370000000 1.0
C      1  0.4975480000000  0.6100670000000  0.5134810000000 1.0
C      1  0.4319480000000  0.4557310000000  0.5113270000000 1.0
C      1  0.4453030000000  0.5132810000000  0.4863470000000 1.0
C      1  0.4862770000000  0.4970410000000  0.3817670000000 1.0
C      1  0.5983800000000  0.4911830000000  0.5441980000000 1.0
END
