TITL C-862129-6180-817 2.24504048469477e-05 125000 -403.658149883433 0 0 74 (C3) n - 1
REM
REM in /home/nfs/bkarasulu/CARBON/AIRSS/Generating-Clusters/TERSOFF/Higher-Symm/FIRE-HFTN
REM
REM
REM
REM
REM
REM ./C.cell (b20cbc046b6831c77cfcea5457e17084)
REM AIRSS Version 0.9.1 bugfix July 2018 build 013d7b7c2542+ Fri, 06 Jul 2018 19:26:36 +0100
REM compiler GCC version 9.2.1 20190827 (Red Hat 9.2.1-1)
REM options -cpp -mtune=generic -march=x86-64 -g -O0 -fpre-include=/usr/include/finclude/math-vector-fortran.h
REM seed 1691067485 1058297710 -178543408 864217873 1714691233 -343452600 1190675822 -2136197103 1617848934 322716190 -1207028284 -832271784 945049927 1149336068 507008703 -1665653984 -226133018 575621647 -676405437 -1490721218 796562333 -818175165 -2024830433 -1446714149 306925190 -1392351630 1225655768 1365290102 -1923574441 -1729425946 -23460535 67542741 1543517772
REM
CELL 1.54180   50.00000   50.00000   50.00000   90.00000   90.00000   90.00000
LATT -1
SFAC C  
C      1  0.4984000000000  0.5257050000000  0.5374020000000 1.0
C      1  0.4984000000000  0.4547940000000  0.5031230000000 1.0
C      1  0.4984000000000  0.5199350000000  0.4588520000000 1.0
C      1  0.5126860000000  0.4702450000000  0.4492800000000 1.0
C      1  0.5126860000000  0.5588390000000  0.4991550000000 1.0
C      1  0.5126860000000  0.4713490000000  0.5509420000000 1.0
C      1  0.4713260000000  0.5576340000000  0.5253290000000 1.0
C      1  0.4713260000000  0.4492840000000  0.5368110000000 1.0
C      1  0.4713260000000  0.4935160000000  0.4372370000000 1.0
C      1  0.5832620000000  0.4646660000000  0.5026940000000 1.0
C      1  0.5832620000000  0.5153710000000  0.4676160000000 1.0
C      1  0.5832620000000  0.5203970000000  0.5290670000000 1.0
C      1  0.4372040000000  0.5201940000000  0.4622460000000 1.0
C      1  0.4372050000000  0.5226360000000  0.5359290000000 1.0
C      1  0.4372050000000  0.4576040000000  0.5012020000000 1.0
C      1  0.4230560000000  0.5312390000000  0.5111220000000 1.0
C      1  0.4230560000000  0.4747850000000  0.5210570000000 1.0
C      1  0.4230560000000  0.4944090000000  0.4671990000000 1.0
C      1  0.5467790000000  0.5266600000000  0.5097080000000 1.0
C      1  0.5467800000000  0.4782990000000  0.5177980000000 1.0
C      1  0.5467790000000  0.4954740000000  0.4718710000000 1.0
C      1  0.5378560000000  0.5214120000000  0.4825280000000 1.0
C      1  0.5378560000000  0.5044620000000  0.5268430000000 1.0
C      1  0.5378560000000  0.4745600000000  0.4900060000000 1.0
C      1  0.4864890000000  0.5596350000000  0.4484330000000 1.0
C      1  0.4864900000000  0.5148780000000  0.5769930000000 1.0
C      1  0.4864900000000  0.4259210000000  0.4739520000000 1.0
C      1  0.5059840000000  0.4758430000000  0.4843510000000 1.0
C      1  0.5059840000000  0.5256680000000  0.4864670000000 1.0
C      1  0.5059840000000  0.4989230000000  0.5285590000000 1.0
C      1  0.5571260000000  0.4395120000000  0.5028130000000 1.0
C      1  0.5571260000000  0.5278450000000  0.4457720000000 1.0
C      1  0.5571260000000  0.5330770000000  0.5507910000000 1.0
C      1  0.5353580000000  0.4580480000000  0.5335140000000 1.0
C      1  0.5353580000000  0.4919900000000  0.4464750000000 1.0
C      1  0.5353580000000  0.5503970000000  0.5193890000000 1.0
C      1  0.5301170000000  0.5629040000000  0.4716080000000 1.0
C      1  0.5301170000000  0.4931740000000  0.5682360000000 1.0
C      1  0.5301170000000  0.4443560000000  0.4595330000000 1.0
C      1  0.5160470000000  0.4255980000000  0.4788470000000 1.0
C      1  0.5160470000000  0.5555570000000  0.4457060000000 1.0
C      1  0.5160470000000  0.5192790000000  0.5748240000000 1.0
C      1  0.4645030000000  0.4770200000000  0.5473510000000 1.0
C      1  0.4645030000000  0.4705200000000  0.4559860000000 1.0
C      1  0.4645030000000  0.5528940000000  0.4960390000000 1.0
C      1  0.4568670000000  0.4394740000000  0.5128940000000 1.0
C      1  0.4568670000000  0.5191330000000  0.4406990000000 1.0
C      1  0.4568670000000  0.5418260000000  0.5457840000000 1.0
C      1  0.4464680000000  0.4936930000000  0.5297390000000 1.0
C      1  0.4464680000000  0.4774360000000  0.4792320000000 1.0
C      1  0.4464680000000  0.5293050000000  0.4904060000000 1.0
C      1  0.5786550000000  0.4860430000000  0.5285940000000 1.0
C      1  0.5786540000000  0.4822530000000  0.4731800000000 1.0
C      1  0.5786540000000  0.5321380000000  0.4976040000000 1.0
C      1  0.4990580000000  0.5671800000000  0.5314870000000 1.0
C      1  0.4990580000000  0.4391790000000  0.5419990000000 1.0
C      1  0.4990580000000  0.4940750000000  0.4258910000000 1.0
C      1  0.5560550000000  0.5468810000000  0.4727210000000 1.0
C      1  0.5560550000000  0.5002210000000  0.5538020000000 1.0
C      1  0.5560550000000  0.4533330000000  0.4728530000000 1.0
C      1  0.5226830000000  0.4337640000000  0.5138010000000 1.0
C      1  0.5226830000000  0.5212030000000  0.4353000000000 1.0
C      1  0.5226830000000  0.5454670000000  0.5502750000000 1.0
C      1  0.4757190000000  0.4874130000000  0.5729820000000 1.0
C      1  0.4757190000000  0.4431260000000  0.4521710000000 1.0
C      1  0.4757190000000  0.5698950000000  0.4742240000000 1.0
C      1  0.4690050000000  0.5437340000000  0.4318560000000 1.0
C      1  0.4690050000000  0.5371840000000  0.5715100000000 1.0
C      1  0.4690050000000  0.4195150000000  0.4960110000000 1.0
C      1  0.3969520000000  0.4858510000000  0.5134950000000 1.0
C      1  0.3969520000000  0.4954250000000  0.4805630000000 1.0
C      1  0.3969520000000  0.5191580000000  0.5053200000000 1.0
C      1  0.4929650000000  0.5001450000000  0.4997920000000 1.0
C      1  0.4610660000000  0.5001450000000  0.4997920000000 1.0
END
