TITL C-862134-6730-1189 0.0081111923227064 125000 -610.014307596237 0 0 110 (C1) n - 1
REM
REM in /home/nfs/bkarasulu/CARBON/AIRSS/Generating-Clusters/TERSOFF/Higher-Symm/FIRE-HFTN
REM
REM
REM
REM
REM
REM ./C.cell (b20cbc046b6831c77cfcea5457e17084)
REM AIRSS Version 0.9.1 bugfix July 2018 build 013d7b7c2542+ Fri, 06 Jul 2018 19:26:36 +0100
REM compiler GCC version 9.2.1 20190827 (Red Hat 9.2.1-1)
REM options -cpp -mtune=generic -march=x86-64 -g -O0 -fpre-include=/usr/include/finclude/math-vector-fortran.h
REM seed -1232355929 1877141409 1311501411 416520971 1679051936 1233228875 -18937988 385557163 1289187967 432248108 941651615 129497991 485351085 -1781579329 -531880489 1230855675 1362307170 1217309918 119934807 -189125076 584680539 -1163146930 -1146100400 1604492416 -1680019231 -1430748056 1207751572 470538524 -1458981975 -1930780410 -1568192941 471420694 1908612157
REM
CELL 1.54180   50.00000   50.00000   50.00000   90.00000   90.00000   90.00000
LATT -1
SFAC C  
C      1  0.4689340000000  0.4281090000000  0.4516170000000 1.0
C      1  0.5311020000000  0.5717340000000  0.5483910000000 1.0
C      1  0.5356590000000  0.5108630000000  0.4117940000000 1.0
C      1  0.4639970000000  0.4891820000000  0.5880650000000 1.0
C      1  0.4637750000000  0.5199590000000  0.4685430000000 1.0
C      1  0.5365610000000  0.4799820000000  0.5314290000000 1.0
C      1  0.5287700000000  0.5480740000000  0.5130360000000 1.0
C      1  0.4716930000000  0.4517590000000  0.4869590000000 1.0
C      1  0.5222220000000  0.5203510000000  0.4984390000000 1.0
C      1  0.4780930000000  0.4795360000000  0.5015190000000 1.0
C      1  0.5767410000000  0.4586380000000  0.5272050000000 1.0
C      1  0.4237420000000  0.5419350000000  0.4727360000000 1.0
C      1  0.4948240000000  0.4878660000000  0.5896540000000 1.0
C      1  0.5048280000000  0.5121140000000  0.4102610000000 1.0
C      1  0.4192140000000  0.5210280000000  0.5513770000000 1.0
C      1  0.5807890000000  0.4791100000000  0.4481970000000 1.0
C      1  0.5650360000000  0.4294930000000  0.5311240000000 1.0
C      1  0.4346190000000  0.5713120000000  0.4693810000000 1.0
C      1  0.4532960000000  0.4393490000000  0.5231750000000 1.0
C      1  0.5467120000000  0.5605770000000  0.4768000000000 1.0
C      1  0.5942010000000  0.4952650000000  0.5761770000000 1.0
C      1  0.4055370000000  0.5044960000000  0.4243810000000 1.0
C      1  0.5101740000000  0.4525750000000  0.4342210000000 1.0
C      1  0.4897970000000  0.5473980000000  0.5658050000000 1.0
C      1  0.4434170000000  0.5295570000000  0.4502650000000 1.0
C      1  0.5564750000000  0.4702030000000  0.5500880000000 1.0
C      1  0.4781540000000  0.4798720000000  0.4376900000000 1.0
C      1  0.5218000000000  0.5200080000000  0.5623220000000 1.0
C      1  0.4987800000000  0.4901460000000  0.4815050000000 1.0
C      1  0.5015740000000  0.5097080000000  0.5184510000000 1.0
C      1  0.3995240000000  0.5213040000000  0.4828650000000 1.0
C      1  0.5988020000000  0.4824670000000  0.5194460000000 1.0
C      1  0.5019590000000  0.4460940000000  0.4842690000000 1.0
C      1  0.4984510000000  0.5537400000000  0.5157490000000 1.0
C      1  0.5410560000000  0.5505400000000  0.4455190000000 1.0
C      1  0.4587120000000  0.4493960000000  0.5544530000000 1.0
C      1  0.4409710000000  0.4679530000000  0.4791070000000 1.0
C      1  0.5596440000000  0.5318150000000  0.5209190000000 1.0
C      1  0.4617010000000  0.5318530000000  0.4973320000000 1.0
C      1  0.5387870000000  0.4680190000000  0.5026370000000 1.0
C      1  0.4184180000000  0.4890410000000  0.5546270000000 1.0
C      1  0.5812520000000  0.5111050000000  0.4448670000000 1.0
C      1  0.4568360000000  0.5006610000000  0.5423690000000 1.0
C      1  0.5430400000000  0.4992450000000  0.4575290000000 1.0
C      1  0.4620810000000  0.5367090000000  0.4047570000000 1.0
C      1  0.5375220000000  0.4631400000000  0.5954160000000 1.0
C      1  0.4774100000000  0.4943860000000  0.4623090000000 1.0
C      1  0.5228590000000  0.5055280000000  0.5376600000000 1.0
C      1  0.4862680000000  0.5769730000000  0.4712500000000 1.0
C      1  0.5135860000000  0.4231500000000  0.5287890000000 1.0
C      1  0.4587550000000  0.5796230000000  0.4839550000000 1.0
C      1  0.5411760000000  0.4209780000000  0.5163010000000 1.0
C      1  0.4310810000000  0.4564050000000  0.5080280000000 1.0
C      1  0.5691150000000  0.5435290000000  0.4917410000000 1.0
C      1  0.4847400000000  0.5666840000000  0.4421960000000 1.0
C      1  0.5150030000000  0.4332020000000  0.5579010000000 1.0
C      1  0.4934060000000  0.4714970000000  0.5628700000000 1.0
C      1  0.5063710000000  0.5284170000000  0.4371250000000 1.0
C      1  0.4493320000000  0.4786280000000  0.5634990000000 1.0
C      1  0.5503450000000  0.5213160000000  0.4363580000000 1.0
C      1  0.4871570000000  0.4421880000000  0.5676420000000 1.0
C      1  0.5125690000000  0.5577610000000  0.4323930000000 1.0
C      1  0.4423440000000  0.5341940000000  0.5630930000000 1.0
C      1  0.5576970000000  0.4657240000000  0.4366950000000 1.0
C      1  0.4542130000000  0.5074090000000  0.4093290000000 1.0
C      1  0.5454400000000  0.4924270000000  0.5908610000000 1.0
C      1  0.4385010000000  0.4717490000000  0.4488800000000 1.0
C      1  0.5615110000000  0.5280590000000  0.5512890000000 1.0
C      1  0.4700400000000  0.5293530000000  0.5508180000000 1.0
C      1  0.5301080000000  0.4704610000000  0.4491080000000 1.0
C      1  0.4986080000000  0.4282180000000  0.4464580000000 1.0
C      1  0.5014260000000  0.5717100000000  0.5535470000000 1.0
C      1  0.5193150000000  0.5072040000000  0.5874910000000 1.0
C      1  0.4804080000000  0.4926770000000  0.4125040000000 1.0
C      1  0.5487210000000  0.5522170000000  0.5635810000000 1.0
C      1  0.4512680000000  0.4476310000000  0.4364780000000 1.0
C      1  0.5401890000000  0.4493710000000  0.5685620000000 1.0
C      1  0.4595750000000  0.5503930000000  0.4316420000000 1.0
C      1  0.5486770000000  0.5087630000000  0.5034240000000 1.0
C      1  0.4516610000000  0.4911430000000  0.4965020000000 1.0
C      1  0.4859600000000  0.5788780000000  0.5269910000000 1.0
C      1  0.5143610000000  0.4209370000000  0.4729070000000 1.0
C      1  0.5659670000000  0.4979530000000  0.5670530000000 1.0
C      1  0.4338380000000  0.5018330000000  0.4332900000000 1.0
C      1  0.5094140000000  0.4656790000000  0.6052380000000 1.0
C      1  0.4901300000000  0.5342700000000  0.3947600000000 1.0
C      1  0.4375090000000  0.5010830000000  0.5192610000000 1.0
C      1  0.5626430000000  0.4989570000000  0.4804580000000 1.0
C      1  0.4914330000000  0.4785370000000  0.5310580000000 1.0
C      1  0.5087870000000  0.5214240000000  0.4689310000000 1.0
C      1  0.5086100000000  0.5953280000000  0.4836340000000 1.0
C      1  0.4914830000000  0.4046880000000  0.5163080000000 1.0
C      1  0.5115110000000  0.5535530000000  0.4752080000000 1.0
C      1  0.4885050000000  0.4464250000000  0.5250100000000 1.0
C      1  0.5635140000000  0.4522030000000  0.4958320000000 1.0
C      1  0.4372160000000  0.5478390000000  0.5041010000000 1.0
C      1  0.4564780000000  0.5766300000000  0.5142610000000 1.0
C      1  0.5438490000000  0.4235470000000  0.4859860000000 1.0
C      1  0.4214690000000  0.5276850000000  0.5207270000000 1.0
C      1  0.5788630000000  0.4724390000000  0.4789050000000 1.0
C      1  0.4813380000000  0.5303500000000  0.5196700000000 1.0
C      1  0.5190660000000  0.4694750000000  0.4803390000000 1.0
C      1  0.5343440000000  0.5850210000000  0.4940390000000 1.0
C      1  0.4656920000000  0.4148710000000  0.5059420000000 1.0
C      1  0.6051290000000  0.5011720000000  0.4946650000000 1.0
C      1  0.3945800000000  0.4969800000000  0.5034010000000 1.0
C      1  0.4146970000000  0.4801050000000  0.5223320000000 1.0
C      1  0.5854150000000  0.5200480000000  0.4769390000000 1.0
C      1  0.5420620000000  0.5878070000000  0.5240820000000 1.0
C      1  0.4579960000000  0.4120310000000  0.4759180000000 1.0
END
