TITL C-862506-1665-577 0.000684473393390985 125000 -346.558102906215 0 0 63 (C3) n - 1
REM
REM in /home/nfs/bkarasulu/CARBON/AIRSS/Generating-Clusters/TERSOFF/Higher-Symm/FIRE-HFTN
REM
REM
REM
REM
REM
REM ./C.cell (b20cbc046b6831c77cfcea5457e17084)
REM AIRSS Version 0.9.1 bugfix July 2018 build 013d7b7c2542+ Fri, 06 Jul 2018 19:26:36 +0100
REM compiler GCC version 9.2.1 20190827 (Red Hat 9.2.1-1)
REM options -cpp -mtune=generic -march=x86-64 -g -O0 -fpre-include=/usr/include/finclude/math-vector-fortran.h
REM seed 1312389969 1587479961 1632409679 1595927845 -277107037 1096024745 -850545590 614524359 -1781381584 -1805863301 -2061933093 -2145816229 551659621 167791377 -1822781630 1521240791 1999517516 1689874250 487258266 1645364324 300101447 2130725629 896853035 371069183 -733213005 249587615 26854373 1674332885 395936721 1042116495 -1784861175 -1948485031 -789055894
REM
CELL 1.54180   50.00000   50.00000   50.00000   90.00000   90.00000   90.00000
LATT -1
SFAC C  
C      1  0.4479130000000  0.5148680000000  0.4741410000000 1.0
C      1  0.4479130000000  0.4701710000000  0.5000530000000 1.0
C      1  0.4479130000000  0.5149610000000  0.5258060000000 1.0
C      1  0.4479130000000  0.4851320000000  0.4741410000000 1.0
C      1  0.4479130000000  0.5298290000000  0.5000530000000 1.0
C      1  0.4479130000000  0.4850390000000  0.5258060000000 1.0
C      1  0.4825840000000  0.4524280000000  0.5448360000000 1.0
C      1  0.4825840000000  0.5626140000000  0.5187800000000 1.0
C      1  0.4825840000000  0.4849570000000  0.4363840000000 1.0
C      1  0.4825840000000  0.5475720000000  0.5448360000000 1.0
C      1  0.4825840000000  0.4373860000000  0.5187800000000 1.0
C      1  0.4825840000000  0.5150430000000  0.4363840000000 1.0
C      1  0.4615440000000  0.5152240000000  0.5752230000000 1.0
C      1  0.4615440000000  0.5575330000000  0.4492040000000 1.0
C      1  0.4615440000000  0.4272430000000  0.4755730000000 1.0
C      1  0.4615440000000  0.4847760000000  0.5752230000000 1.0
C      1  0.4615440000000  0.4424670000000  0.4492040000000 1.0
C      1  0.4615440000000  0.5727570000000  0.4755730000000 1.0
C      1  0.5386020000000  0.5331670000000  0.4999500000000 1.0
C      1  0.5386020000000  0.4833730000000  0.4713010000000 1.0
C      1  0.5386020000000  0.4834590000000  0.5287490000000 1.0
C      1  0.5386020000000  0.4668330000000  0.4999500000000 1.0
C      1  0.5386020000000  0.5166270000000  0.4713010000000 1.0
C      1  0.5386020000000  0.5165410000000  0.5287490000000 1.0
C      1  0.5121100000000  0.5274750000000  0.5503550000000 1.0
C      1  0.5121100000000  0.5298710000000  0.4510280000000 1.0
C      1  0.5121100000000  0.4426530000000  0.4986170000000 1.0
C      1  0.5121100000000  0.4725250000000  0.5503550000000 1.0
C      1  0.5121100000000  0.4701290000000  0.4510280000000 1.0
C      1  0.5121100000000  0.5573470000000  0.4986170000000 1.0
C      1  0.5276170000000  0.5691300000000  0.5232540000000 1.0
C      1  0.5276170000000  0.4855730000000  0.4285050000000 1.0
C      1  0.5276170000000  0.4452960000000  0.5482420000000 1.0
C      1  0.5276170000000  0.4308700000000  0.5232540000000 1.0
C      1  0.5276170000000  0.5144270000000  0.4285050000000 1.0
C      1  0.5276170000000  0.5547040000000  0.5482420000000 1.0
C      1  0.4588720000000  0.5282550000000  0.4497780000000 1.0
C      1  0.4588720000000  0.4423790000000  0.5006420000000 1.0
C      1  0.4588720000000  0.5293660000000  0.5495800000000 1.0
C      1  0.4588720000000  0.4717450000000  0.4497780000000 1.0
C      1  0.4588720000000  0.5576210000000  0.5006420000000 1.0
C      1  0.4588720000000  0.4706340000000  0.5495800000000 1.0
C      1  0.4969710000000  0.5139000000000  0.5244670000000 1.0
C      1  0.4969710000000  0.5142390000000  0.4757290000000 1.0
C      1  0.4969710000000  0.4718610000000  0.4998050000000 1.0
C      1  0.4969710000000  0.4861000000000  0.5244670000000 1.0
C      1  0.4969710000000  0.4857610000000  0.4757290000000 1.0
C      1  0.4969710000000  0.5281390000000  0.4998050000000 1.0
C      1  0.4891370000000  0.4364860000000  0.4391030000000 1.0
C      1  0.4891370000000  0.4790180000000  0.5854530000000 1.0
C      1  0.4891370000000  0.5844950000000  0.4754440000000 1.0
C      1  0.4891370000000  0.5635140000000  0.4391030000000 1.0
C      1  0.4891370000000  0.5209820000000  0.5854530000000 1.0
C      1  0.4891370000000  0.4155050000000  0.4754440000000 1.0
C      1  0.5721090000000  0.4681450000000  0.4999920000000 1.0
C      1  0.5721090000000  0.5159210000000  0.5275920000000 1.0
C      1  0.5721090000000  0.5159350000000  0.4724160000000 1.0
C      1  0.5721090000000  0.5318550000000  0.4999920000000 1.0
C      1  0.5721090000000  0.4840790000000  0.5275920000000 1.0
C      1  0.5721090000000  0.4840650000000  0.4724160000000 1.0
C      1  0.5118920000000  0.4360500000000  0.4630780000000 1.0
C      1  0.5118920000000  0.5639500000000  0.4630780000000 1.0
C      1  0.5118920000000  0.5000000000000  0.5738430000000 1.0
END
