TITL C-862506-1665-1136 -9.65695916420546e-06 125000 -194.435868359534 0 0 41 (D3) n - 1
REM
REM in /home/nfs/bkarasulu/CARBON/AIRSS/Generating-Clusters/TERSOFF/Higher-Symm/FIRE-HFTN
REM
REM
REM
REM
REM
REM ./C.cell (b20cbc046b6831c77cfcea5457e17084)
REM AIRSS Version 0.9.1 bugfix July 2018 build 013d7b7c2542+ Fri, 06 Jul 2018 19:26:36 +0100
REM compiler GCC version 9.2.1 20190827 (Red Hat 9.2.1-1)
REM options -cpp -mtune=generic -march=x86-64 -g -O0 -fpre-include=/usr/include/finclude/math-vector-fortran.h
REM seed -1523976026 984366149 2088288610 1533600829 -1666521043 -221290865 -1058206140 608111939 -746585685 -1989497789 -1132659726 -2029595966 386427885 17221771 -750252836 1680945489 -312310984 -1294781032 -1968862238 394225574 -985338890 -1969508588 -1744259713 -1548638036 -2106606860 1855593296 -705072145 2062216312 1052180696 -1470058148 -19530796 -1567890326 -1375816954
REM
CELL 1.54180   50.00000   50.00000   50.00000   90.00000   90.00000   90.00000
LATT -1
SFAC C  
C      1  0.4775130000000  0.4671260000000  0.5412030000000 1.0
C      1  0.4753130000000  0.4671260000000  0.4592730000000 1.0
C      1  0.5473660000000  0.4671260000000  0.4983330000000 1.0
C      1  0.5226150000000  0.5416580000000  0.5412030000000 1.0
C      1  0.5248140000000  0.5416580000000  0.4592730000000 1.0
C      1  0.4527620000000  0.5416580000000  0.4983330000000 1.0
C      1  0.4876430000000  0.5234640000000  0.5166830000000 1.0
C      1  0.4914820000000  0.5234640000000  0.4803060000000 1.0
C      1  0.5210660000000  0.5234650000000  0.5018200000000 1.0
C      1  0.5124850000000  0.4853190000000  0.5166830000000 1.0
C      1  0.5086450000000  0.4853190000000  0.4803060000000 1.0
C      1  0.4790610000000  0.4853190000000  0.5018200000000 1.0
C      1  0.4980740000000  0.4481100000000  0.5295530000000 1.0
C      1  0.4751210000000  0.4481100000000  0.4829050000000 1.0
C      1  0.5269960000000  0.4481100000000  0.4863510000000 1.0
C      1  0.5020530000000  0.5606740000000  0.5295530000000 1.0
C      1  0.5250060000000  0.5606740000000  0.4829050000000 1.0
C      1  0.4731310000000  0.5606740000000  0.4863510000000 1.0
C      1  0.4773810000000  0.5488740000000  0.4583220000000 1.0
C      1  0.5471550000000  0.5488740000000  0.5006000000000 1.0
C      1  0.4756550000000  0.5488740000000  0.5398870000000 1.0
C      1  0.5227460000000  0.4599100000000  0.4583220000000 1.0
C      1  0.4529730000000  0.4599090000000  0.5006000000000 1.0
C      1  0.5244720000000  0.4599100000000  0.5398870000000 1.0
C      1  0.5004820000000  0.5375210000000  0.4417760000000 1.0
C      1  0.5499340000000  0.5375210000000  0.5288790000000 1.0
C      1  0.4497750000000  0.5375210000000  0.5281540000000 1.0
C      1  0.4996450000000  0.4712630000000  0.4417760000000 1.0
C      1  0.4501940000000  0.4712620000000  0.5288790000000 1.0
C      1  0.5503530000000  0.4712630000000  0.5281540000000 1.0
C      1  0.4542860000000  0.5094950000000  0.4931490000000 1.0
C      1  0.5285420000000  0.5094950000000  0.4631850000000 1.0
C      1  0.5173630000000  0.5094950000000  0.5424740000000 1.0
C      1  0.5458410000000  0.4992890000000  0.4931490000000 1.0
C      1  0.4715860000000  0.4992890000000  0.4631850000000 1.0
C      1  0.4827640000000  0.4992890000000  0.5424740000000 1.0
C      1  0.4499020000000  0.5043920000000  0.5285640000000 1.0
C      1  0.5502260000000  0.5043920000000  0.5285640000000 1.0
C      1  0.5000640000000  0.5043920000000  0.4416810000000 1.0
C      1  0.5000640000000  0.5654440000000  0.4996030000000 1.0
C      1  0.5000640000000  0.4433400000000  0.4996030000000 1.0
END
