TITL C-862133-5440-484 0.351283147825833 125000 -755.43363912354 0 0 141 (C1) n - 1
REM
REM in /home/nfs/bkarasulu/CARBON/AIRSS/Generating-Clusters/TERSOFF/Higher-Symm/FIRE-HFTN
REM
REM
REM
REM
REM
REM ./C.cell (b20cbc046b6831c77cfcea5457e17084)
REM AIRSS Version 0.9.1 bugfix July 2018 build 013d7b7c2542+ Fri, 06 Jul 2018 19:26:36 +0100
REM compiler GCC version 9.2.1 20190827 (Red Hat 9.2.1-1)
REM options -cpp -mtune=generic -march=x86-64 -g -O0 -fpre-include=/usr/include/finclude/math-vector-fortran.h
REM seed 1899235986 859657986 1278001076 -366900218 -791271462 -415408707 1231737663 1451944286 1455347159 235547408 921339645 -1017661987 1265359456 -1668135179 1656944135 1849603675 349666535 -142087009 878478742 493224872 -484207601 597399369 -124656363 2090662285 -2017227984 -1269594504 -433783076 -1089760780 -1160131788 -1575539424 -2076005998 -1039363961 485999770
REM
CELL 1.54180   50.00000   50.00000   50.00000   90.00000   90.00000   90.00000
LATT -1
SFAC C  
C      1  0.4800450000000  0.5180160000000  0.5791450000000 1.0
C      1  0.5146100000000  0.5895190000000  0.4854230000000 1.0
C      1  0.5888320000000  0.4807990000000  0.5123030000000 1.0
C      1  0.5213080000000  0.5186040000000  0.4193730000000 1.0
C      1  0.5114170000000  0.4801580000000  0.5829680000000 1.0
C      1  0.4894290000000  0.4849450000000  0.4205970000000 1.0
C      1  0.4680070000000  0.5777020000000  0.5145980000000 1.0
C      1  0.4739490000000  0.4352980000000  0.4829710000000 1.0
C      1  0.5120060000000  0.4299320000000  0.5154790000000 1.0
C      1  0.4139310000000  0.4854220000000  0.4808760000000 1.0
C      1  0.4298780000000  0.5171250000000  0.5204510000000 1.0
C      1  0.5779560000000  0.5134390000000  0.4802550000000 1.0
C      1  0.4811140000000  0.4865540000000  0.5754510000000 1.0
C      1  0.5239970000000  0.4303190000000  0.4846520000000 1.0
C      1  0.5864930000000  0.5135250000000  0.5133530000000 1.0
C      1  0.5209400000000  0.4854450000000  0.4272180000000 1.0
C      1  0.5109610000000  0.5136910000000  0.5870920000000 1.0
C      1  0.4886380000000  0.5161380000000  0.4146050000000 1.0
C      1  0.4815240000000  0.4374240000000  0.5144020000000 1.0
C      1  0.4829590000000  0.5806460000000  0.4870070000000 1.0
C      1  0.5230970000000  0.5936450000000  0.5154880000000 1.0
C      1  0.4176900000000  0.5155150000000  0.4902980000000 1.0
C      1  0.4310270000000  0.4854830000000  0.5263470000000 1.0
C      1  0.5779890000000  0.4818640000000  0.4815240000000 1.0
C      1  0.4892840000000  0.4188770000000  0.5852250000000 1.0
C      1  0.4237310000000  0.5834460000000  0.4831340000000 1.0
C      1  0.5809930000000  0.4835110000000  0.4270330000000 1.0
C      1  0.5120460000000  0.4173450000000  0.4195190000000 1.0
C      1  0.5120200000000  0.5726410000000  0.5833300000000 1.0
C      1  0.4881720000000  0.5731840000000  0.4178020000000 1.0
C      1  0.5722960000000  0.5784150000000  0.5154600000000 1.0
C      1  0.5783880000000  0.4181500000000  0.4856290000000 1.0
C      1  0.4330430000000  0.4146440000000  0.5125270000000 1.0
C      1  0.4181250000000  0.4855330000000  0.5664160000000 1.0
C      1  0.4194120000000  0.5153520000000  0.4259660000000 1.0
C      1  0.5790270000000  0.5128830000000  0.5757600000000 1.0
C      1  0.4826820000000  0.5788490000000  0.5822190000000 1.0
C      1  0.4282920000000  0.4152130000000  0.4842920000000 1.0
C      1  0.5796810000000  0.5123630000000  0.4206130000000 1.0
C      1  0.5172110000000  0.5792130000000  0.4184990000000 1.0
C      1  0.5184610000000  0.4150720000000  0.5824580000000 1.0
C      1  0.4833090000000  0.4184320000000  0.4213310000000 1.0
C      1  0.5763660000000  0.4151630000000  0.5155070000000 1.0
C      1  0.5664960000000  0.5802800000000  0.4862940000000 1.0
C      1  0.4190160000000  0.5867560000000  0.5123290000000 1.0
C      1  0.4185400000000  0.5141450000000  0.5740440000000 1.0
C      1  0.4199760000000  0.4858260000000  0.4245840000000 1.0
C      1  0.5785330000000  0.4833390000000  0.5816000000000 1.0
C      1  0.4379690000000  0.5337920000000  0.5643340000000 1.0
C      1  0.5352800000000  0.5723050000000  0.4405790000000 1.0
C      1  0.5743050000000  0.4375840000000  0.5345750000000 1.0
C      1  0.5597740000000  0.5307250000000  0.4310760000000 1.0
C      1  0.5581020000000  0.4636160000000  0.5721850000000 1.0
C      1  0.4428160000000  0.4683940000000  0.4324120000000 1.0
C      1  0.4642240000000  0.5711040000000  0.5602920000000 1.0
C      1  0.4697410000000  0.4347450000000  0.4411430000000 1.0
C      1  0.5346340000000  0.4264360000000  0.5607970000000 1.0
C      1  0.4312310000000  0.4396740000000  0.4694500000000 1.0
C      1  0.4231160000000  0.5658180000000  0.5323300000000 1.0
C      1  0.5655550000000  0.5576020000000  0.4669810000000 1.0
C      1  0.4419230000000  0.4684910000000  0.5631630000000 1.0
C      1  0.5285260000000  0.4316880000000  0.4383090000000 1.0
C      1  0.5659220000000  0.5553860000000  0.5323190000000 1.0
C      1  0.5579630000000  0.4664690000000  0.4351180000000 1.0
C      1  0.5552370000000  0.5294480000000  0.5703350000000 1.0
C      1  0.4427490000000  0.5321660000000  0.4295610000000 1.0
C      1  0.4712550000000  0.4280780000000  0.5633680000000 1.0
C      1  0.4719350000000  0.5652580000000  0.4410570000000 1.0
C      1  0.5300240000000  0.5713690000000  0.5598880000000 1.0
C      1  0.4359790000000  0.5595640000000  0.4695940000000 1.0
C      1  0.4413130000000  0.4381280000000  0.5275010000000 1.0
C      1  0.5633600000000  0.4377100000000  0.4684910000000 1.0
C      1  0.5034190000000  0.6182350000000  0.5139400000000 1.0
C      1  0.6160490000000  0.5094970000000  0.4974360000000 1.0
C      1  0.5025550000000  0.5027280000000  0.6172520000000 1.0
C      1  0.4745850000000  0.6125930000000  0.4839280000000 1.0
C      1  0.4786720000000  0.4042080000000  0.5122200000000 1.0
C      1  0.5105360000000  0.4010440000000  0.4850540000000 1.0
C      1  0.3845360000000  0.5205200000000  0.5007830000000 1.0
C      1  0.3991510000000  0.4802980000000  0.5293160000000 1.0
C      1  0.6076010000000  0.4786960000000  0.4675550000000 1.0
C      1  0.4896830000000  0.5045640000000  0.3821270000000 1.0
C      1  0.4717000000000  0.4761490000000  0.6050870000000 1.0
C      1  0.5258450000000  0.4717160000000  0.3965430000000 1.0
C      1  0.5100390000000  0.3955620000000  0.5181800000000 1.0
C      1  0.6199650000000  0.4765170000000  0.4993960000000 1.0
C      1  0.5044920000000  0.4695160000000  0.6141240000000 1.0
C      1  0.4784420000000  0.4037850000000  0.4792000000000 1.0
C      1  0.4724860000000  0.6097510000000  0.5187020000000 1.0
C      1  0.5056090000000  0.6230460000000  0.4801380000000 1.0
C      1  0.3885090000000  0.4866980000000  0.4993410000000 1.0
C      1  0.3984930000000  0.5136190000000  0.5299770000000 1.0
C      1  0.6082430000000  0.5135190000000  0.4655380000000 1.0
C      1  0.4913850000000  0.4716100000000  0.3908990000000 1.0
C      1  0.4701970000000  0.5092920000000  0.6113890000000 1.0
C      1  0.5218430000000  0.5037800000000  0.3894660000000 1.0
C      1  0.4675560000000  0.5197690000000  0.4361000000000 1.0
C      1  0.5165340000000  0.4482220000000  0.4606650000000 1.0
C      1  0.4502830000000  0.4653670000000  0.5118130000000 1.0
C      1  0.5307500000000  0.5160630000000  0.5649940000000 1.0
C      1  0.5328230000000  0.4762280000000  0.4555860000000 1.0
C      1  0.4684480000000  0.4776790000000  0.5499660000000 1.0
C      1  0.4788310000000  0.4492750000000  0.5426700000000 1.0
C      1  0.4830850000000  0.5591230000000  0.4669330000000 1.0
C      1  0.5185090000000  0.5719730000000  0.5335330000000 1.0
C      1  0.5531410000000  0.4649350000000  0.4780050000000 1.0
C      1  0.5612610000000  0.5300980000000  0.5198240000000 1.0
C      1  0.4412130000000  0.5337430000000  0.4836040000000 1.0
C      1  0.4697010000000  0.4779090000000  0.4418700000000 1.0
C      1  0.5243880000000  0.5665870000000  0.4670560000000 1.0
C      1  0.4420390000000  0.5448670000000  0.5240520000000 1.0
C      1  0.5308940000000  0.4708570000000  0.5621110000000 1.0
C      1  0.5367750000000  0.5191800000000  0.4484600000000 1.0
C      1  0.4653510000000  0.5256220000000  0.5531370000000 1.0
C      1  0.4724660000000  0.5533140000000  0.5358720000000 1.0
C      1  0.4862730000000  0.4542660000000  0.4614270000000 1.0
C      1  0.5206190000000  0.4459770000000  0.5414200000000 1.0
C      1  0.5539780000000  0.5302310000000  0.4732160000000 1.0
C      1  0.5675150000000  0.4628490000000  0.5228110000000 1.0
C      1  0.4338630000000  0.4646440000000  0.4848350000000 1.0
C      1  0.5423910000000  0.4641930000000  0.5068960000000 1.0
C      1  0.4689580000000  0.5034490000000  0.5269180000000 1.0
C      1  0.5074090000000  0.5390780000000  0.4709000000000 1.0
C      1  0.4726650000000  0.5207850000000  0.4953920000000 1.0
C      1  0.5148240000000  0.5035160000000  0.4685210000000 1.0
C      1  0.4691890000000  0.5041260000000  0.4635750000000 1.0
C      1  0.5142020000000  0.4736500000000  0.5217880000000 1.0
C      1  0.5295420000000  0.4952890000000  0.5423960000000 1.0
C      1  0.4839660000000  0.4787960000000  0.5085990000000 1.0
C      1  0.5390770000000  0.5283760000000  0.4994930000000 1.0
C      1  0.5002810000000  0.5512940000000  0.5257360000000 1.0
C      1  0.4891850000000  0.4834870000000  0.4785730000000 1.0
C      1  0.4425870000000  0.5597550000000  0.4401700000000 1.0
C      1  0.4414180000000  0.4383970000000  0.5583400000000 1.0
C      1  0.5589430000000  0.4347100000000  0.4374470000000 1.0
C      1  0.5642380000000  0.4347150000000  0.5629130000000 1.0
C      1  0.5634470000000  0.5609810000000  0.4361290000000 1.0
C      1  0.4329420000000  0.5654760000000  0.5629280000000 1.0
C      1  0.5564110000000  0.5573940000000  0.5601530000000 1.0
C      1  0.4402210000000  0.4399760000000  0.4414330000000 1.0
C      1  0.5059010000000  0.5330370000000  0.5028600000000 1.0
END
