TITL C-862500-986-1164 9.97955731183626e-06 125000 -900.888169438247 0 0 163 (S8) n - 1
REM
REM in /home/nfs/bkarasulu/CARBON/AIRSS/Generating-Clusters/TERSOFF/Higher-Symm/FIRE-HFTN
REM
REM
REM
REM
REM
REM ./C.cell (b20cbc046b6831c77cfcea5457e17084)
REM AIRSS Version 0.9.1 bugfix July 2018 build 013d7b7c2542+ Fri, 06 Jul 2018 19:26:36 +0100
REM compiler GCC version 9.2.1 20190827 (Red Hat 9.2.1-1)
REM options -cpp -mtune=generic -march=x86-64 -g -O0 -fpre-include=/usr/include/finclude/math-vector-fortran.h
REM seed -1357944141 199045733 -1603687407 161801644 -1852704305 1296176448 630320215 -2140840753 1170811553 1276026092 1242775360 -2133748277 1094085377 697780872 2017362177 -1961572895 -1116818080 1678437734 -1733455738 786690553 -1842333741 -37892087 1854720179 1604931086 740481272 -1877436262 -1003473455 2024397148 -1067479377 -292552473 2004304094 -1560994836 1620538680
REM
CELL 1.54180   50.00000   50.00000   50.00000   90.00000   90.00000   90.00000
LATT -1
SFAC C  
C      1  0.5692590000000  0.5221440000000  0.4504440000000 1.0
C      1  0.5139900000000  0.4772830000000  0.4160820000000 1.0
C      1  0.4506110000000  0.5221440000000  0.4308650000000 1.0
C      1  0.4162490000000  0.4772830000000  0.4861350000000 1.0
C      1  0.4310320000000  0.5221440000000  0.5495140000000 1.0
C      1  0.4863020000000  0.4772830000000  0.5838760000000 1.0
C      1  0.5496810000000  0.5221440000000  0.5690930000000 1.0
C      1  0.5840430000000  0.4772830000000  0.5138230000000 1.0
C      1  0.5532980000000  0.5308040000000  0.5342430000000 1.0
C      1  0.5619590000000  0.4686230000000  0.4866230000000 1.0
C      1  0.5344100000000  0.5308040000000  0.4468270000000 1.0
C      1  0.4867900000000  0.4686230000000  0.4381660000000 1.0
C      1  0.4469940000000  0.5308040000000  0.4657150000000 1.0
C      1  0.4383330000000  0.4686230000000  0.5133350000000 1.0
C      1  0.4658820000000  0.5308040000000  0.5531310000000 1.0
C      1  0.5135020000000  0.4686230000000  0.5617920000000 1.0
C      1  0.5421760000000  0.5404340000000  0.5919630000000 1.0
C      1  0.5949080000000  0.4589930000000  0.5353020000000 1.0
C      1  0.5921300000000  0.5404340000000  0.4579490000000 1.0
C      1  0.5354690000000  0.4589930000000  0.4052170000000 1.0
C      1  0.4581160000000  0.5404340000000  0.4079950000000 1.0
C      1  0.4053840000000  0.4589930000000  0.4646560000000 1.0
C      1  0.4081620000000  0.5404340000000  0.5420090000000 1.0
C      1  0.4648230000000  0.4589930000000  0.5947410000000 1.0
C      1  0.5230440000000  0.4484300000000  0.5335160000000 1.0
C      1  0.5400510000000  0.5509970000000  0.5075020000000 1.0
C      1  0.5336830000000  0.4484300000000  0.4770810000000 1.0
C      1  0.5076690000000  0.5509970000000  0.4600730000000 1.0
C      1  0.4772480000000  0.4484290000000  0.4664420000000 1.0
C      1  0.4602400000000  0.5509970000000  0.4924560000000 1.0
C      1  0.4666090000000  0.4484290000000  0.5228770000000 1.0
C      1  0.4926230000000  0.5509970000000  0.5398850000000 1.0
C      1  0.4447390000000  0.5122530000000  0.5928280000000 1.0
C      1  0.5266220000000  0.4871740000000  0.6048120000000 1.0
C      1  0.5929950000000  0.5122530000000  0.5553860000000 1.0
C      1  0.6049790000000  0.4871740000000  0.4735030000000 1.0
C      1  0.5555530000000  0.5122530000000  0.4071300000000 1.0
C      1  0.4736700000000  0.4871740000000  0.3951460000000 1.0
C      1  0.4072970000000  0.5122530000000  0.4445720000000 1.0
C      1  0.3953130000000  0.4871740000000  0.5264550000000 1.0
C      1  0.4455580000000  0.6004090000000  0.4750510000000 1.0
C      1  0.4439200000000  0.3990180000000  0.5209520000000 1.0
C      1  0.4752180000000  0.6004090000000  0.5545670000000 1.0
C      1  0.5211190000000  0.3990180000000  0.5562050000000 1.0
C      1  0.5547340000000  0.6004090000000  0.5249070000000 1.0
C      1  0.5563720000000  0.3990180000000  0.4790060000000 1.0
C      1  0.5250730000000  0.6004090000000  0.4453910000000 1.0
C      1  0.4791730000000  0.3990180000000  0.4437530000000 1.0
C      1  0.4751070000000  0.5249900000000  0.5051110000000 1.0
C      1  0.4860690000000  0.4744370000000  0.5213130000000 1.0
C      1  0.5052770000000  0.5249900000000  0.5250180000000 1.0
C      1  0.5214800000000  0.4744370000000  0.5140560000000 1.0
C      1  0.5251850000000  0.5249900000000  0.4948470000000 1.0
C      1  0.5142230000000  0.4744370000000  0.4786450000000 1.0
C      1  0.4950140000000  0.5249900000000  0.4749400000000 1.0
C      1  0.4788120000000  0.4744370000000  0.4859020000000 1.0
C      1  0.4561360000000  0.5632760000000  0.5869700000000 1.0
C      1  0.5305380000000  0.4361510000000  0.5926100000000 1.0
C      1  0.5871360000000  0.5632760000000  0.5439890000000 1.0
C      1  0.5927770000000  0.4361510000000  0.4695870000000 1.0
C      1  0.5441560000000  0.5632760000000  0.4129880000000 1.0
C      1  0.4697540000000  0.4361510000000  0.4073480000000 1.0
C      1  0.4131550000000  0.5632760000000  0.4559690000000 1.0
C      1  0.4075150000000  0.4361510000000  0.5303710000000 1.0
C      1  0.5852040000000  0.4658060000000  0.4640650000000 1.0
C      1  0.5348960000000  0.5336210000000  0.4144390000000 1.0
C      1  0.4642320000000  0.4658060000000  0.4149210000000 1.0
C      1  0.4146060000000  0.5336210000000  0.4652290000000 1.0
C      1  0.4150880000000  0.4658060000000  0.5358930000000 1.0
C      1  0.4653960000000  0.5336210000000  0.5855190000000 1.0
C      1  0.5360600000000  0.4658060000000  0.5850370000000 1.0
C      1  0.5856860000000  0.5336210000000  0.5347290000000 1.0
C      1  0.4028470000000  0.5276230000000  0.4923750000000 1.0
C      1  0.4259680000000  0.4718040000000  0.5634030000000 1.0
C      1  0.4925410000000  0.5276230000000  0.5972780000000 1.0
C      1  0.5635700000000  0.4718040000000  0.5741570000000 1.0
C      1  0.5974450000000  0.5276230000000  0.5075830000000 1.0
C      1  0.5743240000000  0.4718040000000  0.4365550000000 1.0
C      1  0.5077500000000  0.5276230000000  0.4026800000000 1.0
C      1  0.4367220000000  0.4718040000000  0.4258010000000 1.0
C      1  0.5354760000000  0.4334040000000  0.5045060000000 1.0
C      1  0.5283290000000  0.5660230000000  0.4781980000000 1.0
C      1  0.5046730000000  0.4334040000000  0.4646490000000 1.0
C      1  0.4783650000000  0.5660230000000  0.4717960000000 1.0
C      1  0.4648160000000  0.4334040000000  0.4954520000000 1.0
C      1  0.4719630000000  0.5660230000000  0.5217600000000 1.0
C      1  0.4956190000000  0.4334040000000  0.5353090000000 1.0
C      1  0.5219270000000  0.5660230000000  0.5281620000000 1.0
C      1  0.4983200000000  0.5931820000000  0.5709270000000 1.0
C      1  0.5490230000000  0.4062450000000  0.5514380000000 1.0
C      1  0.5710940000000  0.5931820000000  0.5018050000000 1.0
C      1  0.5516050000000  0.4062450000000  0.4511020000000 1.0
C      1  0.5019710000000  0.5931820000000  0.4290310000000 1.0
C      1  0.4512690000000  0.4062440000000  0.4485200000000 1.0
C      1  0.4291980000000  0.5931820000000  0.4981530000000 1.0
C      1  0.4486870000000  0.4062440000000  0.5488560000000 1.0
C      1  0.5461280000000  0.4989030000000  0.4900680000000 1.0
C      1  0.5256510000000  0.5005240000000  0.4604570000000 1.0
C      1  0.4902340000000  0.4989030000000  0.4539970000000 1.0
C      1  0.4606240000000  0.5005240000000  0.4744730000000 1.0
C      1  0.4541640000000  0.4989030000000  0.5098900000000 1.0
C      1  0.4746400000000  0.5005240000000  0.5395010000000 1.0
C      1  0.5100570000000  0.4989030000000  0.5459610000000 1.0
C      1  0.5396680000000  0.5005240000000  0.5254850000000 1.0
C      1  0.5108550000000  0.4184470000000  0.5781710000000 1.0
C      1  0.5630090000000  0.5809800000000  0.5476970000000 1.0
C      1  0.5783380000000  0.4184470000000  0.4892700000000 1.0
C      1  0.5478640000000  0.5809800000000  0.4371160000000 1.0
C      1  0.4894370000000  0.4184470000000  0.4217870000000 1.0
C      1  0.4372830000000  0.5809790000000  0.4522610000000 1.0
C      1  0.4219540000000  0.4184470000000  0.5106880000000 1.0
C      1  0.4524280000000  0.5809790000000  0.5628420000000 1.0
C      1  0.5120400000000  0.4337530000000  0.4346480000000 1.0
C      1  0.4623610000000  0.5656730000000  0.4453730000000 1.0
C      1  0.4348150000000  0.4337530000000  0.4880850000000 1.0
C      1  0.4455390000000  0.5656730000000  0.5377640000000 1.0
C      1  0.4882520000000  0.4337530000000  0.5653100000000 1.0
C      1  0.5379310000000  0.5656740000000  0.5545850000000 1.0
C      1  0.5654770000000  0.4337530000000  0.5118730000000 1.0
C      1  0.5547520000000  0.5656740000000  0.4621940000000 1.0
C      1  0.5017680000000  0.4038000000000  0.5310820000000 1.0
C      1  0.5232860000000  0.5956270000000  0.5208250000000 1.0
C      1  0.5312490000000  0.4038000000000  0.4983570000000 1.0
C      1  0.5209920000000  0.5956270000000  0.4768390000000 1.0
C      1  0.4985240000000  0.4038000000000  0.4688760000000 1.0
C      1  0.4770060000000  0.5956270000000  0.4791330000000 1.0
C      1  0.4690430000000  0.4038000000000  0.5016010000000 1.0
C      1  0.4793000000000  0.5956270000000  0.5231190000000 1.0
C      1  0.5011100000000  0.4982350000000  0.3979400000000 1.0
C      1  0.4286750000000  0.5011910000000  0.4271450000000 1.0
C      1  0.3981070000000  0.4982350000000  0.4990150000000 1.0
C      1  0.4273120000000  0.5011910000000  0.5714500000000 1.0
C      1  0.4991820000000  0.4982350000000  0.6020180000000 1.0
C      1  0.5716170000000  0.5011910000000  0.5728130000000 1.0
C      1  0.6021850000000  0.4982360000000  0.5009430000000 1.0
C      1  0.5729800000000  0.5011910000000  0.4285080000000 1.0
C      1  0.5923170000000  0.5481420000000  0.4864730000000 1.0
C      1  0.5557710000000  0.4512850000000  0.4252540000000 1.0
C      1  0.4866400000000  0.5481420000000  0.4078080000000 1.0
C      1  0.4254210000000  0.4512850000000  0.4443540000000 1.0
C      1  0.4079750000000  0.5481420000000  0.5134850000000 1.0
C      1  0.4445210000000  0.4512850000000  0.5747040000000 1.0
C      1  0.5136520000000  0.5481420000000  0.5921500000000 1.0
C      1  0.5748710000000  0.4512850000000  0.5556040000000 1.0
C      1  0.4779950000000  0.5111040000000  0.4305360000000 1.0
C      1  0.4353790000000  0.4883220000000  0.4665390000000 1.0
C      1  0.4307030000000  0.5111040000000  0.5221300000000 1.0
C      1  0.4667060000000  0.4883220000000  0.5647460000000 1.0
C      1  0.5222970000000  0.5111040000000  0.5694220000000 1.0
C      1  0.5649130000000  0.4883230000000  0.5334190000000 1.0
C      1  0.5695890000000  0.5111040000000  0.4778280000000 1.0
C      1  0.5335860000000  0.4883230000000  0.4352120000000 1.0
C      1  0.4452880000000  0.4334040000000  0.4582840000000 1.0
C      1  0.4318720000000  0.5660220000000  0.5092870000000 1.0
C      1  0.4584510000000  0.4334040000000  0.5548370000000 1.0
C      1  0.5094540000000  0.5660220000000  0.5682530000000 1.0
C      1  0.5550040000000  0.4334040000000  0.5416740000000 1.0
C      1  0.5684200000000  0.5660230000000  0.4906710000000 1.0
C      1  0.5418410000000  0.4334040000000  0.4451210000000 1.0
C      1  0.4908380000000  0.5660220000000  0.4317050000000 1.0
C      1  0.5001460000000  0.3917610000000  0.4999790000000 1.0
C      1  0.5001460000000  0.6076660000000  0.4999790000000 1.0
C      1  0.5001460000000  0.4997130000000  0.4999790000000 1.0
END
