TITL C-862132-7359-220 3.46632903179466e-05 125000 -292.177637067139 0 0 55 (Ci) n - 1
REM
REM in /home/nfs/bkarasulu/CARBON/AIRSS/Generating-Clusters/TERSOFF/Higher-Symm/FIRE-HFTN
REM
REM
REM
REM
REM
REM ./C.cell (b20cbc046b6831c77cfcea5457e17084)
REM AIRSS Version 0.9.1 bugfix July 2018 build 013d7b7c2542+ Fri, 06 Jul 2018 19:26:36 +0100
REM compiler GCC version 9.2.1 20190827 (Red Hat 9.2.1-1)
REM options -cpp -mtune=generic -march=x86-64 -g -O0 -fpre-include=/usr/include/finclude/math-vector-fortran.h
REM seed 1856493458 -487326008 -381423682 -1986350049 377545822 1068997650 -876427441 1476056235 517966683 -1036275763 -1823484577 1197989489 -918098436 813199137 -495791085 -1688537440 1018240344 -678415609 906797263 -11751035 2142096229 -1059793196 1928400242 1924751500 -1156983480 101359895 1525156067 -966121145 -871884330 859286478 -755520321 -1092335920 836781700
REM
CELL 1.54180   50.00000   50.00000   50.00000   90.00000   90.00000   90.00000
LATT -1
SFAC C  
C      1  0.4640100000000  0.4812670000000  0.5535210000000 1.0
C      1  0.5355690000000  0.5202810000000  0.4471120000000 1.0
C      1  0.5240980000000  0.4922510000000  0.4429670000000 1.0
C      1  0.4754820000000  0.5092970000000  0.5576660000000 1.0
C      1  0.5113120000000  0.4180800000000  0.4916980000000 1.0
C      1  0.4882670000000  0.5834680000000  0.5089360000000 1.0
C      1  0.4791620000000  0.4489870000000  0.5063910000000 1.0
C      1  0.5204170000000  0.5525610000000  0.4942420000000 1.0
C      1  0.4399370000000  0.4817780000000  0.4563390000000 1.0
C      1  0.5596420000000  0.5197710000000  0.5442950000000 1.0
C      1  0.5379630000000  0.5457800000000  0.5340000000000 1.0
C      1  0.4616160000000  0.4557680000000  0.4666340000000 1.0
C      1  0.4966440000000  0.4464280000000  0.5356340000000 1.0
C      1  0.5029350000000  0.5551210000000  0.4650000000000 1.0
C      1  0.5468090000000  0.5147810000000  0.4751440000000 1.0
C      1  0.4527700000000  0.4867680000000  0.5254890000000 1.0
C      1  0.4582950000000  0.5321290000000  0.5444340000000 1.0
C      1  0.5412840000000  0.4694200000000  0.4561990000000 1.0
C      1  0.5507600000000  0.4605900000000  0.5198300000000 1.0
C      1  0.4488190000000  0.5409590000000  0.4808040000000 1.0
C      1  0.5206680000000  0.4681140000000  0.5229540000000 1.0
C      1  0.4789110000000  0.5334350000000  0.4776790000000 1.0
C      1  0.4939560000000  0.5421690000000  0.5038720000000 1.0
C      1  0.5056230000000  0.4593800000000  0.4967620000000 1.0
C      1  0.5460090000000  0.4413890000000  0.4957350000000 1.0
C      1  0.4535700000000  0.5601600000000  0.5048980000000 1.0
C      1  0.5175620000000  0.4989170000000  0.5261080000000 1.0
C      1  0.4820170000000  0.5026320000000  0.4745260000000 1.0
C      1  0.5611490000000  0.4850900000000  0.5049870000000 1.0
C      1  0.4384300000000  0.5164590000000  0.4956470000000 1.0
C      1  0.5050640000000  0.4192970000000  0.5209140000000 1.0
C      1  0.4945160000000  0.5822520000000  0.4797200000000 1.0
C      1  0.5475330000000  0.5086390000000  0.5171890000000 1.0
C      1  0.4520460000000  0.4929100000000  0.4834440000000 1.0
C      1  0.5244680000000  0.4949530000000  0.4848710000000 1.0
C      1  0.4751110000000  0.5065960000000  0.5157630000000 1.0
C      1  0.5048210000000  0.5125700000000  0.5523990000000 1.0
C      1  0.4947580000000  0.4889790000000  0.4482340000000 1.0
C      1  0.4798420000000  0.4571240000000  0.5574830000000 1.0
C      1  0.5197370000000  0.5444250000000  0.4431510000000 1.0
C      1  0.4416530000000  0.5330080000000  0.4507560000000 1.0
C      1  0.5579260000000  0.4685410000000  0.5498780000000 1.0
C      1  0.4907730000000  0.4597470000000  0.4574850000000 1.0
C      1  0.5088070000000  0.5418020000000  0.5431490000000 1.0
C      1  0.5247270000000  0.5012130000000  0.5718840000000 1.0
C      1  0.4748520000000  0.5003360000000  0.4287500000000 1.0
C      1  0.4792340000000  0.5559830000000  0.5279460000000 1.0
C      1  0.5203450000000  0.4455660000000  0.4726880000000 1.0
C      1  0.4357890000000  0.5166430000000  0.5263750000000 1.0
C      1  0.5637910000000  0.4849060000000  0.4742580000000 1.0
C      1  0.5518840000000  0.4958320000000  0.5618110000000 1.0
C      1  0.4476950000000  0.5057170000000  0.4388230000000 1.0
C      1  0.5458230000000  0.5368820000000  0.4995460000000 1.0
C      1  0.4537570000000  0.4646670000000  0.5010870000000 1.0
C      1  0.4997900000000  0.5007740000000  0.5003170000000 1.0
END
