TITL C-862131-2149-1007 44.7094352928393 125000 -798.296143751832 0 0 138 (C1) n - 1
REM
REM in /home/nfs/bkarasulu/CARBON/AIRSS/Generating-Clusters/TERSOFF/Higher-Symm/FIRE-HFTN
REM
REM
REM
REM
REM
REM ./C.cell (b20cbc046b6831c77cfcea5457e17084)
REM AIRSS Version 0.9.1 bugfix July 2018 build 013d7b7c2542+ Fri, 06 Jul 2018 19:26:36 +0100
REM compiler GCC version 9.2.1 20190827 (Red Hat 9.2.1-1)
REM options -cpp -mtune=generic -march=x86-64 -g -O0 -fpre-include=/usr/include/finclude/math-vector-fortran.h
REM seed 819572450 76457896 -1883939866 1869529372 1579788033 490826287 1686727308 1360482116 542556977 -199318393 -522406564 1554844101 401057194 2128603844 1115809139 -417902542 -1738896372 217169562 213707338 1540027391 266184281 810788002 -1990089619 -226080131 719533299 -194936013 -1167460790 -1853183438 168365770 1399630250 -1035061734 1865117792 -1159407224
REM
CELL 1.54180   50.00000   50.00000   50.00000   90.00000   90.00000   90.00000
LATT -1
SFAC C  
C      1  0.4861020000000  0.4657640000000  0.5431090000000 1.0
C      1  0.5649600000000  0.5045980000000  0.4549870000000 1.0
C      1  0.5068820000000  0.4786820000000  0.4360250000000 1.0
C      1  0.4030030000000  0.5323190000000  0.4594310000000 1.0
C      1  0.4203800000000  0.5264000000000  0.5417220000000 1.0
C      1  0.5211750000000  0.4202710000000  0.5371330000000 1.0
C      1  0.4848840000000  0.5223040000000  0.4183490000000 1.0
C      1  0.5255970000000  0.5499460000000  0.5227300000000 1.0
C      1  0.4509470000000  0.5274640000000  0.4582040000000 1.0
C      1  0.5285260000000  0.5097620000000  0.4752320000000 1.0
C      1  0.4721950000000  0.5188470000000  0.6265880000000 1.0
C      1  0.4098830000000  0.5061500000000  0.5218540000000 1.0
C      1  0.4523700000000  0.5618980000000  0.4214360000000 1.0
C      1  0.5033470000000  0.4830380000000  0.3944590000000 1.0
C      1  0.5453970000000  0.3923400000000  0.4905330000000 1.0
C      1  0.5439990000000  0.5765670000000  0.5123840000000 1.0
C      1  0.4364530000000  0.4953750000000  0.4810730000000 1.0
C      1  0.4221720000000  0.5514990000000  0.5276190000000 1.0
C      1  0.5751730000000  0.4504180000000  0.5527980000000 1.0
C      1  0.5650160000000  0.4844610000000  0.5155680000000 1.0
C      1  0.3856040000000  0.4910800000000  0.5136830000000 1.0
C      1  0.4872400000000  0.5728880000000  0.4780070000000 1.0
C      1  0.5145000000000  0.5930960000000  0.4428300000000 1.0
C      1  0.4829640000000  0.5056740000000  0.5126390000000 1.0
C      1  0.4584100000000  0.4346790000000  0.5480550000000 1.0
C      1  0.5193990000000  0.6064490000000  0.4881710000000 1.0
C      1  0.4807350000000  0.5158330000000  0.4854210000000 1.0
C      1  0.5015690000000  0.5918270000000  0.5319190000000 1.0
C      1  0.4472520000000  0.5200710000000  0.5538360000000 1.0
C      1  0.5249990000000  0.4367830000000  0.5625670000000 1.0
C      1  0.6156170000000  0.5057390000000  0.4965790000000 1.0
C      1  0.5377710000000  0.4827060000000  0.4783270000000 1.0
C      1  0.4397660000000  0.4556400000000  0.5426030000000 1.0
C      1  0.5942680000000  0.4467780000000  0.5064480000000 1.0
C      1  0.5838870000000  0.4196830000000  0.5075700000000 1.0
C      1  0.3988500000000  0.5428660000000  0.4859720000000 1.0
C      1  0.5577820000000  0.5396220000000  0.4980590000000 1.0
C      1  0.4618510000000  0.5363890000000  0.4315870000000 1.0
C      1  0.3878960000000  0.4654130000000  0.4987690000000 1.0
C      1  0.4804130000000  0.4769830000000  0.4694960000000 1.0
C      1  0.4288100000000  0.4593160000000  0.4365280000000 1.0
C      1  0.5024090000000  0.5164650000000  0.4662260000000 1.0
C      1  0.4674420000000  0.5509830000000  0.5206970000000 1.0
C      1  0.5222130000000  0.4899620000000  0.5712560000000 1.0
C      1  0.4432040000000  0.5763000000000  0.5596290000000 1.0
C      1  0.4941430000000  0.5139790000000  0.6448190000000 1.0
C      1  0.5631190000000  0.4755500000000  0.4431990000000 1.0
C      1  0.4490550000000  0.5443940000000  0.4835260000000 1.0
C      1  0.4672860000000  0.3925120000000  0.4868130000000 1.0
C      1  0.4938960000000  0.5414460000000  0.5574130000000 1.0
C      1  0.4294660000000  0.5783140000000  0.4683840000000 1.0
C      1  0.4516950000000  0.5293100000000  0.5811900000000 1.0
C      1  0.5344810000000  0.5728920000000  0.5659340000000 1.0
C      1  0.4790730000000  0.4998650000000  0.3988950000000 1.0
C      1  0.4676510000000  0.4182760000000  0.5268060000000 1.0
C      1  0.5734970000000  0.5781940000000  0.4950590000000 1.0
C      1  0.4293320000000  0.4324010000000  0.4883990000000 1.0
C      1  0.4601790000000  0.5867310000000  0.4668700000000 1.0
C      1  0.4734210000000  0.5965680000000  0.5218610000000 1.0
C      1  0.5749710000000  0.4995960000000  0.4880670000000 1.0
C      1  0.4329610000000  0.4953420000000  0.5099470000000 1.0
C      1  0.4499110000000  0.4611610000000  0.4144870000000 1.0
C      1  0.4494890000000  0.4790310000000  0.5273980000000 1.0
C      1  0.4498440000000  0.4119880000000  0.5020240000000 1.0
C      1  0.4919320000000  0.4765850000000  0.5174940000000 1.0
C      1  0.5729580000000  0.4537320000000  0.4609180000000 1.0
C      1  0.4533350000000  0.4862290000000  0.4000410000000 1.0
C      1  0.4823530000000  0.4357980000000  0.4429880000000 1.0
C      1  0.4069460000000  0.4440260000000  0.5066110000000 1.0
C      1  0.5401840000000  0.5133410000000  0.4312060000000 1.0
C      1  0.5553340000000  0.4145570000000  0.5060780000000 1.0
C      1  0.6232870000000  0.4983710000000  0.5236850000000 1.0
C      1  0.4745400000000  0.4856100000000  0.5891230000000 1.0
C      1  0.4733190000000  0.5146680000000  0.5974750000000 1.0
C      1  0.4751490000000  0.4458380000000  0.4172400000000 1.0
C      1  0.4675440000000  0.6066510000000  0.4933690000000 1.0
C      1  0.5698920000000  0.4952580000000  0.5894730000000 1.0
C      1  0.5855030000000  0.5466680000000  0.4818350000000 1.0
C      1  0.5072620000000  0.5706850000000  0.5541350000000 1.0
C      1  0.5596660000000  0.5701950000000  0.5508040000000 1.0
C      1  0.5045690000000  0.4555730000000  0.4963640000000 1.0
C      1  0.4955650000000  0.3922910000000  0.4980890000000 1.0
C      1  0.4962840000000  0.5286560000000  0.5837200000000 1.0
C      1  0.4988550000000  0.4554140000000  0.4604950000000 1.0
C      1  0.5359200000000  0.5581530000000  0.4755670000000 1.0
C      1  0.4875180000000  0.5545690000000  0.5000950000000 1.0
C      1  0.5038820000000  0.5409500000000  0.4041630000000 1.0
C      1  0.4236010000000  0.5624320000000  0.4216480000000 1.0
C      1  0.5497110000000  0.4541740000000  0.5669820000000 1.0
C      1  0.4528730000000  0.4738250000000  0.4726600000000 1.0
C      1  0.5139150000000  0.4017990000000  0.4503800000000 1.0
C      1  0.4938140000000  0.5869270000000  0.4244000000000 1.0
C      1  0.5336360000000  0.4838760000000  0.6360000000000 1.0
C      1  0.5275360000000  0.4429660000000  0.4166830000000 1.0
C      1  0.5005010000000  0.5696710000000  0.4021390000000 1.0
C      1  0.4665790000000  0.5842470000000  0.4348470000000 1.0
C      1  0.5955430000000  0.4596530000000  0.4797840000000 1.0
C      1  0.4155260000000  0.5591750000000  0.4490370000000 1.0
C      1  0.4965730000000  0.4753310000000  0.5689380000000 1.0
C      1  0.5189470000000  0.3923700000000  0.4790600000000 1.0
C      1  0.5004010000000  0.4532670000000  0.4027440000000 1.0
C      1  0.6121780000000  0.4842230000000  0.4760990000000 1.0
C      1  0.4863550000000  0.4078410000000  0.4453110000000 1.0
C      1  0.4982080000000  0.5062540000000  0.4398440000000 1.0
C      1  0.5379660000000  0.5336630000000  0.6296390000000 1.0
C      1  0.5394530000000  0.4710140000000  0.4247360000000 1.0
C      1  0.5144640000000  0.5836730000000  0.4703420000000 1.0
C      1  0.5363620000000  0.4406500000000  0.5037180000000 1.0
C      1  0.4111120000000  0.4835000000000  0.4393690000000 1.0
C      1  0.4139700000000  0.4458620000000  0.5345870000000 1.0
C      1  0.4159030000000  0.5043930000000  0.4599930000000 1.0
C      1  0.5756260000000  0.5191460000000  0.5743870000000 1.0
C      1  0.5530590000000  0.5052140000000  0.5321610000000 1.0
C      1  0.5708930000000  0.5219720000000  0.5463460000000 1.0
C      1  0.5733940000000  0.5356570000000  0.4547940000000 1.0
C      1  0.5293060000000  0.5197990000000  0.5217240000000 1.0
C      1  0.4230930000000  0.5503640000000  0.4990600000000 1.0
C      1  0.5363830000000  0.4677430000000  0.6120820000000 1.0
C      1  0.4492810000000  0.5586140000000  0.5827310000000 1.0
C      1  0.5493460000000  0.4360310000000  0.4705380000000 1.0
C      1  0.5826060000000  0.4636510000000  0.5273560000000 1.0
C      1  0.4960420000000  0.4077760000000  0.5246960000000 1.0
C      1  0.4663790000000  0.3923510000000  0.4584010000000 1.0
C      1  0.5336080000000  0.4169120000000  0.4329860000000 1.0
C      1  0.6114020000000  0.5346260000000  0.4900130000000 1.0
C      1  0.5307510000000  0.4584110000000  0.4637430000000 1.0
C      1  0.5459240000000  0.4779600000000  0.5855440000000 1.0
C      1  0.4726510000000  0.5265290000000  0.5368520000000 1.0
C      1  0.5663740000000  0.5471620000000  0.5323340000000 1.0
C      1  0.5251480000000  0.5995030000000  0.5150950000000 1.0
C      1  0.4825300000000  0.4593210000000  0.6050970000000 1.0
C      1  0.5219150000000  0.5105030000000  0.6368200000000 1.0
C      1  0.5427480000000  0.4714920000000  0.5036190000000 1.0
C      1  0.5310830000000  0.4947680000000  0.4057130000000 1.0
C      1  0.4395100000000  0.4493690000000  0.4643090000000 1.0
C      1  0.4564340000000  0.5752010000000  0.5329090000000 1.0
C      1  0.5007740000000  0.4443130000000  0.5813900000000 1.0
C      1  0.5500330000000  0.5521330000000  0.4501950000000 1.0
END
