TITL C-862501-1041-59 0.00101657423640418 125000 -436.112083132384 0 0 81 (C3h) n - 1
REM
REM in /home/nfs/bkarasulu/CARBON/AIRSS/Generating-Clusters/TERSOFF/Higher-Symm/FIRE-HFTN
REM
REM
REM
REM
REM
REM ./C.cell (b20cbc046b6831c77cfcea5457e17084)
REM AIRSS Version 0.9.1 bugfix July 2018 build 013d7b7c2542+ Fri, 06 Jul 2018 19:26:36 +0100
REM compiler GCC version 9.2.1 20190827 (Red Hat 9.2.1-1)
REM options -cpp -mtune=generic -march=x86-64 -g -O0 -fpre-include=/usr/include/finclude/math-vector-fortran.h
REM seed 585321846 -811022049 1504262842 -368515635 -1376671155 1229072370 -1105540249 370823356 562663688 -1456527287 -1395716754 712214269 -696065842 -342605952 -1318983180 -349013424 -1763881011 849975752 1987657171 -461338957 -1254025685 1441839269 205580448 -537593793 1731739870 645200194 -1592324661 -117796461 741582749 671089800 1876047198 1152484631 -1727784912
REM
CELL 1.54180   50.00000   50.00000   50.00000   90.00000   90.00000   90.00000
LATT -1
SFAC C  
C      1  0.5628720000000  0.5269280000000  0.5220930000000 1.0
C      1  0.4876970000000  0.5269280000000  0.4345050000000 1.0
C      1  0.4494310000000  0.5269280000000  0.5434020000000 1.0
C      1  0.5628720000000  0.4741770000000  0.5220930000000 1.0
C      1  0.4876970000000  0.4741770000000  0.4345050000000 1.0
C      1  0.4494310000000  0.4741770000000  0.5434020000000 1.0
C      1  0.5380380000000  0.5343530000000  0.5642760000000 1.0
C      1  0.5366450000000  0.5343530000000  0.4349210000000 1.0
C      1  0.4253170000000  0.5343530000000  0.5008040000000 1.0
C      1  0.5380380000000  0.4667520000000  0.5642750000000 1.0
C      1  0.5366450000000  0.4667530000000  0.4349210000000 1.0
C      1  0.4253170000000  0.4667520000000  0.5008040000000 1.0
C      1  0.4878780000000  0.3932990000000  0.5160640000000 1.0
C      1  0.5199740000000  0.3932990000000  0.5024660000000 1.0
C      1  0.4921490000000  0.3932990000000  0.4814690000000 1.0
C      1  0.4878770000000  0.6078060000000  0.5160650000000 1.0
C      1  0.5199730000000  0.6078060000000  0.5024660000000 1.0
C      1  0.4921490000000  0.6078060000000  0.4814690000000 1.0
C      1  0.4989560000000  0.5146300000000  0.5707530000000 1.0
C      1  0.5617960000000  0.5146300000000  0.4655280000000 1.0
C      1  0.4392480000000  0.5146300000000  0.4637190000000 1.0
C      1  0.4989560000000  0.4864760000000  0.5707530000000 1.0
C      1  0.5617960000000  0.4864760000000  0.4655280000000 1.0
C      1  0.4392480000000  0.4864760000000  0.4637190000000 1.0
C      1  0.4752020000000  0.4757330000000  0.5275590000000 1.0
C      1  0.5362660000000  0.4757340000000  0.5076960000000 1.0
C      1  0.4885320000000  0.4757340000000  0.4647450000000 1.0
C      1  0.4752020000000  0.5253720000000  0.5275590000000 1.0
C      1  0.5362660000000  0.5253720000000  0.5076960000000 1.0
C      1  0.4885320000000  0.5253720000000  0.4647450000000 1.0
C      1  0.5030850000000  0.5247300000000  0.5431270000000 1.0
C      1  0.5358060000000  0.5247300000000  0.4757650000000 1.0
C      1  0.4611080000000  0.5247300000000  0.4811090000000 1.0
C      1  0.5030850000000  0.4763750000000  0.5431270000000 1.0
C      1  0.5358060000000  0.4763750000000  0.4757650000000 1.0
C      1  0.4611090000000  0.4763750000000  0.4811080000000 1.0
C      1  0.4579540000000  0.4286550000000  0.4682440000000 1.0
C      1  0.4935220000000  0.4286550000000  0.5522910000000 1.0
C      1  0.5485240000000  0.4286550000000  0.4794640000000 1.0
C      1  0.4579530000000  0.5724510000000  0.4682450000000 1.0
C      1  0.4935220000000  0.5724510000000  0.5522910000000 1.0
C      1  0.5485240000000  0.5724510000000  0.4794650000000 1.0
C      1  0.4766860000000  0.4156150000000  0.5309630000000 1.0
C      1  0.5384720000000  0.4156150000000  0.5047090000000 1.0
C      1  0.4848430000000  0.4156150000000  0.4643280000000 1.0
C      1  0.4766860000000  0.5854900000000  0.5309630000000 1.0
C      1  0.5384720000000  0.5854900000000  0.5047090000000 1.0
C      1  0.4848420000000  0.5854900000000  0.4643280000000 1.0
C      1  0.4861790000000  0.4523620000000  0.5131340000000 1.0
C      1  0.5182850000000  0.4523630000000  0.5054020000000 1.0
C      1  0.4955360000000  0.4523630000000  0.4814630000000 1.0
C      1  0.4861790000000  0.5487430000000  0.5131340000000 1.0
C      1  0.5182850000000  0.5487430000000  0.5054030000000 1.0
C      1  0.4955360000000  0.5487430000000  0.4814640000000 1.0
C      1  0.5147700000000  0.4846730000000  0.4253490000000 1.0
C      1  0.4279660000000  0.4846730000000  0.5245340000000 1.0
C      1  0.5572650000000  0.4846730000000  0.5501170000000 1.0
C      1  0.5147700000000  0.5164330000000  0.4253490000000 1.0
C      1  0.4279650000000  0.5164320000000  0.5245340000000 1.0
C      1  0.5572650000000  0.5164330000000  0.5501170000000 1.0
C      1  0.5311600000000  0.5549280000000  0.4602620000000 1.0
C      1  0.4500050000000  0.5549280000000  0.4928840000000 1.0
C      1  0.5188340000000  0.5549280000000  0.5468550000000 1.0
C      1  0.5311600000000  0.4461770000000  0.4602610000000 1.0
C      1  0.4500050000000  0.4461770000000  0.4928840000000 1.0
C      1  0.5188350000000  0.4461770000000  0.5468550000000 1.0
C      1  0.5859430000000  0.5149640000000  0.5086730000000 1.0
C      1  0.4645400000000  0.5149640000000  0.4212350000000 1.0
C      1  0.4495170000000  0.5149630000000  0.5700920000000 1.0
C      1  0.5859430000000  0.4861420000000  0.5086730000000 1.0
C      1  0.4645400000000  0.4861420000000  0.4212350000000 1.0
C      1  0.4495170000000  0.4861420000000  0.5700920000000 1.0
C      1  0.4518620000000  0.5718440000000  0.5202970000000 1.0
C      1  0.5416470000000  0.5718440000000  0.5315400000000 1.0
C      1  0.5064910000000  0.5718440000000  0.4481630000000 1.0
C      1  0.4518620000000  0.4292610000000  0.5202970000000 1.0
C      1  0.5416470000000  0.4292610000000  0.5315400000000 1.0
C      1  0.5064910000000  0.4292610000000  0.4481620000000 1.0
C      1  0.4702830000000  0.5005530000000  0.5057820000000 1.0
C      1  0.5098510000000  0.5005530000000  0.4713740000000 1.0
C      1  0.5198660000000  0.5005530000000  0.5228450000000 1.0
END
