TITL C-862131-2149-1063 98611.9888230886 125000 -1053.24605794941 0 0 180 (C1) n - 1
REM
REM in /home/nfs/bkarasulu/CARBON/AIRSS/Generating-Clusters/TERSOFF/Higher-Symm/FIRE-HFTN
REM
REM
REM
REM
REM
REM ./C.cell (b20cbc046b6831c77cfcea5457e17084)
REM AIRSS Version 0.9.1 bugfix July 2018 build 013d7b7c2542+ Fri, 06 Jul 2018 19:26:36 +0100
REM compiler GCC version 9.2.1 20190827 (Red Hat 9.2.1-1)
REM options -cpp -mtune=generic -march=x86-64 -g -O0 -fpre-include=/usr/include/finclude/math-vector-fortran.h
REM seed 1463463349 -2128662929 211249362 -171939536 1242021539 -176218556 448047708 -1179653772 1928028882 -524255045 -108896485 646940521 -1006514278 -438410126 1059416102 -380404008 -1857790241 2662883 666956686 -1413918024 -2004691182 -1980894905 808978525 1839039532 1522606794 -1917724637 1712701102 1204642321 359364703 52297273 374506858 2094951510 969505700
REM
CELL 1.54180   50.00000   50.00000   50.00000   90.00000   90.00000   90.00000
LATT -1
SFAC C  
C      1  0.5328640000000  0.4954670000000  0.3987990000000 1.0
C      1  0.5009080000000  0.4986110000000  0.4386040000000 1.0
C      1  0.5378840000000  0.6243380000000  0.4905430000000 1.0
C      1  0.4666800000000  0.4572870000000  0.4844250000000 1.0
C      1  0.5535300000000  0.4147670000000  0.5026130000000 1.0
C      1  0.4946670000000  0.5536480000000  0.4460840000000 1.0
C      1  0.5160490000000  0.4367760000000  0.4408860000000 1.0
C      1  0.4847040000000  0.4752070000000  0.4294240000000 1.0
C      1  0.5214760000000  0.4733820000000  0.5561250000000 1.0
C      1  0.4861600000000  0.5240430000000  0.4340610000000 1.0
C      1  0.5376390000000  0.4755280000000  0.5052670000000 1.0
C      1  0.4648150000000  0.4705880000000  0.5616950000000 1.0
C      1  0.5751850000000  0.5038100000000  0.5758100000000 1.0
C      1  0.5812130000000  0.4405800000000  0.5316640000000 1.0
C      1  0.4716420000000  0.5682180000000  0.5364380000000 1.0
C      1  0.4659470000000  0.5255340000000  0.5662260000000 1.0
C      1  0.6174030000000  0.5049770000000  0.5222380000000 1.0
C      1  0.4661270000000  0.6147240000000  0.4509490000000 1.0
C      1  0.4893650000000  0.4034670000000  0.4462760000000 1.0
C      1  0.5417020000000  0.5795510000000  0.5515450000000 1.0
C      1  0.5187170000000  0.5646020000000  0.5114700000000 1.0
C      1  0.4313490000000  0.4907330000000  0.5373960000000 1.0
C      1  0.5733930000000  0.5304720000000  0.5070900000000 1.0
C      1  0.4925500000000  0.4826400000000  0.5531280000000 1.0
C      1  0.4993650000000  0.5412620000000  0.4996050000000 1.0
C      1  0.4953190000000  0.4629490000000  0.3895430000000 1.0
C      1  0.4199050000000  0.5284700000000  0.5787480000000 1.0
C      1  0.5281210000000  0.6005840000000  0.4466540000000 1.0
C      1  0.3834590000000  0.4668840000000  0.4668000000000 1.0
C      1  0.5361860000000  0.4984470000000  0.5611730000000 1.0
C      1  0.5173240000000  0.5610550000000  0.4211490000000 1.0
C      1  0.5318560000000  0.3977140000000  0.4841260000000 1.0
C      1  0.4690660000000  0.4130940000000  0.5170270000000 1.0
C      1  0.5243020000000  0.5342460000000  0.5955490000000 1.0
C      1  0.6217740000000  0.4516170000000  0.4831480000000 1.0
C      1  0.4365110000000  0.5439720000000  0.4598230000000 1.0
C      1  0.4330240000000  0.5196200000000  0.4819740000000 1.0
C      1  0.6136750000000  0.5035280000000  0.5509720000000 1.0
C      1  0.5117650000000  0.3906220000000  0.5087700000000 1.0
C      1  0.4630970000000  0.5632080000000  0.4529090000000 1.0
C      1  0.4811060000000  0.4379020000000  0.5240010000000 1.0
C      1  0.4827990000000  0.5960160000000  0.5353850000000 1.0
C      1  0.5440770000000  0.3740820000000  0.4712190000000 1.0
C      1  0.5103860000000  0.4387960000000  0.4831310000000 1.0
C      1  0.5121690000000  0.5351730000000  0.5446590000000 1.0
C      1  0.4739150000000  0.4381990000000  0.5988060000000 1.0
C      1  0.4772870000000  0.5594490000000  0.3779330000000 1.0
C      1  0.5745010000000  0.4372240000000  0.4293160000000 1.0
C      1  0.4498660000000  0.5395110000000  0.5148860000000 1.0
C      1  0.4892890000000  0.4713660000000  0.5000370000000 1.0
C      1  0.6066160000000  0.5288720000000  0.5636510000000 1.0
C      1  0.5866250000000  0.5472620000000  0.5528950000000 1.0
C      1  0.5110040000000  0.4687720000000  0.6065510000000 1.0
C      1  0.4471140000000  0.4965440000000  0.5627570000000 1.0
C      1  0.5550730000000  0.4210090000000  0.4159610000000 1.0
C      1  0.4745430000000  0.3995600000000  0.5637230000000 1.0
C      1  0.4554990000000  0.4499170000000  0.5803960000000 1.0
C      1  0.4217550000000  0.5620740000000  0.4833750000000 1.0
C      1  0.5624830000000  0.5058340000000  0.5486070000000 1.0
C      1  0.5962910000000  0.5112080000000  0.5029920000000 1.0
C      1  0.5323900000000  0.5043250000000  0.5081070000000 1.0
C      1  0.4932580000000  0.4917700000000  0.6012450000000 1.0
C      1  0.5712830000000  0.4658370000000  0.4228570000000 1.0
C      1  0.4712470000000  0.5498080000000  0.4986910000000 1.0
C      1  0.4246890000000  0.5842370000000  0.5566980000000 1.0
C      1  0.4561240000000  0.5904170000000  0.4627180000000 1.0
C      1  0.5644720000000  0.5355210000000  0.5358160000000 1.0
C      1  0.5079910000000  0.5954200000000  0.5196440000000 1.0
C      1  0.5871220000000  0.4855600000000  0.4362870000000 1.0
C      1  0.4100530000000  0.4809830000000  0.4363240000000 1.0
C      1  0.5343140000000  0.5232100000000  0.4653640000000 1.0
C      1  0.4264590000000  0.4138730000000  0.4755510000000 1.0
C      1  0.4417250000000  0.4087410000000  0.5244820000000 1.0
C      1  0.5216990000000  0.3980990000000  0.5360540000000 1.0
C      1  0.4530500000000  0.3998530000000  0.4669920000000 1.0
C      1  0.5757550000000  0.4821930000000  0.5332240000000 1.0
C      1  0.5823600000000  0.6136540000000  0.5160710000000 1.0
C      1  0.3915540000000  0.4276910000000  0.5435790000000 1.0
C      1  0.6292820000000  0.4785820000000  0.4757800000000 1.0
C      1  0.5091710000000  0.5378780000000  0.4704750000000 1.0
C      1  0.4834690000000  0.3921580000000  0.5050350000000 1.0
C      1  0.5749040000000  0.5296420000000  0.4567020000000 1.0
C      1  0.4456700000000  0.5453400000000  0.5826970000000 1.0
C      1  0.4897560000000  0.4483870000000  0.4376750000000 1.0
C      1  0.4880720000000  0.6350510000000  0.4919690000000 1.0
C      1  0.5384590000000  0.5813090000000  0.4269980000000 1.0
C      1  0.5534840000000  0.6151320000000  0.5146940000000 1.0
C      1  0.5844660000000  0.4900280000000  0.4869790000000 1.0
C      1  0.5038950000000  0.4908340000000  0.3955030000000 1.0
C      1  0.4462160000000  0.4107070000000  0.5542960000000 1.0
C      1  0.5747110000000  0.4406580000000  0.4997460000000 1.0
C      1  0.4347560000000  0.4336820000000  0.5688020000000 1.0
C      1  0.5670730000000  0.4711970000000  0.5058560000000 1.0
C      1  0.4227540000000  0.5521730000000  0.5155370000000 1.0
C      1  0.3966530000000  0.4784890000000  0.4901390000000 1.0
C      1  0.5278240000000  0.4984580000000  0.4488200000000 1.0
C      1  0.4685290000000  0.4576580000000  0.3794770000000 1.0
C      1  0.4091450000000  0.4461810000000  0.5593510000000 1.0
C      1  0.5786920000000  0.5004050000000  0.4595530000000 1.0
C      1  0.4959380000000  0.5712370000000  0.6098130000000 1.0
C      1  0.4287540000000  0.5004400000000  0.5879330000000 1.0
C      1  0.5042710000000  0.4097520000000  0.5580170000000 1.0
C      1  0.4818320000000  0.5461770000000  0.6211160000000 1.0
C      1  0.4638390000000  0.4596590000000  0.5329510000000 1.0
C      1  0.3966640000000  0.4321940000000  0.5144640000000 1.0
C      1  0.4834710000000  0.5448120000000  0.5494060000000 1.0
C      1  0.5527610000000  0.4731300000000  0.3999510000000 1.0
C      1  0.4913520000000  0.5056380000000  0.5746410000000 1.0
C      1  0.4233760000000  0.5310700000000  0.4340080000000 1.0
C      1  0.4348280000000  0.5345710000000  0.4064760000000 1.0
C      1  0.5489880000000  0.5206200000000  0.4916420000000 1.0
C      1  0.5100110000000  0.4406370000000  0.5250890000000 1.0
C      1  0.5026510000000  0.5454810000000  0.3752560000000 1.0
C      1  0.5590510000000  0.4596840000000  0.5906520000000 1.0
C      1  0.5280320000000  0.4301950000000  0.4154260000000 1.0
C      1  0.5474680000000  0.4378930000000  0.5726580000000 1.0
C      1  0.3987320000000  0.5339920000000  0.5586390000000 1.0
C      1  0.4240950000000  0.4632690000000  0.4568230000000 1.0
C      1  0.3888840000000  0.5162090000000  0.4646630000000 1.0
C      1  0.4438040000000  0.5733990000000  0.5754330000000 1.0
C      1  0.4511680000000  0.3872000000000  0.4399280000000 1.0
C      1  0.5140540000000  0.4148450000000  0.4644720000000 1.0
C      1  0.4518990000000  0.5020480000000  0.4684970000000 1.0
C      1  0.5057810000000  0.5278630000000  0.6186090000000 1.0
C      1  0.5101990000000  0.6176850000000  0.4986240000000 1.0
C      1  0.5180110000000  0.4291990000000  0.5770200000000 1.0
C      1  0.5837150000000  0.4767210000000  0.5843590000000 1.0
C      1  0.3981350000000  0.4624230000000  0.5144190000000 1.0
C      1  0.4044100000000  0.5083460000000  0.4886080000000 1.0
C      1  0.5658990000000  0.5719680000000  0.4302680000000 1.0
C      1  0.4694690000000  0.3810140000000  0.4832340000000 1.0
C      1  0.4083970000000  0.4725300000000  0.5404160000000 1.0
C      1  0.4423310000000  0.4271160000000  0.4303320000000 1.0
C      1  0.5484310000000  0.4087190000000  0.5312160000000 1.0
C      1  0.6067760000000  0.4777600000000  0.5645070000000 1.0
C      1  0.4341840000000  0.5899270000000  0.4824610000000 1.0
C      1  0.4445700000000  0.5092770000000  0.6128640000000 1.0
C      1  0.5152130000000  0.5785610000000  0.4620670000000 1.0
C      1  0.5181630000000  0.5197470000000  0.5701870000000 1.0
C      1  0.5154630000000  0.4406260000000  0.3906230000000 1.0
C      1  0.5734420000000  0.5439410000000  0.4311050000000 1.0
C      1  0.4553540000000  0.5375480000000  0.6111380000000 1.0
C      1  0.5906660000000  0.4265590000000  0.4519110000000 1.0
C      1  0.5206520000000  0.5434130000000  0.3981550000000 1.0
C      1  0.4625700000000  0.6114780000000  0.5193670000000 1.0
C      1  0.5444500000000  0.6188680000000  0.4626480000000 1.0
C      1  0.5099350000000  0.5332870000000  0.3498860000000 1.0
C      1  0.4246570000000  0.4343770000000  0.4525920000000 1.0
C      1  0.4467720000000  0.4742770000000  0.4715720000000 1.0
C      1  0.5346650000000  0.6016460000000  0.5340280000000 1.0
C      1  0.4558590000000  0.5173230000000  0.3938300000000 1.0
C      1  0.6420610000000  0.4859460000000  0.4508750000000 1.0
C      1  0.4835950000000  0.5144890000000  0.4038240000000 1.0
C      1  0.5363560000000  0.4728480000000  0.4574310000000 1.0
C      1  0.4706540000000  0.4285600000000  0.4741880000000 1.0
C      1  0.4204060000000  0.4175320000000  0.5047540000000 1.0
C      1  0.4033270000000  0.5100530000000  0.4402050000000 1.0
C      1  0.4255070000000  0.5800960000000  0.5280810000000 1.0
C      1  0.5413650000000  0.5226370000000  0.3988640000000 1.0
C      1  0.5957090000000  0.4396450000000  0.4780670000000 1.0
C      1  0.5625030000000  0.4260680000000  0.5500460000000 1.0
C      1  0.5019810000000  0.4429620000000  0.5975030000000 1.0
C      1  0.4761210000000  0.6370460000000  0.4659060000000 1.0
C      1  0.5071970000000  0.5161530000000  0.5187080000000 1.0
C      1  0.4867590000000  0.6074920000000  0.5624510000000 1.0
C      1  0.5372620000000  0.5531020000000  0.5371450000000 1.0
C      1  0.4717150000000  0.4252220000000  0.4323420000000 1.0
C      1  0.4897590000000  0.4919940000000  0.5233290000000 1.0
C      1  0.4597050000000  0.5116850000000  0.4420400000000 1.0
C      1  0.4607520000000  0.4806680000000  0.4137410000000 1.0
C      1  0.4026040000000  0.5352540000000  0.5292460000000 1.0
C      1  0.4376250000000  0.5999240000000  0.5102480000000 1.0
C      1  0.5269530000000  0.4622230000000  0.4820700000000 1.0
C      1  0.4489340000000  0.4787310000000  0.5158550000000 1.0
C      1  0.5679440000000  0.5289960000000  0.4073830000000 1.0
C      1  0.5879240000000  0.5757660000000  0.5582550000000 1.0
C      1  0.5376790000000  0.5818530000000  0.5801820000000 1.0
C      1  0.5397050000000  0.4719290000000  0.6091300000000 1.0
C      1  0.5307160000000  0.5706930000000  0.4853930000000 1.0
C      1  0.5214480000000  0.5639490000000  0.5959450000000 1.0
END
