TITL C-862501-1041-1072 -0.0564100833877573 125000 -935.51503252816 0 0 172 (C1) n - 1
REM
REM in /home/nfs/bkarasulu/CARBON/AIRSS/Generating-Clusters/TERSOFF/Higher-Symm/FIRE-HFTN
REM
REM
REM
REM
REM
REM ./C.cell (b20cbc046b6831c77cfcea5457e17084)
REM AIRSS Version 0.9.1 bugfix July 2018 build 013d7b7c2542+ Fri, 06 Jul 2018 19:26:36 +0100
REM compiler GCC version 9.2.1 20190827 (Red Hat 9.2.1-1)
REM options -cpp -mtune=generic -march=x86-64 -g -O0 -fpre-include=/usr/include/finclude/math-vector-fortran.h
REM seed 1317328069 -1222235782 -543741618 76309370 -763929552 -2034252877 293618478 -1019667184 -1879800558 316835008 -1737406255 1249506942 -1669142912 -1978473057 -749363804 1763965305 1077625224 1617619888 1963997818 1818081454 -2121926479 2042383602 1103238769 -1427200455 -1159219951 -1178030825 813720953 533366802 2051555355 -1659594791 1231546208 1049886439 -2026852419
REM
CELL 1.54180   50.00000   50.00000   50.00000   90.00000   90.00000   90.00000
LATT -1
SFAC C  
C      1  0.4168920000000  0.5112160000000  0.5568740000000 1.0
C      1  0.5883340000000  0.5159430000000  0.5449820000000 1.0
C      1  0.4903850000000  0.5153630000000  0.3994300000000 1.0
C      1  0.4167190000000  0.4828390000000  0.5544960000000 1.0
C      1  0.5907240000000  0.4877070000000  0.5435630000000 1.0
C      1  0.4896340000000  0.4872530000000  0.4006530000000 1.0
C      1  0.5156560000000  0.4728330000000  0.4032660000000 1.0
C      1  0.4079420000000  0.4703290000000  0.5277780000000 1.0
C      1  0.5778100000000  0.4716060000000  0.5654190000000 1.0
C      1  0.5177190000000  0.5285800000000  0.3998170000000 1.0
C      1  0.4056440000000  0.5273140000000  0.5344400000000 1.0
C      1  0.5693590000000  0.5279190000000  0.5663910000000 1.0
C      1  0.4448070000000  0.5897930000000  0.5523820000000 1.0
C      1  0.5719160000000  0.5889510000000  0.5220890000000 1.0
C      1  0.4843970000000  0.5902460000000  0.4279560000000 1.0
C      1  0.4470440000000  0.4098360000000  0.5505880000000 1.0
C      1  0.5717440000000  0.4093980000000  0.5212930000000 1.0
C      1  0.4774300000000  0.4099680000000  0.4279720000000 1.0
C      1  0.4111200000000  0.5597500000000  0.4258860000000 1.0
C      1  0.4939790000000  0.5489980000000  0.5964870000000 1.0
C      1  0.6109300000000  0.5600740000000  0.4605400000000 1.0
C      1  0.4172510000000  0.4508330000000  0.4474170000000 1.0
C      1  0.4786700000000  0.4374090000000  0.6120340000000 1.0
C      1  0.5852160000000  0.4512580000000  0.4569280000000 1.0
C      1  0.5580520000000  0.5467290000000  0.5020110000000 1.0
C      1  0.4740010000000  0.5485620000000  0.4481680000000 1.0
C      1  0.4701700000000  0.5512050000000  0.5544320000000 1.0
C      1  0.5608620000000  0.4479510000000  0.4995700000000 1.0
C      1  0.4691600000000  0.4495050000000  0.4463190000000 1.0
C      1  0.4705650000000  0.4526920000000  0.5506010000000 1.0
C      1  0.5210580000000  0.4071230000000  0.5805390000000 1.0
C      1  0.5516160000000  0.3938690000000  0.4418000000000 1.0
C      1  0.4278560000000  0.3890340000000  0.4780350000000 1.0
C      1  0.5182220000000  0.6103230000000  0.5742610000000 1.0
C      1  0.5606420000000  0.5941520000000  0.4435600000000 1.0
C      1  0.4220500000000  0.5941390000000  0.4778610000000 1.0
C      1  0.5500030000000  0.4784800000000  0.4624510000000 1.0
C      1  0.4408560000000  0.4773160000000  0.4755490000000 1.0
C      1  0.5039600000000  0.4876990000000  0.5648610000000 1.0
C      1  0.5562760000000  0.5126320000000  0.4650890000000 1.0
C      1  0.4438900000000  0.5127120000000  0.4689250000000 1.0
C      1  0.5099440000000  0.5232150000000  0.5637170000000 1.0
C      1  0.4885320000000  0.5213650000000  0.5997230000000 1.0
C      1  0.5942100000000  0.5361200000000  0.4625020000000 1.0
C      1  0.4209420000000  0.5356900000000  0.4393130000000 1.0
C      1  0.4850790000000  0.4627930000000  0.5989760000000 1.0
C      1  0.5917970000000  0.4785200000000  0.4592400000000 1.0
C      1  0.4170030000000  0.4781540000000  0.4410830000000 1.0
C      1  0.4809750000000  0.5597160000000  0.4205200000000 1.0
C      1  0.4411170000000  0.5582830000000  0.5601290000000 1.0
C      1  0.5727880000000  0.5585070000000  0.5259000000000 1.0
C      1  0.4780470000000  0.4405720000000  0.4186420000000 1.0
C      1  0.4424550000000  0.4404240000000  0.5502590000000 1.0
C      1  0.5817320000000  0.4408110000000  0.5206070000000 1.0
C      1  0.5143170000000  0.5578770000000  0.5745770000000 1.0
C      1  0.5522160000000  0.5467770000000  0.4540570000000 1.0
C      1  0.4361760000000  0.5463470000000  0.4795690000000 1.0
C      1  0.5163460000000  0.4538370000000  0.5671280000000 1.0
C      1  0.5554730000000  0.4441980000000  0.4510490000000 1.0
C      1  0.4292070000000  0.4424250000000  0.4748840000000 1.0
C      1  0.4230780000000  0.4458300000000  0.5270930000000 1.0
C      1  0.5758240000000  0.4450510000000  0.5517250000000 1.0
C      1  0.5082320000000  0.4455410000000  0.4101230000000 1.0
C      1  0.4180380000000  0.5536410000000  0.5387010000000 1.0
C      1  0.5621930000000  0.5530270000000  0.5540790000000 1.0
C      1  0.5098190000000  0.5546540000000  0.4104810000000 1.0
C      1  0.5508960000000  0.6063860000000  0.5345400000000 1.0
C      1  0.5100990000000  0.6015000000000  0.4384120000000 1.0
C      1  0.4414260000000  0.6009940000000  0.5246170000000 1.0
C      1  0.5497340000000  0.3988810000000  0.5390730000000 1.0
C      1  0.5012540000000  0.3956000000000  0.4389040000000 1.0
C      1  0.4464760000000  0.3926920000000  0.5258630000000 1.0
C      1  0.4627900000000  0.5089790000000  0.5873960000000 1.0
C      1  0.5949640000000  0.5199710000000  0.4898080000000 1.0
C      1  0.4429980000000  0.5191840000000  0.4250860000000 1.0
C      1  0.4611720000000  0.4793210000000  0.5867010000000 1.0
C      1  0.5941600000000  0.4905500000000  0.4879730000000 1.0
C      1  0.4408240000000  0.4897840000000  0.4254550000000 1.0
C      1  0.5165340000000  0.4754490000000  0.6028510000000 1.0
C      1  0.5774920000000  0.4932900000000  0.4344640000000 1.0
C      1  0.4036630000000  0.4934260000000  0.4646470000000 1.0
C      1  0.5155090000000  0.5059730000000  0.6015600000000 1.0
C      1  0.5793030000000  0.5238960000000  0.4320550000000 1.0
C      1  0.4036730000000  0.5240360000000  0.4657740000000 1.0
C      1  0.5459690000000  0.4853230000000  0.4181940000000 1.0
C      1  0.4031170000000  0.4858800000000  0.4999210000000 1.0
C      1  0.5480920000000  0.4801340000000  0.5839360000000 1.0
C      1  0.5473690000000  0.5170780000000  0.4151780000000 1.0
C      1  0.4035560000000  0.5174650000000  0.5020210000000 1.0
C      1  0.5461350000000  0.5120740000000  0.5834690000000 1.0
C      1  0.4978420000000  0.6113260000000  0.5528000000000 1.0
C      1  0.5544230000000  0.6027920000000  0.4711750000000 1.0
C      1  0.4488020000000  0.6036220000000  0.4697290000000 1.0
C      1  0.4997140000000  0.3970530000000  0.5626840000000 1.0
C      1  0.5466730000000  0.3889340000000  0.4705200000000 1.0
C      1  0.4564130000000  0.3892400000000  0.4702670000000 1.0
C      1  0.4822530000000  0.4738590000000  0.4816250000000 1.0
C      1  0.4918640000000  0.4753380000000  0.5224080000000 1.0
C      1  0.5223450000000  0.4725650000000  0.4937920000000 1.0
C      1  0.4835920000000  0.5251940000000  0.4831980000000 1.0
C      1  0.4937020000000  0.5260620000000  0.5238960000000 1.0
C      1  0.5238100000000  0.5235370000000  0.4948640000000 1.0
C      1  0.4480770000000  0.4785360000000  0.5187840000000 1.0
C      1  0.5401750000000  0.4660810000000  0.5347990000000 1.0
C      1  0.5132980000000  0.4669950000000  0.4458040000000 1.0
C      1  0.4491000000000  0.5337790000000  0.5185860000000 1.0
C      1  0.5413640000000  0.5211080000000  0.5359330000000 1.0
C      1  0.5125950000000  0.5294560000000  0.4459940000000 1.0
C      1  0.4745800000000  0.5430220000000  0.5079740000000 1.0
C      1  0.5215710000000  0.5392760000000  0.5214180000000 1.0
C      1  0.5079820000000  0.5406950000000  0.4732600000000 1.0
C      1  0.4698810000000  0.4601360000000  0.5074990000000 1.0
C      1  0.5176080000000  0.4569780000000  0.5189950000000 1.0
C      1  0.5062050000000  0.4571150000000  0.4726070000000 1.0
C      1  0.5288660000000  0.4377440000000  0.4308960000000 1.0
C      1  0.4226710000000  0.4294960000000  0.5037040000000 1.0
C      1  0.5461610000000  0.4449730000000  0.5583090000000 1.0
C      1  0.5305180000000  0.5551370000000  0.4320790000000 1.0
C      1  0.4262210000000  0.5555870000000  0.5096650000000 1.0
C      1  0.5427000000000  0.5699430000000  0.5663980000000 1.0
C      1  0.5055980000000  0.5704830000000  0.4760250000000 1.0
C      1  0.4795900000000  0.5722140000000  0.5088790000000 1.0
C      1  0.5226380000000  0.5693270000000  0.5173340000000 1.0
C      1  0.5026800000000  0.4280330000000  0.4752780000000 1.0
C      1  0.4737700000000  0.4298270000000  0.5110230000000 1.0
C      1  0.5155000000000  0.4277410000000  0.5152080000000 1.0
C      1  0.5938830000000  0.5334570000000  0.5193820000000 1.0
C      1  0.4669830000000  0.5321930000000  0.4101360000000 1.0
C      1  0.4389740000000  0.5256990000000  0.5731940000000 1.0
C      1  0.5935180000000  0.4734210000000  0.5160600000000 1.0
C      1  0.4645490000000  0.4724970000000  0.4110530000000 1.0
C      1  0.4365280000000  0.4657080000000  0.5714240000000 1.0
C      1  0.5510900000000  0.4297190000000  0.4795090000000 1.0
C      1  0.4569580000000  0.4318440000000  0.4653770000000 1.0
C      1  0.4936710000000  0.4373950000000  0.5527370000000 1.0
C      1  0.5493740000000  0.5621960000000  0.4806530000000 1.0
C      1  0.4603520000000  0.5632790000000  0.4681320000000 1.0
C      1  0.4920120000000  0.5698260000000  0.5555550000000 1.0
C      1  0.4748120000000  0.4127770000000  0.4832590000000 1.0
C      1  0.4959110000000  0.4118300000000  0.5336590000000 1.0
C      1  0.5264870000000  0.4095750000000  0.4860950000000 1.0
C      1  0.4748370000000  0.5884310000000  0.4821900000000 1.0
C      1  0.4990510000000  0.5875730000000  0.5302570000000 1.0
C      1  0.5306710000000  0.5869220000000  0.4867890000000 1.0
C      1  0.5247960000000  0.6110380000000  0.5206460000000 1.0
C      1  0.5134100000000  0.6106010000000  0.4666970000000 1.0
C      1  0.4641910000000  0.6111920000000  0.5080540000000 1.0
C      1  0.5233500000000  0.3889190000000  0.5289430000000 1.0
C      1  0.5048440000000  0.3868860000000  0.4677690000000 1.0
C      1  0.4712860000000  0.3880470000000  0.5094770000000 1.0
C      1  0.4686210000000  0.4777580000000  0.4545530000000 1.0
C      1  0.4777900000000  0.4820620000000  0.5482510000000 1.0
C      1  0.5520440000000  0.4752460000000  0.4945530000000 1.0
C      1  0.4723470000000  0.5194390000000  0.4551090000000 1.0
C      1  0.4793760000000  0.5239050000000  0.5501710000000 1.0
C      1  0.5535510000000  0.5171590000000  0.4959510000000 1.0
C      1  0.5268620000000  0.4068090000000  0.4308140000000 1.0
C      1  0.4255080000000  0.4000610000000  0.5063600000000 1.0
C      1  0.5443620000000  0.4146760000000  0.5630090000000 1.0
C      1  0.5341910000000  0.5860900000000  0.4313810000000 1.0
C      1  0.4237310000000  0.5859790000000  0.5068280000000 1.0
C      1  0.5442030000000  0.5993760000000  0.5625340000000 1.0
C      1  0.5686840000000  0.4175000000000  0.4382430000000 1.0
C      1  0.4157090000000  0.4130780000000  0.4656840000000 1.0
C      1  0.5151870000000  0.4345010000000  0.5914900000000 1.0
C      1  0.5733100000000  0.5669740000000  0.4431870000000 1.0
C      1  0.4163360000000  0.5669660000000  0.4669310000000 1.0
C      1  0.5125610000000  0.5862210000000  0.5907920000000 1.0
C      1  0.4538700000000  0.5040580000000  0.5383570000000 1.0
C      1  0.4953930000000  0.4980120000000  0.4408070000000 1.0
C      1  0.5556430000000  0.4952090000000  0.5217810000000 1.0
C      1  0.4995480000000  0.4995750000000  0.5000470000000 1.0
END
