TITL C-862507-1800-830 -0.00954462264462223 125000 -554.692985749581 0 0 99 (C5) n - 1
REM
REM in /home/nfs/bkarasulu/CARBON/AIRSS/Generating-Clusters/TERSOFF/Higher-Symm/FIRE-HFTN
REM
REM
REM
REM
REM
REM ./C.cell (b20cbc046b6831c77cfcea5457e17084)
REM AIRSS Version 0.9.1 bugfix July 2018 build 013d7b7c2542+ Fri, 06 Jul 2018 19:26:36 +0100
REM compiler GCC version 9.2.1 20190827 (Red Hat 9.2.1-1)
REM options -cpp -mtune=generic -march=x86-64 -g -O0 -fpre-include=/usr/include/finclude/math-vector-fortran.h
REM seed 552706361 -818400381 -911820556 634420041 -41832412 -1017470776 -77903628 -980958382 -1449537796 -1577460925 -881688348 1592340573 1843247504 -496454322 -96685698 -168239173 1390697867 -2059237467 880516126 -873277238 938247685 603933382 2074782977 504314503 -208559118 78535451 -1698684200 -67340955 432877301 -56983790 171878901 -141793697 -2114611777
REM
CELL 1.54180   50.00000   50.00000   50.00000   90.00000   90.00000   90.00000
LATT -1
SFAC C  
C      1  0.4608310000000  0.4312310000000  0.5557710000000 1.0
C      1  0.4608320000000  0.4256890000000  0.4522590000000 1.0
C      1  0.4608320000000  0.5224220000000  0.4150020000000 1.0
C      1  0.4608330000000  0.5877480000000  0.4954870000000 1.0
C      1  0.4608320000000  0.5313890000000  0.5824880000000 1.0
C      1  0.5448580000000  0.4371260000000  0.4609700000000 1.0
C      1  0.5448590000000  0.5176720000000  0.4285720000000 1.0
C      1  0.5448590000000  0.5733740000000  0.4951640000000 1.0
C      1  0.5448590000000  0.5272550000000  0.5687170000000 1.0
C      1  0.5448580000000  0.4430490000000  0.5475850000000 1.0
C      1  0.5690970000000  0.4494640000000  0.4501830000000 1.0
C      1  0.5690980000000  0.5317430000000  0.4369720000000 1.0
C      1  0.5690980000000  0.5697330000000  0.5111420000000 1.0
C      1  0.5690970000000  0.5109330000000  0.5701930000000 1.0
C      1  0.5690970000000  0.4366020000000  0.5325180000000 1.0
C      1  0.5306380000000  0.5621230000000  0.4460410000000 1.0
C      1  0.5306380000000  0.5704970000000  0.5428370000000 1.0
C      1  0.5306370000000  0.4810250000000  0.5807130000000 1.0
C      1  0.5306370000000  0.4173550000000  0.5073250000000 1.0
C      1  0.5306370000000  0.4674760000000  0.4240930000000 1.0
C      1  0.4095140000000  0.4742030000000  0.4934640000000 1.0
C      1  0.4095140000000  0.4982260000000  0.4738740000000 1.0
C      1  0.4095140000000  0.5242800000000  0.4906680000000 1.0
C      1  0.4095140000000  0.5163600000000  0.5206360000000 1.0
C      1  0.4095140000000  0.4854110000000  0.5223640000000 1.0
C      1  0.4361340000000  0.5244680000000  0.4328040000000 1.0
C      1  0.4361340000000  0.5714500000000  0.5029340000000 1.0
C      1  0.4361330000000  0.5192700000000  0.5692880000000 1.0
C      1  0.4361330000000  0.4400390000000  0.5401670000000 1.0
C      1  0.4361330000000  0.4432520000000  0.4558150000000 1.0
C      1  0.4279080000000  0.5480620000000  0.4816140000000 1.0
C      1  0.4279070000000  0.5323200000000  0.5404560000000 1.0
C      1  0.4279070000000  0.4714930000000  0.5436680000000 1.0
C      1  0.4279070000000  0.4496420000000  0.4868100000000 1.0
C      1  0.4279070000000  0.4969640000000  0.4484590000000 1.0
C      1  0.5076330000000  0.5157190000000  0.5223330000000 1.0
C      1  0.5076330000000  0.4835990000000  0.5222790000000 1.0
C      1  0.5076330000000  0.4737240000000  0.4917150000000 1.0
C      1  0.5076330000000  0.4997410000000  0.4728790000000 1.0
C      1  0.5076330000000  0.5256950000000  0.4918020000000 1.0
C      1  0.5479730000000  0.4698110000000  0.5604260000000 1.0
C      1  0.5479730000000  0.4331830000000  0.4903910000000 1.0
C      1  0.5479740000000  0.4884720000000  0.4339130000000 1.0
C      1  0.5479740000000  0.5592710000000  0.4690440000000 1.0
C      1  0.5479740000000  0.5477380000000  0.5472330000000 1.0
C      1  0.4831020000000  0.4550560000000  0.4854720000000 1.0
C      1  0.4831030000000  0.4999100000000  0.4531950000000 1.0
C      1  0.4831030000000  0.5444680000000  0.4858790000000 1.0
C      1  0.4831030000000  0.5271520000000  0.5383560000000 1.0
C      1  0.4831020000000  0.4718920000000  0.5381050000000 1.0
C      1  0.5150120000000  0.4429260000000  0.4442300000000 1.0
C      1  0.5150130000000  0.5353850000000  0.4289150000000 1.0
C      1  0.5150130000000  0.5785220000000  0.5121160000000 1.0
C      1  0.5150120000000  0.5127230000000  0.5788510000000 1.0
C      1  0.5150120000000  0.4289210000000  0.5368960000000 1.0
C      1  0.4717870000000  0.5548840000000  0.5313550000000 1.0
C      1  0.4717860000000  0.4871210000000  0.5623160000000 1.0
C      1  0.4717860000000  0.4367350000000  0.5074370000000 1.0
C      1  0.4717860000000  0.4733590000000  0.4425580000000 1.0
C      1  0.4717870000000  0.5463790000000  0.4573410000000 1.0
C      1  0.4896970000000  0.4887140000000  0.5856110000000 1.0
C      1  0.4896960000000  0.4150730000000  0.5161500000000 1.0
C      1  0.4896970000000  0.4583780000000  0.4246490000000 1.0
C      1  0.4896980000000  0.5587820000000  0.4375590000000 1.0
C      1  0.4896980000000  0.5775310000000  0.5370390000000 1.0
C      1  0.4955380000000  0.4580280000000  0.5811080000000 1.0
C      1  0.4955380000000  0.4098730000000  0.4855750000000 1.0
C      1  0.4955390000000  0.4858500000000  0.4102550000000 1.0
C      1  0.4955390000000  0.5809610000000  0.4592390000000 1.0
C      1  0.4955390000000  0.5637660000000  0.5648310000000 1.0
C      1  0.4427410000000  0.5581130000000  0.5291540000000 1.0
C      1  0.4427400000000  0.4902120000000  0.5647070000000 1.0
C      1  0.4427400000000  0.4354170000000  0.5111150000000 1.0
C      1  0.4427400000000  0.4694530000000  0.4424410000000 1.0
C      1  0.4427410000000  0.5452840000000  0.4535900000000 1.0
C      1  0.5713240000000  0.5431120000000  0.4633910000000 1.0
C      1  0.5713240000000  0.5481210000000  0.5301180000000 1.0
C      1  0.5713240000000  0.4862070000000  0.5555020000000 1.0
C      1  0.5713240000000  0.4429330000000  0.5044620000000 1.0
C      1  0.5713240000000  0.4781020000000  0.4475350000000 1.0
C      1  0.4886500000000  0.5755370000000  0.4891250000000 1.0
C      1  0.4886490000000  0.5336670000000  0.5689090000000 1.0
C      1  0.4886490000000  0.4448490000000  0.5537420000000 1.0
C      1  0.4886490000000  0.4318270000000  0.4645840000000 1.0
C      1  0.4886500000000  0.5125970000000  0.4246490000000 1.0
C      1  0.5881860000000  0.4644600000000  0.4943500000000 1.0
C      1  0.5881870000000  0.4943720000000  0.4648830000000 1.0
C      1  0.5881870000000  0.5316400000000  0.4842260000000 1.0
C      1  0.5881870000000  0.5247600000000  0.5256460000000 1.0
C      1  0.5881860000000  0.4832410000000  0.5319030000000 1.0
C      1  0.4538340000000  0.4754020000000  0.5262040000000 1.0
C      1  0.4538340000000  0.4674580000000  0.4851320000000 1.0
C      1  0.4538340000000  0.5040660000000  0.4648850000000 1.0
C      1  0.4538340000000  0.5346340000000  0.4934440000000 1.0
C      1  0.4538340000000  0.5169190000000  0.5313420000000 1.0
C      1  0.5510870000000  0.4996950000000  0.5002020000000 1.0
C      1  0.4760850000000  0.4996960000000  0.5002010000000 1.0
C      1  0.4475050000000  0.4996960000000  0.5002010000000 1.0
C      1  0.5824540000000  0.4996950000000  0.5002020000000 1.0
END
