TITL C-862506-1665-1052 0.00971494823497998 125000 -111.14385881976 0 0 23 (C1) n - 1
REM
REM in /home/nfs/bkarasulu/CARBON/AIRSS/Generating-Clusters/TERSOFF/Higher-Symm/FIRE-HFTN
REM
REM
REM
REM
REM
REM ./C.cell (b20cbc046b6831c77cfcea5457e17084)
REM AIRSS Version 0.9.1 bugfix July 2018 build 013d7b7c2542+ Fri, 06 Jul 2018 19:26:36 +0100
REM compiler GCC version 9.2.1 20190827 (Red Hat 9.2.1-1)
REM options -cpp -mtune=generic -march=x86-64 -g -O0 -fpre-include=/usr/include/finclude/math-vector-fortran.h
REM seed -1718151709 -96421879 -2091965669 -655535389 -1329559422 -1606261535 1016600344 -645312525 821606190 -503149413 -1670089489 165454036 -2129234604 2126587391 1289715554 -1810514052 -1547917730 1743863843 -398025332 -472431951 -442221529 -1398372085 1114178188 1120786051 1632936623 1419920921 -526150091 659272230 -456312683 -316652889 1397378981 -1450997854 -1679049824
REM
CELL 1.54180   50.00000   50.00000   50.00000   90.00000   90.00000   90.00000
LATT -1
SFAC C  
C      1  0.5154780000000  0.4888760000000  0.5525400000000 1.0
C      1  0.5369950000000  0.4476800000000  0.5030360000000 1.0
C      1  0.4523450000000  0.5462310000000  0.4924030000000 1.0
C      1  0.4597280000000  0.4696420000000  0.4942770000000 1.0
C      1  0.5050740000000  0.5419900000000  0.4738360000000 1.0
C      1  0.5469870000000  0.5064390000000  0.5117140000000 1.0
C      1  0.5039190000000  0.5496320000000  0.5237450000000 1.0
C      1  0.5057470000000  0.4925830000000  0.4866760000000 1.0
C      1  0.4528450000000  0.5590670000000  0.5183410000000 1.0
C      1  0.4440060000000  0.4458270000000  0.4994730000000 1.0
C      1  0.5011270000000  0.5219040000000  0.5309270000000 1.0
C      1  0.4897750000000  0.5163420000000  0.4732340000000 1.0
C      1  0.5077310000000  0.5588290000000  0.4969340000000 1.0
C      1  0.5595810000000  0.4953850000000  0.4870080000000 1.0
C      1  0.5506740000000  0.4610830000000  0.4810240000000 1.0
C      1  0.5157600000000  0.4577810000000  0.5510250000000 1.0
C      1  0.5311280000000  0.4868820000000  0.4701440000000 1.0
C      1  0.5182970000000  0.4986100000000  0.5190310000000 1.0
C      1  0.4628690000000  0.5197390000000  0.4868160000000 1.0
C      1  0.5188540000000  0.4625000000000  0.5201200000000 1.0
C      1  0.4479500000000  0.4959500000000  0.4940680000000 1.0
C      1  0.4881350000000  0.4683710000000  0.4890030000000 1.0
C      1  0.4849950000000  0.5086570000000  0.4446250000000 1.0
END
