TITL C-862500-986-58 3.53537088720184 125000 -700.654702700469 0 0 144 (S10) n - 1
REM
REM in /home/nfs/bkarasulu/CARBON/AIRSS/Generating-Clusters/TERSOFF/Higher-Symm/FIRE-HFTN
REM
REM
REM
REM
REM
REM ./C.cell (b20cbc046b6831c77cfcea5457e17084)
REM AIRSS Version 0.9.1 bugfix July 2018 build 013d7b7c2542+ Fri, 06 Jul 2018 19:26:36 +0100
REM compiler GCC version 9.2.1 20190827 (Red Hat 9.2.1-1)
REM options -cpp -mtune=generic -march=x86-64 -g -O0 -fpre-include=/usr/include/finclude/math-vector-fortran.h
REM seed -1824686041 -1927049743 -1604220603 -416192944 -1560534736 -1758412316 7547981 -458962095 -1230749370 305234545 1759793544 1541895258 1924400630 -365651571 821950551 763830661 1432556470 914524539 -1313123611 1455807619 -988614319 763137388 230355653 692442583 200490230 830767411 1790851069 -299870172 1293165846 -929265475 873612277 -729576664 1487241217
REM
CELL 1.54180   50.00000   50.00000   50.00000   90.00000   90.00000   90.00000
LATT -1
SFAC C  
C      1  0.3942210000000  0.5256180000000  0.4948470000000 1.0
C      1  0.4288950000000  0.5826560000000  0.5047490000000 1.0
C      1  0.4917410000000  0.6088320000000  0.4948470000000 1.0
C      1  0.5567020000000  0.5934810000000  0.5047490000000 1.0
C      1  0.6010180000000  0.5418000000000  0.4948470000000 1.0
C      1  0.6064930000000  0.4752740000000  0.5047480000000 1.0
C      1  0.5710350000000  0.4171560000000  0.4948460000000 1.0
C      1  0.5094570000000  0.3913930000000  0.5047470000000 1.0
C      1  0.4432270000000  0.4071550000000  0.4948460000000 1.0
C      1  0.3996960000000  0.4577580000000  0.5047480000000 1.0
C      1  0.4232640000000  0.5218120000000  0.5334250000000 1.0
C      1  0.4510370000000  0.5628510000000  0.4666400000000 1.0
C      1  0.4970960000000  0.5800340000000  0.5334250000000 1.0
C      1  0.5447090000000  0.5663020000000  0.4666390000000 1.0
C      1  0.5752850000000  0.5278070000000  0.5334240000000 1.0
C      1  0.5769370000000  0.4782820000000  0.4666390000000 1.0
C      1  0.5497760000000  0.4373060000000  0.5334240000000 1.0
C      1  0.5031840000000  0.4204310000000  0.4666390000000 1.0
C      1  0.4558220000000  0.4336010000000  0.5334240000000 1.0
C      1  0.4253740000000  0.4726970000000  0.4666390000000 1.0
C      1  0.4554170000000  0.5215190000000  0.5793300000000 1.0
C      1  0.4771620000000  0.5438680000000  0.4209530000000 1.0
C      1  0.5067540000000  0.5493650000000  0.5793300000000 1.0
C      1  0.5347280000000  0.5355900000000  0.4209520000000 1.0
C      1  0.5491010000000  0.5091450000000  0.5793290000000 1.0
C      1  0.5446440000000  0.4782840000000  0.4209520000000 1.0
C      1  0.5239360000000  0.4564420000000  0.5793290000000 1.0
C      1  0.4932070000000  0.4511440000000  0.4209520000000 1.0
C      1  0.4660360000000  0.4640890000000  0.5793290000000 1.0
C      1  0.4515000000000  0.4916780000000  0.4209520000000 1.0
C      1  0.5435030000000  0.4328980000000  0.4506670000000 1.0
C      1  0.4957740000000  0.4193810000000  0.5486690000000 1.0
C      1  0.4496900000000  0.4382040000000  0.4506670000000 1.0
C      1  0.4220860000000  0.4794210000000  0.5486700000000 1.0
C      1  0.4257460000000  0.5290660000000  0.4506680000000 1.0
C      1  0.4564160000000  0.5680550000000  0.5486700000000 1.0
C      1  0.5047620000000  0.5799150000000  0.4506680000000 1.0
C      1  0.5513220000000  0.5627950000000  0.5486700000000 1.0
C      1  0.5775400000000  0.5204800000000  0.4506670000000 1.0
C      1  0.5756460000000  0.4709090000000  0.5486690000000 1.0
C      1  0.4455900000000  0.4736850000000  0.5339620000000 1.0
C      1  0.4406530000000  0.5112200000000  0.4668240000000 1.0
C      1  0.4582250000000  0.5439290000000  0.5339630000000 1.0
C      1  0.4923970000000  0.5602240000000  0.4668240000000 1.0
C      1  0.5289350000000  0.5536190000000  0.5339620000000 1.0
C      1  0.5549910000000  0.5261550000000  0.4668230000000 1.0
C      1  0.5600020000000  0.4893640000000  0.5339620000000 1.0
C      1  0.5419330000000  0.4560970000000  0.4668230000000 1.0
C      1  0.5084910000000  0.4399620000000  0.5339620000000 1.0
C      1  0.4712680000000  0.4468660000000  0.4668230000000 1.0
C      1  0.5682910000000  0.4685700000000  0.4366100000000 1.0
C      1  0.5376480000000  0.4347990000000  0.5637330000000 1.0
C      1  0.4912760000000  0.4256530000000  0.4366100000000 1.0
C      1  0.4496890000000  0.4443610000000  0.5637340000000 1.0
C      1  0.4266610000000  0.4856370000000  0.4366100000000 1.0
C      1  0.4316020000000  0.5309690000000  0.5637340000000 1.0
C      1  0.4637410000000  0.5656250000000  0.4366110000000 1.0
C      1  0.5083820000000  0.5749340000000  0.5637340000000 1.0
C      1  0.5512730000000  0.5550780000000  0.4366100000000 1.0
C      1  0.5739220000000  0.5154980000000  0.5637340000000 1.0
C      1  0.5220270000000  0.4572290000000  0.4080380000000 1.0
C      1  0.4931460000000  0.4523330000000  0.5922880000000 1.0
C      1  0.4661930000000  0.4661480000000  0.4080390000000 1.0
C      1  0.4526130000000  0.4921030000000  0.5922880000000 1.0
C      1  0.4574220000000  0.5220060000000  0.4080390000000 1.0
C      1  0.4779110000000  0.5429410000000  0.5922890000000 1.0
C      1  0.5078350000000  0.5476080000000  0.4080390000000 1.0
C      1  0.5340790000000  0.5345910000000  0.5922880000000 1.0
C      1  0.5477640000000  0.5075740000000  0.4080390000000 1.0
C      1  0.5434950000000  0.4785920000000  0.5922880000000 1.0
C      1  0.6037910000000  0.5187570000000  0.5298470000000 1.0
C      1  0.5948930000000  0.4543250000000  0.4702480000000 1.0
C      1  0.5499770000000  0.4073990000000  0.5298470000000 1.0
C      1  0.4859480000000  0.3959510000000  0.4702480000000 1.0
C      1  0.4274400000000  0.4241680000000  0.5298470000000 1.0
C      1  0.3967660000000  0.4815250000000  0.4702490000000 1.0
C      1  0.4055220000000  0.5458890000000  0.5298480000000 1.0
C      1  0.4505930000000  0.5927860000000  0.4702500000000 1.0
C      1  0.5145130000000  0.6043480000000  0.5298480000000 1.0
C      1  0.5730420000000  0.5759750000000  0.4702490000000 1.0
C      1  0.4504770000000  0.4793380000000  0.4922320000000 1.0
C      1  0.4478490000000  0.5125420000000  0.5081690000000 1.0
C      1  0.4651110000000  0.5410290000000  0.4922330000000 1.0
C      1  0.4958780000000  0.5537880000000  0.5081690000000 1.0
C      1  0.5283040000000  0.5461740000000  0.4922330000000 1.0
C      1  0.5499470000000  0.5208560000000  0.5081690000000 1.0
C      1  0.5527250000000  0.4876640000000  0.4922320000000 1.0
C      1  0.5353340000000  0.4592560000000  0.5081690000000 1.0
C      1  0.5046250000000  0.4463570000000  0.4922320000000 1.0
C      1  0.4722340000000  0.4541190000000  0.5081690000000 1.0
C      1  0.3882240000000  0.5086670000000  0.4711300000000 1.0
C      1  0.4147980000000  0.5727700000000  0.5288160000000 1.0
C      1  0.4737660000000  0.6092980000000  0.4711300000000 1.0
C      1  0.5429440000000  0.6038330000000  0.5288160000000 1.0
C      1  0.5959060000000  0.5590380000000  0.4711300000000 1.0
C      1  0.6120870000000  0.4915580000000  0.5288150000000 1.0
C      1  0.5858500000000  0.4273460000000  0.4711290000000 1.0
C      1  0.5266730000000  0.3911040000000  0.5288150000000 1.0
C      1  0.4574950000000  0.3962140000000  0.4711290000000 1.0
C      1  0.4047410000000  0.4412960000000  0.5288160000000 1.0
C      1  0.5762170000000  0.5567240000000  0.5371190000000 1.0
C      1  0.5946510000000  0.5011000000000  0.4618350000000 1.0
C      1  0.5775650000000  0.4453560000000  0.5371180000000 1.0
C      1  0.5303600000000  0.4106350000000  0.4618350000000 1.0
C      1  0.4720640000000  0.4096590000000  0.5371190000000 1.0
C      1  0.4244560000000  0.4438250000000  0.4618360000000 1.0
C      1  0.4055140000000  0.4989650000000  0.5371190000000 1.0
C      1  0.4232940000000  0.5548020000000  0.4618360000000 1.0
C      1  0.4698830000000  0.5898560000000  0.5371200000000 1.0
C      1  0.5284810000000  0.5902000000000  0.4618360000000 1.0
C      1  0.4811860000000  0.4761090000000  0.4736460000000 1.0
C      1  0.4707120000000  0.4917570000000  0.5267490000000 1.0
C      1  0.4715290000000  0.5108240000000  0.4736460000000 1.0
C      1  0.4831750000000  0.5256220000000  0.5267490000000 1.0
C      1  0.5015610000000  0.5307360000000  0.4736470000000 1.0
C      1  0.5192330000000  0.5242330000000  0.5267490000000 1.0
C      1  0.5297790000000  0.5083270000000  0.4736460000000 1.0
C      1  0.5290550000000  0.4895100000000  0.5267480000000 1.0
C      1  0.5171860000000  0.4745660000000  0.4736460000000 1.0
C      1  0.4990670000000  0.4694390000000  0.5267480000000 1.0
C      1  0.5086380000000  0.4733650000000  0.5594010000000 1.0
C      1  0.4909300000000  0.4736480000000  0.4411410000000 1.0
C      1  0.4774030000000  0.4838680000000  0.5594020000000 1.0
C      1  0.4721990000000  0.5007970000000  0.4411410000000 1.0
C      1  0.4777400000000  0.5168190000000  0.5594020000000 1.0
C      1  0.4922310000000  0.5270010000000  0.4411410000000 1.0
C      1  0.5091830000000  0.5266820000000  0.5594020000000 1.0
C      1  0.5233430000000  0.5160460000000  0.4411410000000 1.0
C      1  0.5282790000000  0.4998260000000  0.5594020000000 1.0
C      1  0.5225380000000  0.4830720000000  0.4411410000000 1.0
C      1  0.4608120000000  0.5981930000000  0.5106270000000 1.0
C      1  0.5259410000000  0.6027020000000  0.4880720000000 1.0
C      1  0.5813420000000  0.5679280000000  0.5106260000000 1.0
C      1  0.6057560000000  0.5073790000000  0.4880710000000 1.0
C      1  0.5898040000000  0.4439440000000  0.5106250000000 1.0
C      1  0.5397630000000  0.4020140000000  0.4880710000000 1.0
C      1  0.4745030000000  0.3975830000000  0.5106250000000 1.0
C      1  0.4191620000000  0.4322180000000  0.4880720000000 1.0
C      1  0.3947810000000  0.4929140000000  0.5106260000000 1.0
C      1  0.4106200000000  0.5562490000000  0.4880730000000 1.0
C      1  0.5002480000000  0.5001130000000  0.4194690000000 1.0
C      1  0.5002490000000  0.5001120000000  0.5811110000000 1.0
C      1  0.5002480000000  0.5001130000000  0.3904080000000 1.0
C      1  0.5002490000000  0.5001120000000  0.6101760000000 1.0
END
