TITL C-862505-1648-674 3.82250429404209 125000 -382.524866133515 0 0 70 (Cs) n - 1
REM
REM in /home/nfs/bkarasulu/CARBON/AIRSS/Generating-Clusters/TERSOFF/Higher-Symm/FIRE-HFTN
REM
REM
REM
REM
REM
REM ./C.cell (b20cbc046b6831c77cfcea5457e17084)
REM AIRSS Version 0.9.1 bugfix July 2018 build 013d7b7c2542+ Fri, 06 Jul 2018 19:26:36 +0100
REM compiler GCC version 9.2.1 20190827 (Red Hat 9.2.1-1)
REM options -cpp -mtune=generic -march=x86-64 -g -O0 -fpre-include=/usr/include/finclude/math-vector-fortran.h
REM seed -769493294 -1315247607 1968331896 -493422339 95547166 -1543537960 -1070077359 1945982297 -1230140925 -83266969 1696407095 -2097019970 1105497251 934435787 -880374840 918074298 1025678628 1382115984 -91380379 -2037327674 -703289030 244589125 100506587 59617757 -1857972568 -1286811292 449597436 1346401971 1515678926 -2005531113 816884780 -1874466186 1230437240
REM
CELL 1.54180   50.00000   50.00000   50.00000   90.00000   90.00000   90.00000
LATT -1
SFAC C  
C      1  0.5522790000000  0.5302960000000  0.5703450000000 1.0
C      1  0.5526570000000  0.5637550000000  0.4953140000000 1.0
C      1  0.5528900000000  0.5132660000000  0.4365990000000 1.0
C      1  0.5517550000000  0.4359200000000  0.4594410000000 1.0
C      1  0.5493620000000  0.4653630000000  0.5290310000000 1.0
C      1  0.5526020000000  0.4751870000000  0.5589640000000 1.0
C      1  0.5528410000000  0.4356350000000  0.4923890000000 1.0
C      1  0.5517840000000  0.4819480000000  0.4263630000000 1.0
C      1  0.5494070000000  0.5385190000000  0.4764570000000 1.0
C      1  0.5522950000000  0.5569710000000  0.5511750000000 1.0
C      1  0.5231840000000  0.4887480000000  0.5519900000000 1.0
C      1  0.5233630000000  0.5484670000000  0.5391980000000 1.0
C      1  0.5192910000000  0.5291570000000  0.4792280000000 1.0
C      1  0.5233130000000  0.4785610000000  0.4414150000000 1.0
C      1  0.5226490000000  0.4478700000000  0.4935680000000 1.0
C      1  0.5233460000000  0.5216790000000  0.5584490000000 1.0
C      1  0.5192550000000  0.4710000000000  0.5210230000000 1.0
C      1  0.5232960000000  0.4512900000000  0.4610130000000 1.0
C      1  0.5226880000000  0.5105070000000  0.4485530000000 1.0
C      1  0.5232240000000  0.5528450000000  0.5059270000000 1.0
C      1  0.4970450000000  0.4413100000000  0.4455580000000 1.0
C      1  0.4975040000000  0.4485490000000  0.5271860000000 1.0
C      1  0.4969740000000  0.5189020000000  0.5772070000000 1.0
C      1  0.4983550000000  0.5716840000000  0.5112380000000 1.0
C      1  0.4980740000000  0.5258550000000  0.4339040000000 1.0
C      1  0.4975620000000  0.5421750000000  0.4599020000000 1.0
C      1  0.4970040000000  0.5671520000000  0.5425310000000 1.0
C      1  0.4983030000000  0.4877960000000  0.5715240000000 1.0
C      1  0.4980140000000  0.4291110000000  0.5034290000000 1.0
C      1  0.4970610000000  0.4671150000000  0.4270130000000 1.0
C      1  0.4464610000000  0.4379640000000  0.4506160000000 1.0
C      1  0.4476040000000  0.4488730000000  0.5347390000000 1.0
C      1  0.4462740000000  0.5236640000000  0.5763670000000 1.0
C      1  0.4478840000000  0.5735320000000  0.5032830000000 1.0
C      1  0.4480350000000  0.5231170000000  0.4297610000000 1.0
C      1  0.4476670000000  0.5492710000000  0.4625870000000 1.0
C      1  0.4463000000000  0.5648800000000  0.5467470000000 1.0
C      1  0.4478260000000  0.4797080000000  0.5707100000000 1.0
C      1  0.4479740000000  0.4260990000000  0.4994830000000 1.0
C      1  0.4464830000000  0.4730180000000  0.4254240000000 1.0
C      1  0.4746750000000  0.5573260000000  0.4690950000000 1.0
C      1  0.4734880000000  0.4832990000000  0.4209600000000 1.0
C      1  0.4743650000000  0.4232730000000  0.4873790000000 1.0
C      1  0.4752610000000  0.4707160000000  0.5668530000000 1.0
C      1  0.4729670000000  0.5591410000000  0.5571590000000 1.0
C      1  0.4734550000000  0.4304320000000  0.4589530000000 1.0
C      1  0.4744200000000  0.5125230000000  0.4232380000000 1.0
C      1  0.4753240000000  0.5727210000000  0.4935470000000 1.0
C      1  0.4729520000000  0.5353400000000  0.5742640000000 1.0
C      1  0.4746100000000  0.4524500000000  0.5444640000000 1.0
C      1  0.5740910000000  0.4794260000000  0.5142620000000 1.0
C      1  0.5778600000000  0.5193980000000  0.5543120000000 1.0
C      1  0.5775540000000  0.5465670000000  0.5065020000000 1.0
C      1  0.5781920000000  0.5096470000000  0.4567570000000 1.0
C      1  0.5757710000000  0.4559580000000  0.4636630000000 1.0
C      1  0.5778760000000  0.5452280000000  0.5357490000000 1.0
C      1  0.5775190000000  0.4912510000000  0.5462560000000 1.0
C      1  0.5781580000000  0.4558740000000  0.4954020000000 1.0
C      1  0.5757860000000  0.4795410000000  0.4467150000000 1.0
C      1  0.5741170000000  0.5200170000000  0.4850910000000 1.0
C      1  0.4288140000000  0.5436960000000  0.5346440000000 1.0
C      1  0.4304690000000  0.5291300000000  0.4795770000000 1.0
C      1  0.4292500000000  0.4817720000000  0.4485740000000 1.0
C      1  0.4316670000000  0.4507940000000  0.4959280000000 1.0
C      1  0.4306310000000  0.4891770000000  0.5481620000000 1.0
C      1  0.4304330000000  0.4714120000000  0.5210560000000 1.0
C      1  0.4292350000000  0.4571290000000  0.4662840000000 1.0
C      1  0.4317050000000  0.5118860000000  0.4520240000000 1.0
C      1  0.4306680000000  0.5491560000000  0.5050580000000 1.0
C      1  0.4287980000000  0.5189610000000  0.5524200000000 1.0
END
