TITL C-862130-1496-863 -0.0610246160106992 125000 -1091.34041308584 0 0 191 (C1) n - 1
REM
REM in /home/nfs/bkarasulu/CARBON/AIRSS/Generating-Clusters/TERSOFF/Higher-Symm/FIRE-HFTN
REM
REM
REM
REM
REM
REM ./C.cell (b20cbc046b6831c77cfcea5457e17084)
REM AIRSS Version 0.9.1 bugfix July 2018 build 013d7b7c2542+ Fri, 06 Jul 2018 19:26:36 +0100
REM compiler GCC version 9.2.1 20190827 (Red Hat 9.2.1-1)
REM options -cpp -mtune=generic -march=x86-64 -g -O0 -fpre-include=/usr/include/finclude/math-vector-fortran.h
REM seed -849057015 -260567097 1656860068 -481008232 148769947 -1461821356 673643443 -1077389375 16693022 -1926425216 1582623019 1558038566 -1050085809 775509735 751734677 -1955369717 222421392 2126662638 -686742565 -1680139419 -2109827964 -206620490 1648580749 -1336813162 2080345344 -715097040 -994756480 1677187153 1299697612 1189084285 869389684 -1668704297 1154562911
REM
CELL 1.54180   50.00000   50.00000   50.00000   90.00000   90.00000   90.00000
LATT -1
SFAC C  
C      1  0.5734390000000  0.5603840000000  0.5516590000000 1.0
C      1  0.5511770000000  0.4393510000000  0.4254430000000 1.0
C      1  0.4260430000000  0.5591680000000  0.4488970000000 1.0
C      1  0.4488830000000  0.4402550000000  0.5730440000000 1.0
C      1  0.5876760000000  0.5327720000000  0.6030050000000 1.0
C      1  0.6030280000000  0.4672960000000  0.4122880000000 1.0
C      1  0.4117830000000  0.5321550000000  0.3979570000000 1.0
C      1  0.3979070000000  0.4670290000000  0.5882290000000 1.0
C      1  0.5615300000000  0.4793650000000  0.4328980000000 1.0
C      1  0.4330740000000  0.5190030000000  0.4388360000000 1.0
C      1  0.4384720000000  0.4804170000000  0.5665340000000 1.0
C      1  0.5663500000000  0.5203130000000  0.5620440000000 1.0
C      1  0.4867450000000  0.6316790000000  0.4527840000000 1.0
C      1  0.4524280000000  0.3678460000000  0.5122590000000 1.0
C      1  0.5125250000000  0.6322270000000  0.5471520000000 1.0
C      1  0.5464980000000  0.3674050000000  0.4864240000000 1.0
C      1  0.4951840000000  0.5172650000000  0.4167990000000 1.0
C      1  0.4161300000000  0.4821040000000  0.5054060000000 1.0
C      1  0.5048930000000  0.5177360000000  0.5834540000000 1.0
C      1  0.5824700000000  0.4822420000000  0.4957180000000 1.0
C      1  0.4700750000000  0.6208970000000  0.4303480000000 1.0
C      1  0.4301190000000  0.3786490000000  0.5291120000000 1.0
C      1  0.5291370000000  0.6219010000000  0.5698780000000 1.0
C      1  0.5692430000000  0.3776460000000  0.4698090000000 1.0
C      1  0.4163960000000  0.4909380000000  0.5827250000000 1.0
C      1  0.5823010000000  0.5092440000000  0.5839940000000 1.0
C      1  0.5836910000000  0.4905460000000  0.4173460000000 1.0
C      1  0.4170220000000  0.5084260000000  0.4167040000000 1.0
C      1  0.5229370000000  0.5962570000000  0.5844870000000 1.0
C      1  0.5839290000000  0.4031910000000  0.4760390000000 1.0
C      1  0.4763910000000  0.5951490000000  0.4162430000000 1.0
C      1  0.4159880000000  0.4044490000000  0.5229380000000 1.0
C      1  0.5879030000000  0.4268890000000  0.4574210000000 1.0
C      1  0.4578810000000  0.5714720000000  0.4123320000000 1.0
C      1  0.4121870000000  0.4281240000000  0.5414680000000 1.0
C      1  0.5415290000000  0.5725420000000  0.5883260000000 1.0
C      1  0.3796900000000  0.5253740000000  0.5153730000000 1.0
C      1  0.5149710000000  0.4745450000000  0.6201010000000 1.0
C      1  0.6199830000000  0.5246450000000  0.4851070000000 1.0
C      1  0.4846980000000  0.4743820000000  0.3800000000000 1.0
C      1  0.4561850000000  0.5235870000000  0.5259270000000 1.0
C      1  0.5253360000000  0.4769700000000  0.5433550000000 1.0
C      1  0.5431350000000  0.5225290000000  0.4744310000000 1.0
C      1  0.4738310000000  0.4762320000000  0.4565210000000 1.0
C      1  0.4739600000000  0.5196480000000  0.5748370000000 1.0
C      1  0.5739750000000  0.4807650000000  0.5267250000000 1.0
C      1  0.5262120000000  0.5190300000000  0.4250380000000 1.0
C      1  0.4246390000000  0.4799310000000  0.4745160000000 1.0
C      1  0.5465100000000  0.4466560000000  0.4758050000000 1.0
C      1  0.4768730000000  0.5506470000000  0.4534900000000 1.0
C      1  0.4532740000000  0.4490590000000  0.5221210000000 1.0
C      1  0.5226590000000  0.5526800000000  0.5469890000000 1.0
C      1  0.4999110000000  0.5889920000000  0.5677590000000 1.0
C      1  0.5674170000000  0.4107040000000  0.4991060000000 1.0
C      1  0.4993750000000  0.5874430000000  0.4325580000000 1.0
C      1  0.4322900000000  0.4120640000000  0.4999020000000 1.0
C      1  0.4570650000000  0.3748410000000  0.4834550000000 1.0
C      1  0.4837800000000  0.6251200000000  0.5423360000000 1.0
C      1  0.5417700000000  0.3744630000000  0.5151880000000 1.0
C      1  0.5155550000000  0.6248240000000  0.4575300000000 1.0
C      1  0.4524650000000  0.5561800000000  0.4368580000000 1.0
C      1  0.4367220000000  0.4434740000000  0.5466810000000 1.0
C      1  0.5469740000000  0.5575300000000  0.5636640000000 1.0
C      1  0.5632440000000  0.4418840000000  0.4517730000000 1.0
C      1  0.3997930000000  0.5123480000000  0.5667150000000 1.0
C      1  0.5662830000000  0.4873770000000  0.5999830000000 1.0
C      1  0.5995510000000  0.5124460000000  0.4336260000000 1.0
C      1  0.4331990000000  0.4870470000000  0.4001710000000 1.0
C      1  0.5355010000000  0.4957070000000  0.4655630000000 1.0
C      1  0.4655380000000  0.5023960000000  0.4650570000000 1.0
C      1  0.4645370000000  0.4972930000000  0.5338430000000 1.0
C      1  0.5333780000000  0.5039210000000  0.5360550000000 1.0
C      1  0.4743970000000  0.4141720000000  0.5339660000000 1.0
C      1  0.5343170000000  0.5865440000000  0.5250570000000 1.0
C      1  0.5245640000000  0.4125580000000  0.4648760000000 1.0
C      1  0.4653900000000  0.5859650000000  0.4747840000000 1.0
C      1  0.5620980000000  0.5081700000000  0.5352150000000 1.0
C      1  0.5347260000000  0.4917460000000  0.4368930000000 1.0
C      1  0.4369130000000  0.5069480000000  0.4658400000000 1.0
C      1  0.4653770000000  0.4925740000000  0.5624640000000 1.0
C      1  0.3892550000000  0.5002660000000  0.4285110000000 1.0
C      1  0.4281800000000  0.4991310000000  0.6104800000000 1.0
C      1  0.6101570000000  0.5012210000000  0.5721560000000 1.0
C      1  0.5718650000000  0.4985720000000  0.3894570000000 1.0
C      1  0.4816290000000  0.5468550000000  0.3751090000000 1.0
C      1  0.3744330000000  0.4528010000000  0.5187120000000 1.0
C      1  0.5177690000000  0.5473650000000  0.6252390000000 1.0
C      1  0.6240420000000  0.4518810000000  0.4826480000000 1.0
C      1  0.5680910000000  0.5445450000000  0.6215900000000 1.0
C      1  0.6213480000000  0.4557940000000  0.4322420000000 1.0
C      1  0.4313230000000  0.5436100000000  0.3791630000000 1.0
C      1  0.3790460000000  0.4552430000000  0.5689430000000 1.0
C      1  0.5713910000000  0.5274450000000  0.5134780000000 1.0
C      1  0.5129880000000  0.4722860000000  0.4278540000000 1.0
C      1  0.4280180000000  0.5267070000000  0.4873910000000 1.0
C      1  0.4870460000000  0.4730330000000  0.5713610000000 1.0
C      1  0.5456560000000  0.6025080000000  0.4956930000000 1.0
C      1  0.4953740000000  0.3966840000000  0.4531160000000 1.0
C      1  0.4534850000000  0.6030060000000  0.5040990000000 1.0
C      1  0.5038620000000  0.3970830000000  0.5454380000000 1.0
C      1  0.4877840000000  0.5716690000000  0.5216030000000 1.0
C      1  0.5215580000000  0.4287120000000  0.5111800000000 1.0
C      1  0.5114960000000  0.5707720000000  0.4788670000000 1.0
C      1  0.4790210000000  0.4275450000000  0.4876640000000 1.0
C      1  0.5592760000000  0.5661650000000  0.4537960000000 1.0
C      1  0.4533090000000  0.4330570000000  0.4399350000000 1.0
C      1  0.4398800000000  0.5669240000000  0.5466560000000 1.0
C      1  0.5462690000000  0.4332360000000  0.5590440000000 1.0
C      1  0.4566160000000  0.5565770000000  0.3869160000000 1.0
C      1  0.3866210000000  0.4427370000000  0.5433600000000 1.0
C      1  0.5427530000000  0.5573600000000  0.6136340000000 1.0
C      1  0.6129880000000  0.4424380000000  0.4571390000000 1.0
C      1  0.5154380000000  0.3739010000000  0.5296110000000 1.0
C      1  0.5299940000000  0.6256260000000  0.4838350000000 1.0
C      1  0.4832340000000  0.3736580000000  0.4687700000000 1.0
C      1  0.4693080000000  0.6260670000000  0.5160280000000 1.0
C      1  0.5408440000000  0.4220140000000  0.4914820000000 1.0
C      1  0.4918900000000  0.5758170000000  0.4590730000000 1.0
C      1  0.4588430000000  0.4237270000000  0.5071970000000 1.0
C      1  0.5074760000000  0.5775950000000  0.5411430000000 1.0
C      1  0.5773410000000  0.4089990000000  0.5263420000000 1.0
C      1  0.5265130000000  0.5898530000000  0.4227090000000 1.0
C      1  0.4224840000000  0.4092820000000  0.4728160000000 1.0
C      1  0.4726460000000  0.5913350000000  0.5774280000000 1.0
C      1  0.5796880000000  0.5548860000000  0.5239580000000 1.0
C      1  0.5234140000000  0.4448090000000  0.4194290000000 1.0
C      1  0.4198960000000  0.5540820000000  0.4766640000000 1.0
C      1  0.4765930000000  0.4455370000000  0.5791810000000 1.0
C      1  0.5018380000000  0.5260150000000  0.6135560000000 1.0
C      1  0.6125050000000  0.4734360000000  0.4985440000000 1.0
C      1  0.4979050000000  0.5256470000000  0.3866570000000 1.0
C      1  0.3860020000000  0.4739240000000  0.5024350000000 1.0
C      1  0.5074760000000  0.4232340000000  0.4072090000000 1.0
C      1  0.4075900000000  0.5759050000000  0.4922750000000 1.0
C      1  0.4923610000000  0.4238460000000  0.5914330000000 1.0
C      1  0.5917560000000  0.5765400000000  0.5080100000000 1.0
C      1  0.5380180000000  0.4754060000000  0.5936720000000 1.0
C      1  0.5934730000000  0.5241540000000  0.4622030000000 1.0
C      1  0.4616360000000  0.4753040000000  0.4062820000000 1.0
C      1  0.4059740000000  0.5244040000000  0.5384990000000 1.0
C      1  0.4615150000000  0.4137200000000  0.4188630000000 1.0
C      1  0.4190150000000  0.5863690000000  0.5381500000000 1.0
C      1  0.5381090000000  0.4134620000000  0.5797500000000 1.0
C      1  0.5801430000000  0.5857450000000  0.4619530000000 1.0
C      1  0.4676860000000  0.4746080000000  0.5151570000000 1.0
C      1  0.5150700000000  0.5274220000000  0.5334640000000 1.0
C      1  0.5328920000000  0.4717240000000  0.4828870000000 1.0
C      1  0.4837900000000  0.5252790000000  0.4682130000000 1.0
C      1  0.5110130000000  0.4890410000000  0.5809000000000 1.0
C      1  0.5805340000000  0.5109890000000  0.4895580000000 1.0
C      1  0.4887650000000  0.4885880000000  0.4192980000000 1.0
C      1  0.4188750000000  0.5107710000000  0.5116280000000 1.0
C      1  0.4272740000000  0.4280230000000  0.4516890000000 1.0
C      1  0.4518240000000  0.5720710000000  0.5726780000000 1.0
C      1  0.5723180000000  0.4284900000000  0.5469190000000 1.0
C      1  0.5474810000000  0.5709440000000  0.4277080000000 1.0
C      1  0.6252860000000  0.5023820000000  0.5056320000000 1.0
C      1  0.5052020000000  0.4966150000000  0.3743450000000 1.0
C      1  0.3738480000000  0.5030180000000  0.4950350000000 1.0
C      1  0.4946310000000  0.4968890000000  0.6258600000000 1.0
C      1  0.4346550000000  0.5377560000000  0.5396660000000 1.0
C      1  0.5390550000000  0.4623090000000  0.5647080000000 1.0
C      1  0.5646030000000  0.5372180000000  0.4609030000000 1.0
C      1  0.4602120000000  0.4620660000000  0.4349270000000 1.0
C      1  0.6046170000000  0.4743550000000  0.5304970000000 1.0
C      1  0.5298180000000  0.5250550000000  0.3943820000000 1.0
C      1  0.3939670000000  0.4741760000000  0.4706410000000 1.0
C      1  0.4700330000000  0.5254690000000  0.6055300000000 1.0
C      1  0.5409110000000  0.5757920000000  0.4772100000000 1.0
C      1  0.4770440000000  0.4234260000000  0.4580550000000 1.0
C      1  0.4582800000000  0.5765230000000  0.5231090000000 1.0
C      1  0.5228310000000  0.4235960000000  0.5405920000000 1.0
C      1  0.4947010000000  0.4379230000000  0.5421070000000 1.0
C      1  0.5425920000000  0.5617560000000  0.5055940000000 1.0
C      1  0.5055060000000  0.4377180000000  0.4567170000000 1.0
C      1  0.4567920000000  0.5621680000000  0.4949240000000 1.0
C      1  0.3809620000000  0.5006960000000  0.4595060000000 1.0
C      1  0.4591160000000  0.4989690000000  0.6186880000000 1.0
C      1  0.6181990000000  0.5007430000000  0.5411770000000 1.0
C      1  0.5408010000000  0.4985310000000  0.3812010000000 1.0
C      1  0.5294220000000  0.5364490000000  0.4950900000000 1.0
C      1  0.4940130000000  0.4625900000000  0.4700640000000 1.0
C      1  0.4696780000000  0.5372100000000  0.5058690000000 1.0
C      1  0.5054490000000  0.4630130000000  0.5292500000000 1.0
C      1  0.4891200000000  0.4051850000000  0.4219070000000 1.0
C      1  0.4222160000000  0.5943590000000  0.5103840000000 1.0
C      1  0.5103400000000  0.4053890000000  0.5766950000000 1.0
C      1  0.5769490000000  0.5943610000000  0.4895280000000 1.0
C      1  0.4990350000000  0.5295260000000  0.5006640000000 1.0
C      1  0.4999970000000  0.4708500000000  0.4993960000000 1.0
C      1  0.5090600000000  0.5003720000000  0.5020040000000 1.0
END
