TITL C-862501-1041-562 0.0872468773048272 125000 -362.538928924153 0 0 64 (C1) n - 1
REM
REM in /home/nfs/bkarasulu/CARBON/AIRSS/Generating-Clusters/TERSOFF/Higher-Symm/FIRE-HFTN
REM
REM
REM
REM
REM
REM ./C.cell (b20cbc046b6831c77cfcea5457e17084)
REM AIRSS Version 0.9.1 bugfix July 2018 build 013d7b7c2542+ Fri, 06 Jul 2018 19:26:36 +0100
REM compiler GCC version 9.2.1 20190827 (Red Hat 9.2.1-1)
REM options -cpp -mtune=generic -march=x86-64 -g -O0 -fpre-include=/usr/include/finclude/math-vector-fortran.h
REM seed 755740356 -1511514770 841776960 589932229 871119947 1989344973 -1367647505 1006084679 -1847212430 1877575541 1527483977 -380216977 -2051229535 -149132492 870176253 -775848816 -23759145 167923613 1344280501 1177659601 -1235072164 814598582 2105470022 -679566572 -778936876 -602489604 -529764964 -412013428 243891008 -1448238505 1952701841 953944725 1292859463
REM
CELL 1.54180   50.00000   50.00000   50.00000   90.00000   90.00000   90.00000
LATT -1
SFAC C  
C      1  0.5269320000000  0.5672220000000  0.5478040000000 1.0
C      1  0.4944860000000  0.5197740000000  0.4175660000000 1.0
C      1  0.5470090000000  0.5460900000000  0.5492650000000 1.0
C      1  0.4365930000000  0.5272250000000  0.5421420000000 1.0
C      1  0.5730480000000  0.5160480000000  0.4851420000000 1.0
C      1  0.5314690000000  0.5471950000000  0.4375250000000 1.0
C      1  0.5050430000000  0.4402680000000  0.4594050000000 1.0
C      1  0.5407550000000  0.5508440000000  0.4979800000000 1.0
C      1  0.5472490000000  0.4952220000000  0.4440600000000 1.0
C      1  0.4991590000000  0.5502170000000  0.4926180000000 1.0
C      1  0.5622880000000  0.5448290000000  0.5230050000000 1.0
C      1  0.5249980000000  0.5258410000000  0.5197840000000 1.0
C      1  0.4689560000000  0.5100180000000  0.4718100000000 1.0
C      1  0.5506780000000  0.4665570000000  0.4875960000000 1.0
C      1  0.5059740000000  0.5774880000000  0.4615230000000 1.0
C      1  0.4512260000000  0.4151240000000  0.5188390000000 1.0
C      1  0.4765980000000  0.5100010000000  0.5478840000000 1.0
C      1  0.5205110000000  0.5291010000000  0.4783550000000 1.0
C      1  0.5086420000000  0.5192800000000  0.5733830000000 1.0
C      1  0.5712940000000  0.5176220000000  0.5138640000000 1.0
C      1  0.4843700000000  0.5572250000000  0.4514710000000 1.0
C      1  0.4955620000000  0.4936970000000  0.4300840000000 1.0
C      1  0.4319250000000  0.5084180000000  0.4984530000000 1.0
C      1  0.4704210000000  0.4800650000000  0.4336880000000 1.0
C      1  0.4444650000000  0.4769940000000  0.5314230000000 1.0
C      1  0.5499140000000  0.4650670000000  0.4577840000000 1.0
C      1  0.4913620000000  0.4926090000000  0.5679090000000 1.0
C      1  0.5369700000000  0.5192960000000  0.5632280000000 1.0
C      1  0.5119240000000  0.4989700000000  0.4812000000000 1.0
C      1  0.4542820000000  0.4887770000000  0.4557550000000 1.0
C      1  0.5163440000000  0.4905290000000  0.4509990000000 1.0
C      1  0.5530520000000  0.4444840000000  0.5065120000000 1.0
C      1  0.4617030000000  0.4576390000000  0.5456080000000 1.0
C      1  0.4356480000000  0.5339090000000  0.5119650000000 1.0
C      1  0.4443580000000  0.4694830000000  0.4767980000000 1.0
C      1  0.4654960000000  0.5402630000000  0.4696430000000 1.0
C      1  0.4887770000000  0.5470290000000  0.5193050000000 1.0
C      1  0.4502760000000  0.4848340000000  0.5025820000000 1.0
C      1  0.4291820000000  0.4275350000000  0.4532710000000 1.0
C      1  0.4301530000000  0.4982290000000  0.5461290000000 1.0
C      1  0.5352870000000  0.5661270000000  0.4656600000000 1.0
C      1  0.5074190000000  0.4625320000000  0.5301450000000 1.0
C      1  0.5147540000000  0.4267150000000  0.5092970000000 1.0
C      1  0.4960420000000  0.4674080000000  0.5038780000000 1.0
C      1  0.4524540000000  0.5515840000000  0.4944470000000 1.0
C      1  0.4894100000000  0.4663330000000  0.5527150000000 1.0
C      1  0.5348620000000  0.4876070000000  0.4982050000000 1.0
C      1  0.4446380000000  0.4404040000000  0.4742790000000 1.0
C      1  0.5488390000000  0.5243540000000  0.4284630000000 1.0
C      1  0.4605640000000  0.5339170000000  0.5604800000000 1.0
C      1  0.4903750000000  0.5161760000000  0.5218080000000 1.0
C      1  0.5311870000000  0.4451510000000  0.4476720000000 1.0
C      1  0.4554420000000  0.4293890000000  0.5437000000000 1.0
C      1  0.4989530000000  0.5607570000000  0.5448490000000 1.0
C      1  0.5334200000000  0.4430070000000  0.5312950000000 1.0
C      1  0.4897640000000  0.5444940000000  0.5678130000000 1.0
C      1  0.4603790000000  0.4241780000000  0.4927730000000 1.0
C      1  0.4991000000000  0.4417760000000  0.4879680000000 1.0
C      1  0.5458640000000  0.4937680000000  0.5484680000000 1.0
C      1  0.5454310000000  0.5033960000000  0.5209290000000 1.0
C      1  0.5418990000000  0.4648110000000  0.5540110000000 1.0
C      1  0.5490740000000  0.5144770000000  0.4692330000000 1.0
C      1  0.5025540000000  0.5439030000000  0.4311460000000 1.0
C      1  0.4831970000000  0.4967190000000  0.4974060000000 1.0
END
