TITL C-862505-1648-605 0.0244726444948373 125000 -881.449416170425 0 0 145 (C1) n - 1
REM
REM in /home/nfs/bkarasulu/CARBON/AIRSS/Generating-Clusters/TERSOFF/Higher-Symm/FIRE-HFTN
REM
REM
REM
REM
REM
REM ./C.cell (b20cbc046b6831c77cfcea5457e17084)
REM AIRSS Version 0.9.1 bugfix July 2018 build 013d7b7c2542+ Fri, 06 Jul 2018 19:26:36 +0100
REM compiler GCC version 9.2.1 20190827 (Red Hat 9.2.1-1)
REM options -cpp -mtune=generic -march=x86-64 -g -O0 -fpre-include=/usr/include/finclude/math-vector-fortran.h
REM seed -1183565229 -95762376 2054599606 1154517578 -234499179 -1716293590 830252600 855473412 1317383240 -1691300771 1417566735 1893074638 1362511209 1613215223 632300735 586842144 929038281 -816450563 -1820099296 -674398831 -517768528 -685409582 -939189723 373594 -426070951 -2105430404 -348993641 -239803949 -320357932 -390209496 -632210332 971464266 -1091230479
REM
CELL 1.54180   50.00000   50.00000   50.00000   90.00000   90.00000   90.00000
LATT -1
SFAC C  
C      1  0.4774260000000  0.4744270000000  0.4655110000000 1.0
C      1  0.5220880000000  0.5240290000000  0.5338350000000 1.0
C      1  0.4380860000000  0.5017710000000  0.5902830000000 1.0
C      1  0.5609440000000  0.4985440000000  0.4092820000000 1.0
C      1  0.5825490000000  0.4821420000000  0.4670020000000 1.0
C      1  0.4169510000000  0.5170970000000  0.5327400000000 1.0
C      1  0.4600480000000  0.5813610000000  0.5383440000000 1.0
C      1  0.5390540000000  0.4186420000000  0.4613880000000 1.0
C      1  0.4537080000000  0.4430900000000  0.4136070000000 1.0
C      1  0.5453300000000  0.5563860000000  0.5865190000000 1.0
C      1  0.3903680000000  0.5024000000000  0.5037870000000 1.0
C      1  0.6086020000000  0.4970440000000  0.4963340000000 1.0
C      1  0.5540810000000  0.5402090000000  0.4932750000000 1.0
C      1  0.4455850000000  0.4590360000000  0.5068930000000 1.0
C      1  0.4980660000000  0.5030210000000  0.5989390000000 1.0
C      1  0.5009250000000  0.4968190000000  0.4009600000000 1.0
C      1  0.5769700000000  0.4524270000000  0.5234940000000 1.0
C      1  0.4232010000000  0.5459160000000  0.4766370000000 1.0
C      1  0.5502800000000  0.5902330000000  0.4539260000000 1.0
C      1  0.4492570000000  0.4092660000000  0.5461370000000 1.0
C      1  0.4739660000000  0.5142150000000  0.5490010000000 1.0
C      1  0.5273020000000  0.4876390000000  0.4463620000000 1.0
C      1  0.4534420000000  0.5866670000000  0.4558540000000 1.0
C      1  0.5466370000000  0.4113200000000  0.5438930000000 1.0
C      1  0.4534820000000  0.4784310000000  0.5991950000000 1.0
C      1  0.5453420000000  0.5219550000000  0.4007050000000 1.0
C      1  0.3960380000000  0.5550100000000  0.5181130000000 1.0
C      1  0.6038030000000  0.4444360000000  0.4816330000000 1.0
C      1  0.4826100000000  0.4759690000000  0.5945610000000 1.0
C      1  0.5160750000000  0.5242510000000  0.4050610000000 1.0
C      1  0.5142890000000  0.5605490000000  0.4992930000000 1.0
C      1  0.4855010000000  0.4387840000000  0.5009130000000 1.0
C      1  0.5765410000000  0.5592930000000  0.4871430000000 1.0
C      1  0.4230230000000  0.4400210000000  0.5129700000000 1.0
C      1  0.4713050000000  0.4953780000000  0.4055620000000 1.0
C      1  0.5276660000000  0.5040520000000  0.5942980000000 1.0
C      1  0.4110360000000  0.4743920000000  0.4556090000000 1.0
C      1  0.5879300000000  0.5248540000000  0.5445030000000 1.0
C      1  0.4127530000000  0.5619650000000  0.5431800000000 1.0
C      1  0.5869010000000  0.4375160000000  0.4565550000000 1.0
C      1  0.5274480000000  0.4445110000000  0.4496430000000 1.0
C      1  0.4721380000000  0.5561520000000  0.5502870000000 1.0
C      1  0.3802520000000  0.5290830000000  0.5162020000000 1.0
C      1  0.6192520000000  0.4705880000000  0.4838310000000 1.0
C      1  0.4084710000000  0.5267660000000  0.4594670000000 1.0
C      1  0.5909800000000  0.4722290000000  0.5407780000000 1.0
C      1  0.4487750000000  0.5611820000000  0.4694290000000 1.0
C      1  0.5514500000000  0.4367860000000  0.5304280000000 1.0
C      1  0.5578250000000  0.5542670000000  0.4257990000000 1.0
C      1  0.4407150000000  0.4452270000000  0.5743610000000 1.0
C      1  0.4633770000000  0.5621940000000  0.4942360000000 1.0
C      1  0.5361540000000  0.4364930000000  0.5060490000000 1.0
C      1  0.5660160000000  0.5166610000000  0.5628740000000 1.0
C      1  0.4328260000000  0.4826870000000  0.4371340000000 1.0
C      1  0.4479320000000  0.4715250000000  0.4121820000000 1.0
C      1  0.5510220000000  0.5279160000000  0.5878190000000 1.0
C      1  0.5421610000000  0.5052120000000  0.5498160000000 1.0
C      1  0.4568610000000  0.4937560000000  0.4504010000000 1.0
C      1  0.4682060000000  0.4873650000000  0.5402650000000 1.0
C      1  0.5336430000000  0.5140860000000  0.4565240000000 1.0
C      1  0.4466490000000  0.4386550000000  0.4638480000000 1.0
C      1  0.5526820000000  0.5609190000000  0.5363430000000 1.0
C      1  0.4965790000000  0.4026060000000  0.5497810000000 1.0
C      1  0.5030460000000  0.5971480000000  0.4502960000000 1.0
C      1  0.4872620000000  0.4248310000000  0.5743430000000 1.0
C      1  0.5117910000000  0.5758610000000  0.4254940000000 1.0
C      1  0.4787590000000  0.6078680000000  0.4980780000000 1.0
C      1  0.5204580000000  0.3911200000000  0.5014710000000 1.0
C      1  0.5096000000000  0.6091440000000  0.5416160000000 1.0
C      1  0.4895250000000  0.3905500000000  0.4582220000000 1.0
C      1  0.4643900000000  0.4530440000000  0.4843120000000 1.0
C      1  0.5352930000000  0.5463120000000  0.5159220000000 1.0
C      1  0.4484030000000  0.4839720000000  0.5200240000000 1.0
C      1  0.5510460000000  0.5154980000000  0.4795600000000 1.0
C      1  0.6046880000000  0.5195790000000  0.4760990000000 1.0
C      1  0.3938880000000  0.4799530000000  0.5241530000000 1.0
C      1  0.4634980000000  0.5133590000000  0.4281430000000 1.0
C      1  0.5352630000000  0.4856860000000  0.5718850000000 1.0
C      1  0.5226030000000  0.3964350000000  0.5349820000000 1.0
C      1  0.4769020000000  0.6023910000000  0.4648450000000 1.0
C      1  0.5030650000000  0.4450090000000  0.4003450000000 1.0
C      1  0.4961620000000  0.5548430000000  0.5997620000000 1.0
C      1  0.4253190000000  0.5368880000000  0.5501960000000 1.0
C      1  0.5747410000000  0.4626300000000  0.4489820000000 1.0
C      1  0.5657980000000  0.4917490000000  0.4877220000000 1.0
C      1  0.4332290000000  0.5069590000000  0.5119620000000 1.0
C      1  0.5840080000000  0.4705870000000  0.5688380000000 1.0
C      1  0.4149210000000  0.5285760000000  0.4313700000000 1.0
C      1  0.5566150000000  0.4729690000000  0.5097540000000 1.0
C      1  0.4432020000000  0.5255150000000  0.4908890000000 1.0
C      1  0.4852810000000  0.4143190000000  0.4399020000000 1.0
C      1  0.5140490000000  0.5856670000000  0.5603340000000 1.0
C      1  0.5063130000000  0.4229910000000  0.4204280000000 1.0
C      1  0.4930940000000  0.5771720000000  0.5799910000000 1.0
C      1  0.4862460000000  0.4987040000000  0.4799960000000 1.0
C      1  0.5170480000000  0.5004480000000  0.5164910000000 1.0
C      1  0.5025690000000  0.4547530000000  0.5233270000000 1.0
C      1  0.4973910000000  0.5444930000000  0.4771690000000 1.0
C      1  0.4169630000000  0.4468260000000  0.4657400000000 1.0
C      1  0.5823590000000  0.5526230000000  0.5345310000000 1.0
C      1  0.5939980000000  0.4358140000000  0.5068750000000 1.0
C      1  0.4064240000000  0.5631470000000  0.4929470000000 1.0
C      1  0.4870170000000  0.4657040000000  0.5455680000000 1.0
C      1  0.5130950000000  0.5351240000000  0.4535120000000 1.0
C      1  0.4594220000000  0.4288430000000  0.4386910000000 1.0
C      1  0.5398400000000  0.5708260000000  0.5614700000000 1.0
C      1  0.4912210000000  0.4558790000000  0.5726110000000 1.0
C      1  0.5070150000000  0.5449750000000  0.4267950000000 1.0
C      1  0.5669630000000  0.5419930000000  0.4500900000000 1.0
C      1  0.4315630000000  0.4576050000000  0.5501410000000 1.0
C      1  0.4718020000000  0.5233940000000  0.4806210000000 1.0
C      1  0.5279380000000  0.4747780000000  0.5211830000000 1.0
C      1  0.4732490000000  0.4014470000000  0.5319390000000 1.0
C      1  0.5263150000000  0.5980050000000  0.4682010000000 1.0
C      1  0.4126290000000  0.4786000000000  0.5488760000000 1.0
C      1  0.5858490000000  0.5209790000000  0.4514430000000 1.0
C      1  0.4545980000000  0.5266520000000  0.5876670000000 1.0
C      1  0.5449670000000  0.4732080000000  0.4110970000000 1.0
C      1  0.4788550000000  0.4102130000000  0.5048530000000 1.0
C      1  0.5206900000000  0.5891640000000  0.4952510000000 1.0
C      1  0.4530670000000  0.5352360000000  0.5598130000000 1.0
C      1  0.5471940000000  0.4642880000000  0.4392290000000 1.0
C      1  0.4000860000000  0.5003080000000  0.4724980000000 1.0
C      1  0.5989300000000  0.4988650000000  0.5276200000000 1.0
C      1  0.4654080000000  0.5847990000000  0.5102330000000 1.0
C      1  0.5336390000000  0.4144830000000  0.4894880000000 1.0
C      1  0.4973100000000  0.4535270000000  0.4488990000000 1.0
C      1  0.5020800000000  0.5471410000000  0.5487370000000 1.0
C      1  0.4933340000000  0.3915600000000  0.4880090000000 1.0
C      1  0.5058410000000  0.6076980000000  0.5118110000000 1.0
C      1  0.4049170000000  0.4384360000000  0.4905690000000 1.0
C      1  0.5944950000000  0.5610340000000  0.5097020000000 1.0
C      1  0.5426290000000  0.5785910000000  0.4275390000000 1.0
C      1  0.4565490000000  0.4213270000000  0.5723530000000 1.0
C      1  0.4312630000000  0.5846940000000  0.5446160000000 1.0
C      1  0.5679600000000  0.4150200000000  0.4552210000000 1.0
C      1  0.4140280000000  0.4984200000000  0.5713580000000 1.0
C      1  0.5848450000000  0.5016960000000  0.4284950000000 1.0
C      1  0.5567930000000  0.4669990000000  0.5780610000000 1.0
C      1  0.4420010000000  0.5320200000000  0.4219150000000 1.0
C      1  0.4822040000000  0.5282620000000  0.5984620000000 1.0
C      1  0.5169930000000  0.4716320000000  0.4011600000000 1.0
C      1  0.5747260000000  0.5814700000000  0.4675680000000 1.0
C      1  0.4248870000000  0.4177090000000  0.5323030000000 1.0
C      1  0.5113140000000  0.5021620000000  0.4899430000000 1.0
END
