TITL C-862131-2149-888 7.25082511873092e-05 125000 -51.6443718344858 0 0 10 (D5d) n - 1
REM
REM in /home/nfs/bkarasulu/CARBON/AIRSS/Generating-Clusters/TERSOFF/Higher-Symm/FIRE-HFTN
REM
REM
REM
REM
REM
REM ./C.cell (b20cbc046b6831c77cfcea5457e17084)
REM AIRSS Version 0.9.1 bugfix July 2018 build 013d7b7c2542+ Fri, 06 Jul 2018 19:26:36 +0100
REM compiler GCC version 9.2.1 20190827 (Red Hat 9.2.1-1)
REM options -cpp -mtune=generic -march=x86-64 -g -O0 -fpre-include=/usr/include/finclude/math-vector-fortran.h
REM seed 761409341 -814564190 -1476350576 1545395622 -1452730344 -1624060738 -1087581891 1394239743 -559286490 -1663748925 -973553739 943286279 75862434 -1105282446 -487036029 -1223542112 1748990169 -1905270909 -252110426 -217606179 -1418523850 1135533261 1424695760 -938045752 1940949507 1874594648 -1343058569 -515701103 -498217802 936180315 -1502820931 -1395219433 359228639
REM
CELL 1.54180   50.00000   50.00000   50.00000   90.00000   90.00000   90.00000
LATT -1
SFAC C  
C      1  0.5052540000000  0.5390000000000  0.5195760000000 1.0
C      1  0.4947460000000  0.5430580000000  0.4929140000000 1.0
C      1  0.5052540000000  0.5306700000000  0.4689580000000 1.0
C      1  0.4947460000000  0.5065660000000  0.4568600000000 1.0
C      1  0.5052540000000  0.4799550000000  0.4612390000000 1.0
C      1  0.4947460000000  0.4610000000000  0.4804240000000 1.0
C      1  0.5052540000000  0.4569420000000  0.5070860000000 1.0
C      1  0.4947460000000  0.4693300000000  0.5310420000000 1.0
C      1  0.5052540000000  0.4934340000000  0.5431400000000 1.0
C      1  0.4947460000000  0.5200450000000  0.5387610000000 1.0
END
