TITL C-862133-5440-979 0.0308561438864975 125000 -744.528450150049 0 0 130 (C2) n - 1
REM
REM in /home/nfs/bkarasulu/CARBON/AIRSS/Generating-Clusters/TERSOFF/Higher-Symm/FIRE-HFTN
REM
REM
REM
REM
REM
REM ./C.cell (b20cbc046b6831c77cfcea5457e17084)
REM AIRSS Version 0.9.1 bugfix July 2018 build 013d7b7c2542+ Fri, 06 Jul 2018 19:26:36 +0100
REM compiler GCC version 9.2.1 20190827 (Red Hat 9.2.1-1)
REM options -cpp -mtune=generic -march=x86-64 -g -O0 -fpre-include=/usr/include/finclude/math-vector-fortran.h
REM seed -506754820 433583261 -583890445 1934129893 -995611107 680638386 750503010 -1801314608 -1635744181 -2008178943 -918434800 -637541074 1115981632 1799725155 1068209076 -1546255636 1164906299 -1036632243 788522433 -721684893 -588533168 -1776560742 1541923671 1438444710 -781907078 -756299579 334023687 1530346528 870886230 -1902109948 -147202000 394771747 -1923334890
REM
CELL 1.54180   50.00000   50.00000   50.00000   90.00000   90.00000   90.00000
LATT -1
SFAC C  
C      1  0.5119050000000  0.4945860000000  0.5496580000000 1.0
C      1  0.5128380000000  0.5244230000000  0.5430430000000 1.0
C      1  0.5117610000000  0.5438290000000  0.5194270000000 1.0
C      1  0.5230690000000  0.5423040000000  0.4903460000000 1.0
C      1  0.5104570000000  0.5327440000000  0.4636760000000 1.0
C      1  0.5119050000000  0.5054140000000  0.4503420000000 1.0
C      1  0.5128380000000  0.4755770000000  0.4569570000000 1.0
C      1  0.5117610000000  0.4561710000000  0.4805730000000 1.0
C      1  0.5230690000000  0.4576960000000  0.5096540000000 1.0
C      1  0.5104570000000  0.4672560000000  0.5363240000000 1.0
C      1  0.5883560000000  0.4452920000000  0.4576380000000 1.0
C      1  0.5898560000000  0.4328450000000  0.4850570000000 1.0
C      1  0.5890950000000  0.4386040000000  0.5493070000000 1.0
C      1  0.5872200000000  0.4609170000000  0.5696870000000 1.0
C      1  0.5870340000000  0.5179910000000  0.5945880000000 1.0
C      1  0.5883560000000  0.5547080000000  0.5423620000000 1.0
C      1  0.5898560000000  0.5671550000000  0.5149430000000 1.0
C      1  0.5890950000000  0.5613960000000  0.4506930000000 1.0
C      1  0.5872200000000  0.5390830000000  0.4303130000000 1.0
C      1  0.5870340000000  0.4820090000000  0.4054120000000 1.0
C      1  0.5631950000000  0.5797910000000  0.5084750000000 1.0
C      1  0.5610920000000  0.5718280000000  0.4556720000000 1.0
C      1  0.5584390000000  0.5354830000000  0.4216040000000 1.0
C      1  0.5599630000000  0.4835370000000  0.4158780000000 1.0
C      1  0.5612350000000  0.4403310000000  0.4452260000000 1.0
C      1  0.5631950000000  0.4202090000000  0.4915250000000 1.0
C      1  0.5610920000000  0.4281720000000  0.5443280000000 1.0
C      1  0.5584390000000  0.4645170000000  0.5783960000000 1.0
C      1  0.5599630000000  0.5164630000000  0.5841220000000 1.0
C      1  0.5612350000000  0.5596690000000  0.5547740000000 1.0
C      1  0.5146830000000  0.4912490000000  0.5809450000000 1.0
C      1  0.5159240000000  0.5405150000000  0.5703670000000 1.0
C      1  0.5164290000000  0.5725330000000  0.5316520000000 1.0
C      1  0.5192520000000  0.5758380000000  0.4837280000000 1.0
C      1  0.5131970000000  0.5543640000000  0.4406340000000 1.0
C      1  0.5146830000000  0.5087510000000  0.4190550000000 1.0
C      1  0.5159240000000  0.4594850000000  0.4296330000000 1.0
C      1  0.5164290000000  0.4274670000000  0.4683480000000 1.0
C      1  0.5192520000000  0.4241620000000  0.5162720000000 1.0
C      1  0.5131970000000  0.4456360000000  0.5593660000000 1.0
C      1  0.5075420000000  0.5888210000000  0.5077920000000 1.0
C      1  0.5039840000000  0.5781870000000  0.4575410000000 1.0
C      1  0.5021230000000  0.5375390000000  0.4170000000000 1.0
C      1  0.5043070000000  0.4809550000000  0.4101320000000 1.0
C      1  0.5048470000000  0.4316970000000  0.4402630000000 1.0
C      1  0.5075420000000  0.4111790000000  0.4922080000000 1.0
C      1  0.5039840000000  0.4218130000000  0.5424590000000 1.0
C      1  0.5021230000000  0.4624610000000  0.5830000000000 1.0
C      1  0.5043070000000  0.5190450000000  0.5898680000000 1.0
C      1  0.5048470000000  0.5683030000000  0.5597370000000 1.0
C      1  0.5665990000000  0.4678010000000  0.4856370000000 1.0
C      1  0.5516220000000  0.4656070000000  0.5100860000000 1.0
C      1  0.5646390000000  0.4697410000000  0.5353930000000 1.0
C      1  0.5668120000000  0.4949670000000  0.5486950000000 1.0
C      1  0.5570810000000  0.5197410000000  0.5382460000000 1.0
C      1  0.5665990000000  0.5321990000000  0.5143630000000 1.0
C      1  0.5516220000000  0.5343930000000  0.4899140000000 1.0
C      1  0.5646390000000  0.5302590000000  0.4646070000000 1.0
C      1  0.5668120000000  0.5050330000000  0.4513050000000 1.0
C      1  0.5570810000000  0.4802590000000  0.4617540000000 1.0
C      1  0.4315860000000  0.4199440000000  0.4895160000000 1.0
C      1  0.4300860000000  0.4367960000000  0.5277680000000 1.0
C      1  0.4312830000000  0.4611570000000  0.5725950000000 1.0
C      1  0.4315290000000  0.5139870000000  0.5879890000000 1.0
C      1  0.4326240000000  0.5598190000000  0.5624290000000 1.0
C      1  0.4315860000000  0.5800560000000  0.5104840000000 1.0
C      1  0.4300860000000  0.5632040000000  0.4722320000000 1.0
C      1  0.4312830000000  0.5388430000000  0.4274050000000 1.0
C      1  0.4315290000000  0.4860130000000  0.4120110000000 1.0
C      1  0.4326240000000  0.4401810000000  0.4375710000000 1.0
C      1  0.4807100000000  0.5817800000000  0.5694190000000 1.0
C      1  0.4825510000000  0.6027990000000  0.5061680000000 1.0
C      1  0.4780150000000  0.5919760000000  0.4544560000000 1.0
C      1  0.4781730000000  0.5442780000000  0.4014820000000 1.0
C      1  0.4813940000000  0.4766490000000  0.3925140000000 1.0
C      1  0.4807100000000  0.4182200000000  0.4305810000000 1.0
C      1  0.4825510000000  0.3972010000000  0.4938320000000 1.0
C      1  0.4780150000000  0.4080240000000  0.5455440000000 1.0
C      1  0.4781730000000  0.4557220000000  0.5985180000000 1.0
C      1  0.4813940000000  0.5233510000000  0.6074860000000 1.0
C      1  0.4699940000000  0.4727810000000  0.4511240000000 1.0
C      1  0.4667830000000  0.4568550000000  0.4766810000000 1.0
C      1  0.4727040000000  0.4663770000000  0.5070850000000 1.0
C      1  0.4688670000000  0.4713130000000  0.5402150000000 1.0
C      1  0.4682500000000  0.4977110000000  0.5559530000000 1.0
C      1  0.4699940000000  0.5272190000000  0.5488760000000 1.0
C      1  0.4667830000000  0.5431450000000  0.5233190000000 1.0
C      1  0.4727040000000  0.5336230000000  0.4929150000000 1.0
C      1  0.4688670000000  0.5286870000000  0.4597850000000 1.0
C      1  0.4682500000000  0.5022890000000  0.4440470000000 1.0
C      1  0.5450900000000  0.4904740000000  0.5843570000000 1.0
C      1  0.5466240000000  0.5409060000000  0.5729680000000 1.0
C      1  0.5463400000000  0.5755090000000  0.5337830000000 1.0
C      1  0.5493880000000  0.5799210000000  0.4818310000000 1.0
C      1  0.5431430000000  0.5572680000000  0.4358190000000 1.0
C      1  0.5450900000000  0.5095260000000  0.4156430000000 1.0
C      1  0.5466240000000  0.4590940000000  0.4270320000000 1.0
C      1  0.5463400000000  0.4244910000000  0.4662170000000 1.0
C      1  0.5493880000000  0.4200790000000  0.5181690000000 1.0
C      1  0.5431430000000  0.4427320000000  0.5641810000000 1.0
C      1  0.4177450000000  0.4492210000000  0.4891760000000 1.0
C      1  0.4147030000000  0.4654170000000  0.5212310000000 1.0
C      1  0.4177610000000  0.4802670000000  0.5513260000000 1.0
C      1  0.4175850000000  0.5115650000000  0.5587870000000 1.0
C      1  0.4178710000000  0.5399020000000  0.5419600000000 1.0
C      1  0.4177450000000  0.5507790000000  0.5108240000000 1.0
C      1  0.4147030000000  0.5345830000000  0.4787690000000 1.0
C      1  0.4177610000000  0.5197330000000  0.4486740000000 1.0
C      1  0.4175850000000  0.4884350000000  0.4412130000000 1.0
C      1  0.4178710000000  0.4600980000000  0.4580400000000 1.0
C      1  0.4546030000000  0.5700790000000  0.5281920000000 1.0
C      1  0.4588940000000  0.5609030000000  0.4852150000000 1.0
C      1  0.4552550000000  0.5493600000000  0.4417490000000 1.0
C      1  0.4540770000000  0.5049820000000  0.4176240000000 1.0
C      1  0.4562900000000  0.4568120000000  0.4292120000000 1.0
C      1  0.4546030000000  0.4299210000000  0.4718080000000 1.0
C      1  0.4588940000000  0.4390970000000  0.5147850000000 1.0
C      1  0.4552550000000  0.4506400000000  0.5582510000000 1.0
C      1  0.4540770000000  0.4950180000000  0.5823760000000 1.0
C      1  0.4562900000000  0.5431880000000  0.5707880000000 1.0
C      1  0.4526580000000  0.4213910000000  0.5521260000000 1.0
C      1  0.4524880000000  0.4692470000000  0.5957540000000 1.0
C      1  0.4557510000000  0.5337350000000  0.5984480000000 1.0
C      1  0.4551030000000  0.5821060000000  0.5551960000000 1.0
C      1  0.4595270000000  0.5920140000000  0.4928340000000 1.0
C      1  0.4526580000000  0.5786090000000  0.4478740000000 1.0
C      1  0.4524880000000  0.5307530000000  0.4042460000000 1.0
C      1  0.4557510000000  0.4662650000000  0.4015520000000 1.0
C      1  0.4551030000000  0.4178940000000  0.4448040000000 1.0
C      1  0.4595270000000  0.4079860000000  0.5071660000000 1.0
END
