TITL C-862500-986-1292 2253359.019112 125000 -1113.18646391607 0 0 188 (C2) n - 1
REM
REM in /home/nfs/bkarasulu/CARBON/AIRSS/Generating-Clusters/TERSOFF/Higher-Symm/FIRE-HFTN
REM
REM
REM
REM
REM
REM ./C.cell (b20cbc046b6831c77cfcea5457e17084)
REM AIRSS Version 0.9.1 bugfix July 2018 build 013d7b7c2542+ Fri, 06 Jul 2018 19:26:36 +0100
REM compiler GCC version 9.2.1 20190827 (Red Hat 9.2.1-1)
REM options -cpp -mtune=generic -march=x86-64 -g -O0 -fpre-include=/usr/include/finclude/math-vector-fortran.h
REM seed 887276709 -1923475652 1796269608 2143318529 -652302983 1991010479 -1486650181 -2036386863 1625012340 -2102920470 -1965794708 1084710814 2139098707 -1608983731 1531393087 324839436 449632061 -1341094724 -599256115 736702893 767456637 -799899750 -1612055648 -694004649 -1972898124 288119629 307673587 -33048806 993685210 1064107165 1235045654 1770665411 500173706
REM
CELL 1.54180   50.00000   50.00000   50.00000   90.00000   90.00000   90.00000
LATT -1
SFAC C  
C      1  0.6466570000000  0.4992680000000  0.4921630000000 1.0
C      1  0.4777950000000  0.6292120000000  0.5024780000000 1.0
C      1  0.3533270000000  0.5007380000000  0.4921530000000 1.0
C      1  0.5222030000000  0.3707860000000  0.5024730000000 1.0
C      1  0.6667450000000  0.4604740000000  0.4518930000000 1.0
C      1  0.4830960000000  0.3374200000000  0.4723370000000 1.0
C      1  0.3332440000000  0.5395310000000  0.4518810000000 1.0
C      1  0.5168980000000  0.6625820000000  0.4723410000000 1.0
C      1  0.5489360000000  0.4155450000000  0.5086830000000 1.0
C      1  0.5793330000000  0.5532120000000  0.5148790000000 1.0
C      1  0.4510640000000  0.5844520000000  0.5086880000000 1.0
C      1  0.4206700000000  0.4467860000000  0.5148860000000 1.0
C      1  0.5563780000000  0.5743470000000  0.5156460000000 1.0
C      1  0.5709610000000  0.4429680000000  0.5139330000000 1.0
C      1  0.4436240000000  0.4256510000000  0.5156490000000 1.0
C      1  0.4290410000000  0.5570280000000  0.5139380000000 1.0
C      1  0.4641800000000  0.4862170000000  0.4029420000000 1.0
C      1  0.5136770000000  0.4641770000000  0.4008840000000 1.0
C      1  0.5358160000000  0.5137870000000  0.4029410000000 1.0
C      1  0.4863180000000  0.5358270000000  0.4008840000000 1.0
C      1  0.4648360000000  0.5143100000000  0.3947900000000 1.0
C      1  0.5154810000000  0.5360340000000  0.3970270000000 1.0
C      1  0.5351600000000  0.4856940000000  0.3947900000000 1.0
C      1  0.4845140000000  0.4639700000000  0.3970270000000 1.0
C      1  0.4516350000000  0.4078930000000  0.4657630000000 1.0
C      1  0.5879160000000  0.4570290000000  0.4642850000000 1.0
C      1  0.5483620000000  0.5921090000000  0.4657630000000 1.0
C      1  0.4120850000000  0.5429670000000  0.4642890000000 1.0
C      1  0.4354880000000  0.5940940000000  0.4569620000000 1.0
C      1  0.5951250000000  0.5587250000000  0.4635200000000 1.0
C      1  0.5645090000000  0.4059040000000  0.4569560000000 1.0
C      1  0.4048760000000  0.4412840000000  0.4635280000000 1.0
C      1  0.5625490000000  0.5130370000000  0.5997510000000 1.0
C      1  0.4868920000000  0.5627120000000  0.5995600000000 1.0
C      1  0.4374600000000  0.4869590000000  0.5997570000000 1.0
C      1  0.5131170000000  0.4372840000000  0.5995580000000 1.0
C      1  0.5611730000000  0.4829100000000  0.6005520000000 1.0
C      1  0.4829820000000  0.4385420000000  0.6003110000000 1.0
C      1  0.4388360000000  0.5170870000000  0.6005580000000 1.0
C      1  0.5170270000000  0.5614550000000  0.6003100000000 1.0
C      1  0.6771840000000  0.4417620000000  0.4323330000000 1.0
C      1  0.5362660000000  0.6789490000000  0.4582090000000 1.0
C      1  0.3228060000000  0.5582420000000  0.4323180000000 1.0
C      1  0.4637260000000  0.3210550000000  0.4582050000000 1.0
C      1  0.6361060000000  0.5172490000000  0.5123900000000 1.0
C      1  0.5420160000000  0.3872100000000  0.5164490000000 1.0
C      1  0.3638770000000  0.4827590000000  0.5123820000000 1.0
C      1  0.4579840000000  0.6127860000000  0.5164540000000 1.0
C      1  0.4620710000000  0.4859100000000  0.4642230000000 1.0
C      1  0.5133400000000  0.4634870000000  0.4636570000000 1.0
C      1  0.5379270000000  0.5140880000000  0.4642200000000 1.0
C      1  0.4866580000000  0.5365100000000  0.4636590000000 1.0
C      1  0.4644480000000  0.5160300000000  0.4727060000000 1.0
C      1  0.5170970000000  0.5362100000000  0.4720420000000 1.0
C      1  0.5355510000000  0.4839670000000  0.4727030000000 1.0
C      1  0.4829010000000  0.4637880000000  0.4720430000000 1.0
C      1  0.5605400000000  0.4690970000000  0.5213910000000 1.0
C      1  0.5298920000000  0.5637030000000  0.5209860000000 1.0
C      1  0.4394640000000  0.5308990000000  0.5213970000000 1.0
C      1  0.4701100000000  0.4362940000000  0.5209870000000 1.0
C      1  0.5676550000000  0.5260540000000  0.5180430000000 1.0
C      1  0.5253310000000  0.4342280000000  0.5165360000000 1.0
C      1  0.4323480000000  0.4739430000000  0.5180490000000 1.0
C      1  0.4746710000000  0.5657690000000  0.5165390000000 1.0
C      1  0.4300130000000  0.5536190000000  0.6343490000000 1.0
C      1  0.4463380000000  0.4298930000000  0.6340390000000 1.0
C      1  0.5699990000000  0.4463770000000  0.6343420000000 1.0
C      1  0.5536740000000  0.5701030000000  0.6340350000000 1.0
C      1  0.4267560000000  0.4506550000000  0.6333310000000 1.0
C      1  0.4506730000000  0.5732960000000  0.6333030000000 1.0
C      1  0.5732570000000  0.5493410000000  0.6333250000000 1.0
C      1  0.5493390000000  0.4267000000000  0.6332980000000 1.0
C      1  0.4019330000000  0.4875450000000  0.4329790000000 1.0
C      1  0.5128660000000  0.4122440000000  0.4384390000000 1.0
C      1  0.5980580000000  0.5124580000000  0.4329830000000 1.0
C      1  0.4871300000000  0.5877590000000  0.4384410000000 1.0
C      1  0.3975580000000  0.5122820000000  0.4177990000000 1.0
C      1  0.5111540000000  0.5986670000000  0.4261120000000 1.0
C      1  0.6024370000000  0.4877220000000  0.4178010000000 1.0
C      1  0.4888410000000  0.4013370000000  0.4261100000000 1.0
C      1  0.5339590000000  0.4240910000000  0.4231040000000 1.0
C      1  0.5781010000000  0.5320630000000  0.4252720000000 1.0
C      1  0.4660370000000  0.5759120000000  0.4231070000000 1.0
C      1  0.4218940000000  0.4679420000000  0.4252740000000 1.0
C      1  0.5326380000000  0.5797660000000  0.4195950000000 1.0
C      1  0.5800770000000  0.4691930000000  0.4151560000000 1.0
C      1  0.4673570000000  0.4202390000000  0.4195950000000 1.0
C      1  0.4199190000000  0.5308100000000  0.4151570000000 1.0
C      1  0.5049380000000  0.6714730000000  0.4974070000000 1.0
C      1  0.3228290000000  0.5386850000000  0.4789620000000 1.0
C      1  0.4950580000000  0.3285270000000  0.4974020000000 1.0
C      1  0.6771580000000  0.4613220000000  0.4789760000000 1.0
C      1  0.5140630000000  0.3446420000000  0.5120020000000 1.0
C      1  0.3325820000000  0.5199610000000  0.4984530000000 1.0
C      1  0.4859340000000  0.6553560000000  0.5120080000000 1.0
C      1  0.6674030000000  0.4800470000000  0.4984650000000 1.0
C      1  0.4728000000000  0.4400320000000  0.6277640000000 1.0
C      1  0.5597940000000  0.4728100000000  0.6280370000000 1.0
C      1  0.5272120000000  0.5599640000000  0.6277620000000 1.0
C      1  0.4402180000000  0.5271870000000  0.6280430000000 1.0
C      1  0.4763130000000  0.5613790000000  0.6267870000000 1.0
C      1  0.5613240000000  0.5236770000000  0.6269470000000 1.0
C      1  0.5236990000000  0.4386170000000  0.6267840000000 1.0
C      1  0.4386880000000  0.4763190000000  0.6269520000000 1.0
C      1  0.4371960000000  0.5199800000000  0.5501240000000 1.0
C      1  0.4806430000000  0.4369300000000  0.5497190000000 1.0
C      1  0.5628090000000  0.4800170000000  0.5501190000000 1.0
C      1  0.5193620000000  0.5630670000000  0.5497180000000 1.0
C      1  0.4370000000000  0.4839840000000  0.5475870000000 1.0
C      1  0.4834180000000  0.5627870000000  0.5470970000000 1.0
C      1  0.5630050000000  0.5160140000000  0.5475810000000 1.0
C      1  0.5165870000000  0.4372100000000  0.5470950000000 1.0
C      1  0.5523690000000  0.5755850000000  0.4416590000000 1.0
C      1  0.4247320000000  0.5490240000000  0.4381380000000 1.0
C      1  0.4476280000000  0.4244200000000  0.4416600000000 1.0
C      1  0.5752660000000  0.4509750000000  0.4381350000000 1.0
C      1  0.5600660000000  0.4252990000000  0.4357710000000 1.0
C      1  0.4238980000000  0.4435960000000  0.4415310000000 1.0
C      1  0.4399310000000  0.5747010000000  0.4357750000000 1.0
C      1  0.5761010000000  0.5564120000000  0.4415260000000 1.0
C      1  0.5145330000000  0.4680150000000  0.5390150000000 1.0
C      1  0.5321640000000  0.5145150000000  0.5392860000000 1.0
C      1  0.4854710000000  0.5319820000000  0.5390170000000 1.0
C      1  0.4678400000000  0.4854820000000  0.5392890000000 1.0
C      1  0.5130390000000  0.5330120000000  0.5469150000000 1.0
C      1  0.5327220000000  0.4869320000000  0.5473150000000 1.0
C      1  0.4869660000000  0.4669850000000  0.5469160000000 1.0
C      1  0.4672810000000  0.5130650000000  0.5473170000000 1.0
C      1  0.5708800000000  0.4137410000000  0.4838250000000 1.0
C      1  0.5885780000000  0.5701600000000  0.4890230000000 1.0
C      1  0.4291200000000  0.5862550000000  0.4838300000000 1.0
C      1  0.4114230000000  0.4298440000000  0.4890280000000 1.0
C      1  0.5645520000000  0.5903970000000  0.4896650000000 1.0
C      1  0.5878250000000  0.4388270000000  0.4873170000000 1.0
C      1  0.4354470000000  0.4096040000000  0.4896660000000 1.0
C      1  0.4121760000000  0.5611680000000  0.4873220000000 1.0
C      1  0.4442500000000  0.4701640000000  0.5753420000000 1.0
C      1  0.5299350000000  0.4443440000000  0.5752570000000 1.0
C      1  0.5557570000000  0.5298320000000  0.5753370000000 1.0
C      1  0.4700720000000  0.5556530000000  0.5752600000000 1.0
C      1  0.4456060000000  0.5340620000000  0.5765130000000 1.0
C      1  0.5339360000000  0.5545900000000  0.5762500000000 1.0
C      1  0.5544010000000  0.4659350000000  0.5765080000000 1.0
C      1  0.4660710000000  0.4454070000000  0.5762520000000 1.0
C      1  0.4849330000000  0.5422030000000  0.4983750000000 1.0
C      1  0.4563450000000  0.4836180000000  0.4990700000000 1.0
C      1  0.5150680000000  0.4577940000000  0.4983730000000 1.0
C      1  0.5436570000000  0.5163790000000  0.4990670000000 1.0
C      1  0.4807920000000  0.4591520000000  0.5037290000000 1.0
C      1  0.4609400000000  0.5180580000000  0.5044310000000 1.0
C      1  0.5192090000000  0.5408460000000  0.5037280000000 1.0
C      1  0.5390620000000  0.4819390000000  0.5044270000000 1.0
C      1  0.4685030000000  0.4376380000000  0.3956930000000 1.0
C      1  0.5616000000000  0.4700410000000  0.3919420000000 1.0
C      1  0.5314920000000  0.5623670000000  0.3956930000000 1.0
C      1  0.4383960000000  0.5299630000000  0.3919430000000 1.0
C      1  0.4711570000000  0.5618020000000  0.3986490000000 1.0
C      1  0.5622900000000  0.5288420000000  0.4014490000000 1.0
C      1  0.5288380000000  0.4382020000000  0.3986470000000 1.0
C      1  0.4377050000000  0.4711620000000  0.4014510000000 1.0
C      1  0.4637650000000  0.5162020000000  0.6439580000000 1.0
C      1  0.4837780000000  0.4635320000000  0.6437120000000 1.0
C      1  0.5362490000000  0.4837940000000  0.6439550000000 1.0
C      1  0.5162350000000  0.5364640000000  0.6437110000000 1.0
C      1  0.4626580000000  0.4857160000000  0.6427630000000 1.0
C      1  0.4858230000000  0.5374660000000  0.6425980000000 1.0
C      1  0.5373560000000  0.5142800000000  0.6427600000000 1.0
C      1  0.5141900000000  0.4625300000000  0.6425970000000 1.0
C      1  0.3858530000000  0.4834220000000  0.4569360000000 1.0
C      1  0.5177520000000  0.4055640000000  0.4660750000000 1.0
C      1  0.6141320000000  0.5165790000000  0.4569430000000 1.0
C      1  0.4822450000000  0.5944370000000  0.4660780000000 1.0
C      1  0.3705880000000  0.5235320000000  0.4206040000000 1.0
C      1  0.5181240000000  0.6257260000000  0.4360920000000 1.0
C      1  0.6294070000000  0.4764740000000  0.4206100000000 1.0
C      1  0.4818710000000  0.3742780000000  0.4360890000000 1.0
C      1  0.6451220000000  0.4791590000000  0.4450860000000 1.0
C      1  0.5087240000000  0.6362880000000  0.4620540000000 1.0
C      1  0.3548680000000  0.5208460000000  0.4450760000000 1.0
C      1  0.4912720000000  0.3637130000000  0.4620500000000 1.0
C      1  0.6360170000000  0.4992510000000  0.4647770000000 1.0
C      1  0.5100290000000  0.3804500000000  0.4776250000000 1.0
C      1  0.3639690000000  0.5007520000000  0.4647680000000 1.0
C      1  0.4899680000000  0.6195500000000  0.4776290000000 1.0
C      1  0.5528970000000  0.4433300000000  0.3820030000000 1.0
C      1  0.5580410000000  0.5535370000000  0.3855610000000 1.0
C      1  0.4470980000000  0.5566750000000  0.3820050000000 1.0
C      1  0.4419530000000  0.4464670000000  0.3855630000000 1.0
END
