TITL C-862501-1041-1422 -0.000652579087542281 125000 -289.103514172227 0 0 52 (C4) n - 1
REM
REM in /home/nfs/bkarasulu/CARBON/AIRSS/Generating-Clusters/TERSOFF/Higher-Symm/FIRE-HFTN
REM
REM
REM
REM
REM
REM ./C.cell (b20cbc046b6831c77cfcea5457e17084)
REM AIRSS Version 0.9.1 bugfix July 2018 build 013d7b7c2542+ Fri, 06 Jul 2018 19:26:36 +0100
REM compiler GCC version 9.2.1 20190827 (Red Hat 9.2.1-1)
REM options -cpp -mtune=generic -march=x86-64 -g -O0 -fpre-include=/usr/include/finclude/math-vector-fortran.h
REM seed -2118779649 -1341732930 235273398 -616842834 1555460838 -653617608 1260603040 563566467 -373510482 644842767 -63733598 -531067130 -919451491 392757794 -663200966 -360003421 1181025305 -1708961222 644718893 -1209513365 58722019 135345213 -868746148 -252532072 -1579528194 -1547005416 860076765 224910825 -1395419829 2008348345 1894555065 1254238468 -694249999
REM
CELL 1.54180   50.00000   50.00000   50.00000   90.00000   90.00000   90.00000
LATT -1
SFAC C  
C      1  0.4572950000000  0.5458700000000  0.4662720000000 1.0
C      1  0.5455290000000  0.5423440000000  0.4663540000000 1.0
C      1  0.5427050000000  0.4541300000000  0.4662720000000 1.0
C      1  0.4544710000000  0.4576560000000  0.4663540000000 1.0
C      1  0.5165490000000  0.5129270000000  0.4737480000000 1.0
C      1  0.5132620000000  0.4830150000000  0.4739010000000 1.0
C      1  0.4834510000000  0.4870730000000  0.4737480000000 1.0
C      1  0.4867380000000  0.5169850000000  0.4739010000000 1.0
C      1  0.5582140000000  0.4724120000000  0.4867960000000 1.0
C      1  0.4726160000000  0.4419740000000  0.4867930000000 1.0
C      1  0.4417860000000  0.5275880000000  0.4867960000000 1.0
C      1  0.5273840000000  0.5580260000000  0.4867930000000 1.0
C      1  0.4950470000000  0.5524830000000  0.5416220000000 1.0
C      1  0.5524520000000  0.5049530000000  0.5415580000000 1.0
C      1  0.5049530000000  0.4475170000000  0.5416220000000 1.0
C      1  0.4475480000000  0.4950470000000  0.5415580000000 1.0
C      1  0.5239690000000  0.4656730000000  0.5544910000000 1.0
C      1  0.4656690000000  0.4760210000000  0.5544750000000 1.0
C      1  0.4760310000000  0.5343270000000  0.5544910000000 1.0
C      1  0.5343310000000  0.5239790000000  0.5544750000000 1.0
C      1  0.4975160000000  0.4743090000000  0.4248860000000 1.0
C      1  0.4742930000000  0.5025370000000  0.4248740000000 1.0
C      1  0.5024840000000  0.5256910000000  0.4248860000000 1.0
C      1  0.5257070000000  0.4974630000000  0.4248740000000 1.0
C      1  0.5181630000000  0.5131780000000  0.5764010000000 1.0
C      1  0.5131630000000  0.4818630000000  0.5763990000000 1.0
C      1  0.4818370000000  0.4868220000000  0.5764010000000 1.0
C      1  0.4868370000000  0.5181370000000  0.5763990000000 1.0
C      1  0.5659110000000  0.5267200000000  0.4838840000000 1.0
C      1  0.5268780000000  0.4339160000000  0.4838860000000 1.0
C      1  0.4340890000000  0.4732800000000  0.4838840000000 1.0
C      1  0.4731220000000  0.5660840000000  0.4838860000000 1.0
C      1  0.4538600000000  0.5233190000000  0.5385000000000 1.0
C      1  0.5233110000000  0.5461690000000  0.5385200000000 1.0
C      1  0.5461400000000  0.4766810000000  0.5385000000000 1.0
C      1  0.4766890000000  0.4538310000000  0.5385200000000 1.0
C      1  0.4756060000000  0.5296030000000  0.4481430000000 1.0
C      1  0.5293310000000  0.5241160000000  0.4482200000000 1.0
C      1  0.5243940000000  0.4703970000000  0.4481430000000 1.0
C      1  0.4706690000000  0.4758840000000  0.4482200000000 1.0
C      1  0.4454050000000  0.5388350000000  0.5152280000000 1.0
C      1  0.5387540000000  0.5545780000000  0.5151960000000 1.0
C      1  0.5545950000000  0.4611650000000  0.5152280000000 1.0
C      1  0.4612460000000  0.4454220000000  0.5151960000000 1.0
C      1  0.4262000000000  0.5023600000000  0.4794620000000 1.0
C      1  0.5022550000000  0.5737680000000  0.4794170000000 1.0
C      1  0.5738000000000  0.4976400000000  0.4794620000000 1.0
C      1  0.4977450000000  0.4262320000000  0.4794170000000 1.0
C      1  0.4606060000000  0.5641110000000  0.5105110000000 1.0
C      1  0.5640400000000  0.5393710000000  0.5104620000000 1.0
C      1  0.5393940000000  0.4358890000000  0.5105110000000 1.0
C      1  0.4359600000000  0.4606290000000  0.5104620000000 1.0
END
