TITL C-862501-1041-1108 0.0102751400210056 125000 -802.048702022697 0 0 151 (C2) n - 1
REM
REM in /home/nfs/bkarasulu/CARBON/AIRSS/Generating-Clusters/TERSOFF/Higher-Symm/FIRE-HFTN
REM
REM
REM
REM
REM
REM ./C.cell (b20cbc046b6831c77cfcea5457e17084)
REM AIRSS Version 0.9.1 bugfix July 2018 build 013d7b7c2542+ Fri, 06 Jul 2018 19:26:36 +0100
REM compiler GCC version 9.2.1 20190827 (Red Hat 9.2.1-1)
REM options -cpp -mtune=generic -march=x86-64 -g -O0 -fpre-include=/usr/include/finclude/math-vector-fortran.h
REM seed -1613123265 -897034047 1766421262 -980404988 -853938271 1319289344 1758303116 -400097225 -488322482 -960603692 -297103374 -837910502 -1465193303 -2049286969 1697740696 -841160270 1044103111 -995302846 -1192570730 -1733465400 -1451537 -948139123 1801705191 2062404550 740016083 -448855388 1723022185 1792450029 1833140311 721676435 -179718006 -1828390700 788374091
REM
CELL 1.54180   50.00000   50.00000   50.00000   90.00000   90.00000   90.00000
LATT -1
SFAC C  
C      1  0.5430630000000  0.4430400000000  0.5768780000000 1.0
C      1  0.5443730000000  0.5582830000000  0.4227970000000 1.0
C      1  0.4546510000000  0.4419360000000  0.4227970000000 1.0
C      1  0.4559600000000  0.5571800000000  0.5768770000000 1.0
C      1  0.4088900000000  0.5319160000000  0.5426820000000 1.0
C      1  0.4052510000000  0.4654740000000  0.4564950000000 1.0
C      1  0.5937730000000  0.5347450000000  0.4564960000000 1.0
C      1  0.5901330000000  0.4683040000000  0.5426830000000 1.0
C      1  0.5748160000000  0.5722260000000  0.4655500000000 1.0
C      1  0.5728040000000  0.4300330000000  0.5335570000000 1.0
C      1  0.4262190000000  0.5701870000000  0.5335560000000 1.0
C      1  0.4242080000000  0.4279930000000  0.4655500000000 1.0
C      1  0.4352290000000  0.5193420000000  0.4973780000000 1.0
C      1  0.4292470000000  0.4783070000000  0.5020790000000 1.0
C      1  0.5697760000000  0.5219130000000  0.5020790000000 1.0
C      1  0.5637950000000  0.4808770000000  0.4973780000000 1.0
C      1  0.4487090000000  0.4935630000000  0.5498500000000 1.0
C      1  0.4480900000000  0.5027060000000  0.4502780000000 1.0
C      1  0.5509350000000  0.4975120000000  0.4502790000000 1.0
C      1  0.5503140000000  0.5066570000000  0.5498510000000 1.0
C      1  0.4792230000000  0.4330160000000  0.5761750000000 1.0
C      1  0.4794390000000  0.5666470000000  0.4246060000000 1.0
C      1  0.5195860000000  0.4335720000000  0.4246070000000 1.0
C      1  0.5198000000000  0.5672050000000  0.5761750000000 1.0
C      1  0.5446350000000  0.5793760000000  0.4734750000000 1.0
C      1  0.5428430000000  0.4223490000000  0.5265710000000 1.0
C      1  0.4561800000000  0.5778710000000  0.5265700000000 1.0
C      1  0.4543890000000  0.4208430000000  0.4734760000000 1.0
C      1  0.4693320000000  0.5095660000000  0.4891880000000 1.0
C      1  0.4590770000000  0.4871270000000  0.5096960000000 1.0
C      1  0.5399470000000  0.5130930000000  0.5096960000000 1.0
C      1  0.5296920000000  0.4906530000000  0.4891890000000 1.0
C      1  0.4640010000000  0.4108200000000  0.5003970000000 1.0
C      1  0.4655580000000  0.5881940000000  0.4999030000000 1.0
C      1  0.5334650000000  0.4120250000000  0.4999040000000 1.0
C      1  0.5350230000000  0.5893990000000  0.5003960000000 1.0
C      1  0.5413370000000  0.4576490000000  0.5338270000000 1.0
C      1  0.5436910000000  0.5442400000000  0.4666990000000 1.0
C      1  0.4553330000000  0.4559790000000  0.4666990000000 1.0
C      1  0.4576870000000  0.5425710000000  0.5338260000000 1.0
C      1  0.4153990000000  0.4958010000000  0.5752850000000 1.0
C      1  0.4149450000000  0.5036750000000  0.4245050000000 1.0
C      1  0.5840790000000  0.4965440000000  0.4245060000000 1.0
C      1  0.5836240000000  0.5044190000000  0.5752860000000 1.0
C      1  0.5874950000000  0.4769780000000  0.4498120000000 1.0
C      1  0.5884660000000  0.5241430000000  0.5506220000000 1.0
C      1  0.4105570000000  0.4760780000000  0.5506210000000 1.0
C      1  0.4115290000000  0.5232410000000  0.4498110000000 1.0
C      1  0.4529990000000  0.5214250000000  0.4249160000000 1.0
C      1  0.4535480000000  0.4782610000000  0.5762590000000 1.0
C      1  0.5454750000000  0.5219600000000  0.5762600000000 1.0
C      1  0.5460250000000  0.4787940000000  0.4249170000000 1.0
C      1  0.5076830000000  0.5163050000000  0.4120980000000 1.0
C      1  0.5079190000000  0.4840670000000  0.5875700000000 1.0
C      1  0.4911040000000  0.5161530000000  0.5875700000000 1.0
C      1  0.4913420000000  0.4839130000000  0.4120990000000 1.0
C      1  0.6003280000000  0.5453170000000  0.4851800000000 1.0
C      1  0.5974620000000  0.4581510000000  0.5145890000000 1.0
C      1  0.4015620000000  0.5420690000000  0.5145880000000 1.0
C      1  0.3986960000000  0.4549020000000  0.4851800000000 1.0
C      1  0.5235610000000  0.5883380000000  0.4539850000000 1.0
C      1  0.5223030000000  0.4126270000000  0.5461600000000 1.0
C      1  0.4767200000000  0.5875930000000  0.5461590000000 1.0
C      1  0.4754630000000  0.4118810000000  0.4539860000000 1.0
C      1  0.4922570000000  0.5136730000000  0.5565550000000 1.0
C      1  0.4930260000000  0.4861830000000  0.4431660000000 1.0
C      1  0.5059980000000  0.5140350000000  0.4431660000000 1.0
C      1  0.5067670000000  0.4865470000000  0.5565550000000 1.0
C      1  0.5481970000000  0.4155440000000  0.4724670000000 1.0
C      1  0.5495210000000  0.5857390000000  0.5281310000000 1.0
C      1  0.4495020000000  0.4144800000000  0.5281310000000 1.0
C      1  0.4508270000000  0.5846750000000  0.4724650000000 1.0
C      1  0.4294580000000  0.4445040000000  0.4974590000000 1.0
C      1  0.4327920000000  0.5532420000000  0.5020100000000 1.0
C      1  0.5662320000000  0.4469780000000  0.5020120000000 1.0
C      1  0.5695660000000  0.5557150000000  0.4974590000000 1.0
C      1  0.4311860000000  0.4782520000000  0.4667050000000 1.0
C      1  0.4351080000000  0.5194550000000  0.5333880000000 1.0
C      1  0.5639160000000  0.4807650000000  0.5333890000000 1.0
C      1  0.5678380000000  0.5219680000000  0.4667060000000 1.0
C      1  0.3892530000000  0.5234900000000  0.4955120000000 1.0
C      1  0.3857100000000  0.4725540000000  0.5049760000000 1.0
C      1  0.6133140000000  0.5276660000000  0.5049770000000 1.0
C      1  0.6097710000000  0.4767290000000  0.4955130000000 1.0
C      1  0.5821830000000  0.5534650000000  0.5554060000000 1.0
C      1  0.5814260000000  0.4475440000000  0.4452230000000 1.0
C      1  0.4175990000000  0.5526750000000  0.4452210000000 1.0
C      1  0.4168400000000  0.4467550000000  0.5554060000000 1.0
C      1  0.5200760000000  0.4458250000000  0.4649770000000 1.0
C      1  0.5230950000000  0.5538700000000  0.5351680000000 1.0
C      1  0.4759280000000  0.4463500000000  0.5351690000000 1.0
C      1  0.4789480000000  0.5543940000000  0.4649760000000 1.0
C      1  0.4263600000000  0.5512450000000  0.5629510000000 1.0
C      1  0.4246420000000  0.4477330000000  0.4359680000000 1.0
C      1  0.5743820000000  0.5524860000000  0.4359690000000 1.0
C      1  0.5726630000000  0.4489750000000  0.5629520000000 1.0
C      1  0.4730410000000  0.4186650000000  0.5470110000000 1.0
C      1  0.4740700000000  0.5816370000000  0.4532540000000 1.0
C      1  0.5249550000000  0.4185820000000  0.4532550000000 1.0
C      1  0.5259820000000  0.5815550000000  0.5470110000000 1.0
C      1  0.4107080000000  0.5131700000000  0.4778320000000 1.0
C      1  0.4065100000000  0.4853310000000  0.5224500000000 1.0
C      1  0.5925140000000  0.5148890000000  0.5224510000000 1.0
C      1  0.5883160000000  0.4870490000000  0.4778330000000 1.0
C      1  0.5260010000000  0.4988180000000  0.5338560000000 1.0
C      1  0.5266520000000  0.5049070000000  0.4637290000000 1.0
C      1  0.4723720000000  0.4953120000000  0.4637290000000 1.0
C      1  0.4730220000000  0.5014020000000  0.5338560000000 1.0
C      1  0.4298820000000  0.5230780000000  0.4055580000000 1.0
C      1  0.4302480000000  0.4774710000000  0.5954370000000 1.0
C      1  0.5687750000000  0.5227490000000  0.5954370000000 1.0
C      1  0.5691430000000  0.4771410000000  0.4055590000000 1.0
C      1  0.5320210000000  0.4546010000000  0.4915940000000 1.0
C      1  0.5359220000000  0.5458000000000  0.5081210000000 1.0
C      1  0.4631010000000  0.4544190000000  0.5081210000000 1.0
C      1  0.4670030000000  0.5456190000000  0.4915930000000 1.0
C      1  0.5011430000000  0.4577330000000  0.5459480000000 1.0
C      1  0.5035870000000  0.5431000000000  0.4542850000000 1.0
C      1  0.4954370000000  0.4571190000000  0.4542850000000 1.0
C      1  0.4978800000000  0.5424880000000  0.5459470000000 1.0
C      1  0.5200370000000  0.5367710000000  0.5814540000000 1.0
C      1  0.5202430000000  0.4639610000000  0.4201610000000 1.0
C      1  0.4787820000000  0.5362580000000  0.4201600000000 1.0
C      1  0.4789860000000  0.4634490000000  0.5814540000000 1.0
C      1  0.5388430000000  0.5214210000000  0.4034510000000 1.0
C      1  0.5385640000000  0.4800740000000  0.5961570000000 1.0
C      1  0.4604590000000  0.5201460000000  0.5961560000000 1.0
C      1  0.4601820000000  0.4787980000000  0.4034510000000 1.0
C      1  0.5017240000000  0.5961140000000  0.5338650000000 1.0
C      1  0.5006250000000  0.4037410000000  0.4663490000000 1.0
C      1  0.4983990000000  0.5964780000000  0.4663480000000 1.0
C      1  0.4973000000000  0.4041060000000  0.5338660000000 1.0
C      1  0.5164370000000  0.4670030000000  0.5207160000000 1.0
C      1  0.5191910000000  0.5336730000000  0.4797050000000 1.0
C      1  0.4798330000000  0.4665460000000  0.4797050000000 1.0
C      1  0.4825860000000  0.5332160000000  0.5207160000000 1.0
C      1  0.4223590000000  0.4260190000000  0.5344520000000 1.0
C      1  0.4234970000000  0.5732500000000  0.4663210000000 1.0
C      1  0.5755270000000  0.4269690000000  0.4663220000000 1.0
C      1  0.5766640000000  0.5742010000000  0.5344510000000 1.0
C      1  0.4341430000000  0.5213140000000  0.5777500000000 1.0
C      1  0.4324680000000  0.4775180000000  0.4206220000000 1.0
C      1  0.5665570000000  0.5227010000000  0.4206230000000 1.0
C      1  0.5648800000000  0.4789070000000  0.5777510000000 1.0
C      1  0.5186360000000  0.4365030000000  0.5621000000000 1.0
C      1  0.5203300000000  0.5643110000000  0.4381640000000 1.0
C      1  0.4786940000000  0.4359080000000  0.4381650000000 1.0
C      1  0.4803870000000  0.5637170000000  0.5620990000000 1.0
C      1  0.5001300000000  0.5980610000000  0.5001170000000 1.0
C      1  0.4988940000000  0.4021580000000  0.5001180000000 1.0
C      1  0.4995120000000  0.5001100000000  0.5013940000000 1.0
END
