TITL C-862504-1170-49 2.75851608334084e-06 125000 -59.7835303412043 0 0 11 (C2v) n - 1
REM
REM in /home/nfs/bkarasulu/CARBON/AIRSS/Generating-Clusters/TERSOFF/Higher-Symm/FIRE-HFTN
REM
REM
REM
REM
REM
REM ./C.cell (b20cbc046b6831c77cfcea5457e17084)
REM AIRSS Version 0.9.1 bugfix July 2018 build 013d7b7c2542+ Fri, 06 Jul 2018 19:26:36 +0100
REM compiler GCC version 9.2.1 20190827 (Red Hat 9.2.1-1)
REM options -cpp -mtune=generic -march=x86-64 -g -O0 -fpre-include=/usr/include/finclude/math-vector-fortran.h
REM seed 1258975406 -707877938 -493884475 802158277 498227368 1262031523 -248367466 -2041231896 -1826140656 983513603 -1897788798 715880299 1647695167 71543853 -606930532 -743866055 -1426567507 706828152 901429704 753177880 1219523917 2041630053 -328335340 1254472040 -1500910369 2007907032 1252562238 1072640512 1558601518 1038952937 -339884712 1167539380 1145017996
REM
CELL 1.54180   50.00000   50.00000   50.00000   90.00000   90.00000   90.00000
LATT -1
SFAC C  
C      1  0.5052640000000  0.5000000000000  0.5585200000000 1.0
C      1  0.4770020000000  0.5000000000000  0.5540690000000 1.0
C      1  0.4668900000000  0.5000000000000  0.5271150000000 1.0
C      1  0.4842390000000  0.5000000000000  0.5032760000000 1.0
C      1  0.4711690000000  0.5000000000000  0.4770100000000 1.0
C      1  0.4816740000000  0.5000000000000  0.4498710000000 1.0
C      1  0.5092500000000  0.5000000000000  0.4412780000000 1.0
C      1  0.5328490000000  0.5000000000000  0.4579320000000 1.0
C      1  0.5345020000000  0.5000000000000  0.4869860000000 1.0
C      1  0.5139910000000  0.5000000000000  0.5079620000000 1.0
C      1  0.5231720000000  0.5000000000000  0.5359810000000 1.0
END
