TITL C-862502-1143-52 0.0248049102544516 125000 -995.627900618139 0 0 174 (C2) n - 1
REM
REM in /home/nfs/bkarasulu/CARBON/AIRSS/Generating-Clusters/TERSOFF/Higher-Symm/FIRE-HFTN
REM
REM
REM
REM
REM
REM ./C.cell (b20cbc046b6831c77cfcea5457e17084)
REM AIRSS Version 0.9.1 bugfix July 2018 build 013d7b7c2542+ Fri, 06 Jul 2018 19:26:36 +0100
REM compiler GCC version 9.2.1 20190827 (Red Hat 9.2.1-1)
REM options -cpp -mtune=generic -march=x86-64 -g -O0 -fpre-include=/usr/include/finclude/math-vector-fortran.h
REM seed 210086900 1753458621 -693167075 -1603314855 -1245922430 -1164740434 208570639 1968640210 629049104 -1025036151 1611930167 1349942694 483393723 2090837834 890630339 2087454940 423226230 -1751807804 -30515213 799836543 -1462541385 1889632109 2129508032 348498922 1485296337 1497275392 102616145 867932292 920859694 483392433 1142174521 -465792691 1101886500
REM
CELL 1.54180   50.00000   50.00000   50.00000   90.00000   90.00000   90.00000
LATT -1
SFAC C  
C      1  0.5371690000000  0.5950820000000  0.4774500000000 1.0
C      1  0.4628310000000  0.4049180000000  0.4774500000000 1.0
C      1  0.5349000000000  0.5951570000000  0.5264190000000 1.0
C      1  0.4651000000000  0.4048430000000  0.5264190000000 1.0
C      1  0.4834080000000  0.4825190000000  0.3862690000000 1.0
C      1  0.5165920000000  0.5174810000000  0.3862690000000 1.0
C      1  0.4832300000000  0.4827950000000  0.6168080000000 1.0
C      1  0.5167700000000  0.5172050000000  0.6168090000000 1.0
C      1  0.4284860000000  0.4496090000000  0.5418930000000 1.0
C      1  0.5715140000000  0.5503910000000  0.5418930000000 1.0
C      1  0.4299630000000  0.4493970000000  0.4599090000000 1.0
C      1  0.5700370000000  0.5506030000000  0.4599090000000 1.0
C      1  0.4052760000000  0.5263800000000  0.4843700000000 1.0
C      1  0.5947240000000  0.4736200000000  0.4843700000000 1.0
C      1  0.4045570000000  0.5278710000000  0.5163670000000 1.0
C      1  0.5954430000000  0.4721290000000  0.5163670000000 1.0
C      1  0.4211950000000  0.5378380000000  0.4472350000000 1.0
C      1  0.5788050000000  0.4621620000000  0.4472350000000 1.0
C      1  0.4224470000000  0.5392130000000  0.5526200000000 1.0
C      1  0.5775530000000  0.4607870000000  0.5526200000000 1.0
C      1  0.5546690000000  0.5515450000000  0.5698000000000 1.0
C      1  0.4453310000000  0.4484550000000  0.5698000000000 1.0
C      1  0.5519130000000  0.5516910000000  0.4328820000000 1.0
C      1  0.4480870000000  0.4483090000000  0.4328820000000 1.0
C      1  0.4742970000000  0.4512680000000  0.5318910000000 1.0
C      1  0.5257030000000  0.5487320000000  0.5318910000000 1.0
C      1  0.4761380000000  0.4511020000000  0.4720890000000 1.0
C      1  0.5238620000000  0.5488980000000  0.4720890000000 1.0
C      1  0.5104030000000  0.5735020000000  0.5716220000000 1.0
C      1  0.4895970000000  0.4264980000000  0.5716220000000 1.0
C      1  0.5068180000000  0.5701160000000  0.4289340000000 1.0
C      1  0.4931820000000  0.4298840000000  0.4289340000000 1.0
C      1  0.4479560000000  0.4958410000000  0.4750490000000 1.0
C      1  0.5520440000000  0.5041590000000  0.4750490000000 1.0
C      1  0.4466190000000  0.4955230000000  0.5259620000000 1.0
C      1  0.5533810000000  0.5044770000000  0.5259620000000 1.0
C      1  0.5246510000000  0.4541550000000  0.3972620000000 1.0
C      1  0.4753490000000  0.5458450000000  0.3972620000000 1.0
C      1  0.5223560000000  0.4532240000000  0.6015100000000 1.0
C      1  0.4776440000000  0.5467750000000  0.6015100000000 1.0
C      1  0.4314270000000  0.4972220000000  0.4495740000000 1.0
C      1  0.5685730000000  0.5027780000000  0.4495740000000 1.0
C      1  0.4306120000000  0.4980730000000  0.5517640000000 1.0
C      1  0.5693880000000  0.5019270000000  0.5517640000000 1.0
C      1  0.5555120000000  0.5001700000000  0.4204770000000 1.0
C      1  0.4444880000000  0.4998310000000  0.4204770000000 1.0
C      1  0.5558870000000  0.4992020000000  0.5813270000000 1.0
C      1  0.4441130000000  0.5007970000000  0.5813270000000 1.0
C      1  0.5837200000000  0.6061120000000  0.5322940000000 1.0
C      1  0.4162800000000  0.3938880000000  0.5322940000000 1.0
C      1  0.5875670000000  0.6053740000000  0.4688060000000 1.0
C      1  0.4124330000000  0.3946260000000  0.4688060000000 1.0
C      1  0.4747660000000  0.4968570000000  0.5876750000000 1.0
C      1  0.5252340000000  0.5031430000000  0.5876750000000 1.0
C      1  0.4752880000000  0.4971020000000  0.4151350000000 1.0
C      1  0.5247120000000  0.5028980000000  0.4151350000000 1.0
C      1  0.5524480000000  0.4494220000000  0.4688250000000 1.0
C      1  0.4475520000000  0.5505780000000  0.4688250000000 1.0
C      1  0.5514490000000  0.4487540000000  0.5303800000000 1.0
C      1  0.4485510000000  0.5512460000000  0.5303800000000 1.0
C      1  0.5098950000000  0.4779470000000  0.4010260000000 1.0
C      1  0.4901050000000  0.5220530000000  0.4010260000000 1.0
C      1  0.5097470000000  0.4783300000000  0.6017040000000 1.0
C      1  0.4902530000000  0.5216700000000  0.6017040000000 1.0
C      1  0.4739230000000  0.4504210000000  0.5615140000000 1.0
C      1  0.5260770000000  0.5495790000000  0.5615140000000 1.0
C      1  0.4764350000000  0.4514190000000  0.4422280000000 1.0
C      1  0.5235650000000  0.5485810000000  0.4422280000000 1.0
C      1  0.5966350000000  0.5317380000000  0.5799900000000 1.0
C      1  0.4033650000000  0.4682620000000  0.5799900000000 1.0
C      1  0.5939010000000  0.5348510000000  0.4195570000000 1.0
C      1  0.4060990000000  0.4651490000000  0.4195570000000 1.0
C      1  0.4015600000000  0.4553280000000  0.5538750000000 1.0
C      1  0.5984400000000  0.5446720000000  0.5538750000000 1.0
C      1  0.4034120000000  0.4538030000000  0.4462840000000 1.0
C      1  0.5965880000000  0.5461970000000  0.4462850000000 1.0
C      1  0.5410660000000  0.4504010000000  0.5809290000000 1.0
C      1  0.4589340000000  0.5495990000000  0.5809290000000 1.0
C      1  0.5442200000000  0.4504500000000  0.4170070000000 1.0
C      1  0.4557800000000  0.5495500000000  0.4170080000000 1.0
C      1  0.6187690000000  0.5604640000000  0.5152070000000 1.0
C      1  0.3812310000000  0.4395360000000  0.5152070000000 1.0
C      1  0.6239230000000  0.5603440000000  0.4825350000000 1.0
C      1  0.3760770000000  0.4396560000000  0.4825350000000 1.0
C      1  0.5671400000000  0.4699250000000  0.4196720000000 1.0
C      1  0.4328600000000  0.5300750000000  0.4196720000000 1.0
C      1  0.5651070000000  0.4680850000000  0.5798080000000 1.0
C      1  0.4348930000000  0.5319150000000  0.5798080000000 1.0
C      1  0.4382850000000  0.4673720000000  0.5166790000000 1.0
C      1  0.5617150000000  0.5326280000000  0.5166790000000 1.0
C      1  0.4383560000000  0.4679800000000  0.4845720000000 1.0
C      1  0.5616440000000  0.5320200000000  0.4845720000000 1.0
C      1  0.6184660000000  0.5392890000000  0.4625560000000 1.0
C      1  0.3815340000000  0.4607110000000  0.4625560000000 1.0
C      1  0.6191010000000  0.5382890000000  0.5355080000000 1.0
C      1  0.3808990000000  0.4617110000000  0.5355080000000 1.0
C      1  0.4833590000000  0.5936860000000  0.5309220000000 1.0
C      1  0.5166410000000  0.4063140000000  0.5309210000000 1.0
C      1  0.4853720000000  0.5928110000000  0.4706780000000 1.0
C      1  0.5146280000000  0.4071890000000  0.4706780000000 1.0
C      1  0.5352410000000  0.4585020000000  0.4444760000000 1.0
C      1  0.4647590000000  0.5414980000000  0.4444760000000 1.0
C      1  0.5323230000000  0.4571000000000  0.5534840000000 1.0
C      1  0.4676770000000  0.5429000000000  0.5534840000000 1.0
C      1  0.4365600000000  0.5241860000000  0.4850070000000 1.0
C      1  0.5634400000000  0.4758140000000  0.4850060000000 1.0
C      1  0.4360350000000  0.5250050000000  0.5155030000000 1.0
C      1  0.5639650000000  0.4749950000000  0.5155030000000 1.0
C      1  0.6215170000000  0.5101550000000  0.4652310000000 1.0
C      1  0.3784830000000  0.4898450000000  0.4652310000000 1.0
C      1  0.6208930000000  0.5089150000000  0.5321800000000 1.0
C      1  0.3791070000000  0.4910850000000  0.5321800000000 1.0
C      1  0.5077330000000  0.6055960000000  0.5167450000000 1.0
C      1  0.4922670000000  0.3944040000000  0.5167450000000 1.0
C      1  0.5088330000000  0.6051210000000  0.4859470000000 1.0
C      1  0.4911670000000  0.3948790000000  0.4859470000000 1.0
C      1  0.5997370000000  0.5844700000000  0.4864820000000 1.0
C      1  0.4002630000000  0.4155300000000  0.4864820000000 1.0
C      1  0.5946570000000  0.5832890000000  0.5164230000000 1.0
C      1  0.4053430000000  0.4167110000000  0.5164230000000 1.0
C      1  0.4412420000000  0.3939720000000  0.4597790000000 1.0
C      1  0.5587580000000  0.6060280000000  0.4597790000000 1.0
C      1  0.4438630000000  0.3925490000000  0.5431220000000 1.0
C      1  0.5561370000000  0.6074510000000  0.5431230000000 1.0
C      1  0.4607350000000  0.4315000000000  0.5164790000000 1.0
C      1  0.5392650000000  0.5685000000000  0.5164790000000 1.0
C      1  0.4604190000000  0.4320160000000  0.4870680000000 1.0
C      1  0.5395810000000  0.5679840000000  0.4870690000000 1.0
C      1  0.4319830000000  0.4724450000000  0.5859700000000 1.0
C      1  0.5680170000000  0.5275550000000  0.5859700000000 1.0
C      1  0.4345820000000  0.4710820000000  0.4152680000000 1.0
C      1  0.5654180000000  0.5289180000000  0.4152680000000 1.0
C      1  0.5234060000000  0.4557480000000  0.5125160000000 1.0
C      1  0.4765940000000  0.5442520000000  0.5125160000000 1.0
C      1  0.5245690000000  0.4599630000000  0.4849800000000 1.0
C      1  0.4754310000000  0.5400370000000  0.4849800000000 1.0
C      1  0.5245600000000  0.4974660000000  0.5166060000000 1.0
C      1  0.4754400000000  0.5025340000000  0.5166060000000 1.0
C      1  0.5208670000000  0.5012230000000  0.4805000000000 1.0
C      1  0.4791330000000  0.4987770000000  0.4805000000000 1.0
C      1  0.5116280000000  0.5215070000000  0.4370790000000 1.0
C      1  0.4883720000000  0.4784930000000  0.4370790000000 1.0
C      1  0.5129020000000  0.5226870000000  0.5663730000000 1.0
C      1  0.4870980000000  0.4773130000000  0.5663730000000 1.0
C      1  0.5041850000000  0.5336460000000  0.5207940000000 1.0
C      1  0.4958150000000  0.4663540000000  0.5207940000000 1.0
C      1  0.5073510000000  0.5293490000000  0.4856330000000 1.0
C      1  0.4926490000000  0.4706520000000  0.4856330000000 1.0
C      1  0.4846120000000  0.5181180000000  0.4504040000000 1.0
C      1  0.5153880000000  0.4818820000000  0.4504040000000 1.0
C      1  0.4886800000000  0.5194330000000  0.5455540000000 1.0
C      1  0.5113200000000  0.4805670000000  0.5455540000000 1.0
C      1  0.4009650000000  0.5118090000000  0.5432840000000 1.0
C      1  0.5990350000000  0.4881910000000  0.5432840000000 1.0
C      1  0.4011490000000  0.5104470000000  0.4576880000000 1.0
C      1  0.5988510000000  0.4895530000000  0.4576880000000 1.0
C      1  0.4417960000000  0.4224260000000  0.5840550000000 1.0
C      1  0.5582040000000  0.5775740000000  0.5840550000000 1.0
C      1  0.4456370000000  0.4223080000000  0.4184010000000 1.0
C      1  0.5543630000000  0.5776920000000  0.4184010000000 1.0
C      1  0.4459100000000  0.3966920000000  0.5717560000000 1.0
C      1  0.5540900000000  0.6033080000000  0.5717560000000 1.0
C      1  0.4454490000000  0.3967860000000  0.4313630000000 1.0
C      1  0.5545520000000  0.6032140000000  0.4313630000000 1.0
C      1  0.4880830000000  0.5887650000000  0.4418630000000 1.0
C      1  0.5119170000000  0.4112350000000  0.4418620000000 1.0
C      1  0.4860560000000  0.5849560000000  0.5592190000000 1.0
C      1  0.5139440000000  0.4150440000000  0.5592190000000 1.0
C      1  0.5383570000000  0.4203230000000  0.4848300000000 1.0
C      1  0.4616430000000  0.5796770000000  0.4848300000000 1.0
C      1  0.5408360000000  0.4177700000000  0.5153090000000 1.0
C      1  0.4591640000000  0.5822300000000  0.5153090000000 1.0
C      1  0.5000000000000  0.5000000000000  0.6363300000000 1.0
C      1  0.5000000000000  0.5000000000000  0.3666870000000 1.0
END
