TITL C-862129-6180-1229 0.00187664693443587 125000 -275.940752432849 0 0 50 (C3) n - 1
REM
REM in /home/nfs/bkarasulu/CARBON/AIRSS/Generating-Clusters/TERSOFF/Higher-Symm/FIRE-HFTN
REM
REM
REM
REM
REM
REM ./C.cell (b20cbc046b6831c77cfcea5457e17084)
REM AIRSS Version 0.9.1 bugfix July 2018 build 013d7b7c2542+ Fri, 06 Jul 2018 19:26:36 +0100
REM compiler GCC version 9.2.1 20190827 (Red Hat 9.2.1-1)
REM options -cpp -mtune=generic -march=x86-64 -g -O0 -fpre-include=/usr/include/finclude/math-vector-fortran.h
REM seed -149219881 -955132964 -1617426950 2049950583 226684496 -752285413 -902617506 1323601633 608496687 -598078272 -461279363 -1046046546 -1632911887 1293146820 302579595 1097594420 -1472084546 338870830 -1954160633 1098901502 45952629 1089817068 1395407946 -265123189 1825999977 762506866 541383785 -113888859 587401412 1810324986 -2084379737 -1620361382 1362489997
REM
CELL 1.54180   50.00000   50.00000   50.00000   90.00000   90.00000   90.00000
LATT -1
SFAC C  
C      1  0.4979640000000  0.4476070000000  0.4740180000000 1.0
C      1  0.4979640000000  0.5492410000000  0.4681750000000 1.0
C      1  0.4979640000000  0.5034840000000  0.5591140000000 1.0
C      1  0.5214090000000  0.5549680000000  0.4862950000000 1.0
C      1  0.5214090000000  0.4849280000000  0.5550130000000 1.0
C      1  0.5214090000000  0.4604360000000  0.4599980000000 1.0
C      1  0.4421570000000  0.5383050000000  0.5101610000000 1.0
C      1  0.4421570000000  0.4725900000000  0.5286500000000 1.0
C      1  0.4421570000000  0.4894360000000  0.4624950000000 1.0
C      1  0.4757190000000  0.5421370000000  0.4852570000000 1.0
C      1  0.4757190000000  0.4922430000000  0.5444210000000 1.0
C      1  0.4757190000000  0.4659520000000  0.4716290000000 1.0
C      1  0.4327890000000  0.4970420000000  0.5431240000000 1.0
C      1  0.4327890000000  0.4646750000000  0.4764340000000 1.0
C      1  0.4327890000000  0.5386140000000  0.4817490000000 1.0
C      1  0.4801370000000  0.5509270000000  0.5475540000000 1.0
C      1  0.4801370000000  0.4338970000000  0.5208850000000 1.0
C      1  0.4801370000000  0.5155080000000  0.4328680000000 1.0
C      1  0.5454070000000  0.5248790000000  0.5343090000000 1.0
C      1  0.5454070000000  0.4583910000000  0.5049490000000 1.0
C      1  0.5454070000000  0.5170610000000  0.4620490000000 1.0
C      1  0.4997950000000  0.5353010000000  0.4425610000000 1.0
C      1  0.4997950000000  0.5326360000000  0.5598490000000 1.0
C      1  0.4997950000000  0.4323950000000  0.4988970000000 1.0
C      1  0.5470130000000  0.4955620000000  0.5429670000000 1.0
C      1  0.5470130000000  0.4655520000000  0.4752310000000 1.0
C      1  0.5470130000000  0.5392180000000  0.4831090000000 1.0
C      1  0.5185500000000  0.5229990000000  0.5201500000000 1.0
C      1  0.5185500000000  0.4715930000000  0.5104000000000 1.0
C      1  0.5185510000000  0.5057390000000  0.4707560000000 1.0
C      1  0.4266640000000  0.5148210000000  0.4646250000000 1.0
C      1  0.4266640000000  0.5237680000000  0.5310800000000 1.0
C      1  0.4266640000000  0.4617430000000  0.5056010000000 1.0
C      1  0.5491780000000  0.4304220000000  0.5125350000000 1.0
C      1  0.5491780000000  0.5244760000000  0.4340330000000 1.0
C      1  0.5491780000000  0.5454340000000  0.5547380000000 1.0
C      1  0.5615880000000  0.4926470000000  0.4730670000000 1.0
C      1  0.5615880000000  0.5275440000000  0.5076560000000 1.0
C      1  0.5615880000000  0.4801410000000  0.5205840000000 1.0
C      1  0.4741630000000  0.4877500000000  0.4467140000000 1.0
C      1  0.4741630000000  0.5528150000000  0.5165910000000 1.0
C      1  0.4741630000000  0.4597670000000  0.5380010000000 1.0
C      1  0.5070310000000  0.4863030000000  0.4524540000000 1.0
C      1  0.5070310000000  0.5485670000000  0.5124690000000 1.0
C      1  0.5070310000000  0.4654610000000  0.5363830000000 1.0
C      1  0.4665580000000  0.5055480000000  0.5196600000000 1.0
C      1  0.4665580000000  0.4807430000000  0.4955320000000 1.0
C      1  0.4665580000000  0.5140410000000  0.4861150000000 1.0
C      1  0.5721220000000  0.5001100000000  0.5004360000000 1.0
C      1  0.5153310000000  0.5001110000000  0.5004360000000 1.0
END
