TITL C-862130-1496-1023 13541.4732351657 125000 -437.109607259954 0 0 86 (Ci) n - 1
REM
REM in /home/nfs/bkarasulu/CARBON/AIRSS/Generating-Clusters/TERSOFF/Higher-Symm/FIRE-HFTN
REM
REM
REM
REM
REM
REM ./C.cell (b20cbc046b6831c77cfcea5457e17084)
REM AIRSS Version 0.9.1 bugfix July 2018 build 013d7b7c2542+ Fri, 06 Jul 2018 19:26:36 +0100
REM compiler GCC version 9.2.1 20190827 (Red Hat 9.2.1-1)
REM options -cpp -mtune=generic -march=x86-64 -g -O0 -fpre-include=/usr/include/finclude/math-vector-fortran.h
REM seed 1657269148 -680130728 1490880273 -1895449237 -1488229932 1822393982 -1528587338 -729655793 -1028486401 -1365860106 1809446953 1748538213 -668614410 -33763322 -464568953 871598664 -1606021700 -1496796778 -1169148388 -1897932927 841099980 945102350 -1059323664 -865165648 1347022448 1964002839 453639480 -1664177071 598909569 708526785 641514233 -1372754406 1483501284
REM
CELL 1.54180   50.00000   50.00000   50.00000   90.00000   90.00000   90.00000
LATT -1
SFAC C  
C      1  0.5274500000000  0.4447000000000  0.4633470000000 1.0
C      1  0.4768170000000  0.4430950000000  0.5446360000000 1.0
C      1  0.5231830000000  0.5554780000000  0.4553640000000 1.0
C      1  0.4725500000000  0.5538740000000  0.5366530000000 1.0
C      1  0.4861680000000  0.4482720000000  0.4565290000000 1.0
C      1  0.5187920000000  0.4430880000000  0.5458380000000 1.0
C      1  0.4812080000000  0.5554860000000  0.4541620000000 1.0
C      1  0.5138320000000  0.5503020000000  0.5434710000000 1.0
C      1  0.4843730000000  0.3990330000000  0.5163800000000 1.0
C      1  0.5099090000000  0.3986520000000  0.4830560000000 1.0
C      1  0.4900910000000  0.5999210000000  0.5169430000000 1.0
C      1  0.5156270000000  0.5995400000000  0.4836190000000 1.0
C      1  0.5173760000000  0.3950950000000  0.5150340000000 1.0
C      1  0.4768050000000  0.4007410000000  0.4845950000000 1.0
C      1  0.5231950000000  0.5978330000000  0.5154050000000 1.0
C      1  0.4826240000000  0.6034780000000  0.4849660000000 1.0
C      1  0.4779090000000  0.4754050000000  0.4478110000000 1.0
C      1  0.5247670000000  0.4718630000000  0.5514190000000 1.0
C      1  0.4752330000000  0.5267100000000  0.4485810000000 1.0
C      1  0.5220910000000  0.5231680000000  0.5521890000000 1.0
C      1  0.5201760000000  0.4733900000000  0.4491540000000 1.0
C      1  0.4746840000000  0.4728810000000  0.5510990000000 1.0
C      1  0.5253160000000  0.5256930000000  0.4489010000000 1.0
C      1  0.4798240000000  0.5251840000000  0.5508460000000 1.0
C      1  0.4307390000000  0.5528140000000  0.5329070000000 1.0
C      1  0.5604560000000  0.5593840000000  0.4743230000000 1.0
C      1  0.4395440000000  0.4391900000000  0.5256770000000 1.0
C      1  0.5692610000000  0.4457600000000  0.4670930000000 1.0
C      1  0.5588860000000  0.5574250000000  0.5316240000000 1.0
C      1  0.4373330000000  0.5582810000000  0.4738450000000 1.0
C      1  0.5626670000000  0.4402930000000  0.5261550000000 1.0
C      1  0.4411140000000  0.4411490000000  0.4683760000000 1.0
C      1  0.5871790000000  0.5175300000000  0.4853590000000 1.0
C      1  0.4129990000000  0.5117360000000  0.5109430000000 1.0
C      1  0.5870010000000  0.4868370000000  0.4890570000000 1.0
C      1  0.4128210000000  0.4810440000000  0.5146410000000 1.0
C      1  0.4122510000000  0.5136130000000  0.4785250000000 1.0
C      1  0.5864960000000  0.5165170000000  0.5187340000000 1.0
C      1  0.4135040000000  0.4820570000000  0.4812660000000 1.0
C      1  0.5877490000000  0.4849600000000  0.5214750000000 1.0
C      1  0.5679060000000  0.4862580000000  0.5767440000000 1.0
C      1  0.4340960000000  0.4841300000000  0.4217130000000 1.0
C      1  0.5659040000000  0.5144430000000  0.5782870000000 1.0
C      1  0.4320930000000  0.5123160000000  0.4232560000000 1.0
C      1  0.4349130000000  0.4917820000000  0.5796650000000 1.0
C      1  0.5586970000000  0.4795890000000  0.4147520000000 1.0
C      1  0.4413030000000  0.5189850000000  0.5852480000000 1.0
C      1  0.5650870000000  0.5067910000000  0.4203350000000 1.0
C      1  0.5206480000000  0.5631400000000  0.5152190000000 1.0
C      1  0.4794210000000  0.5689500000000  0.4820880000000 1.0
C      1  0.5205790000000  0.4296230000000  0.5179120000000 1.0
C      1  0.4793520000000  0.4354330000000  0.4847810000000 1.0
C      1  0.4875820000000  0.5675700000000  0.5156040000000 1.0
C      1  0.5124620000000  0.5674560000000  0.4803540000000 1.0
C      1  0.4875380000000  0.4311170000000  0.5196450000000 1.0
C      1  0.5124180000000  0.4310040000000  0.4843960000000 1.0
C      1  0.4666090000000  0.4846700000000  0.4745180000000 1.0
C      1  0.5346030000000  0.4826610000000  0.5248830000000 1.0
C      1  0.4653970000000  0.5159120000000  0.4751170000000 1.0
C      1  0.5333910000000  0.5139030000000  0.5254820000000 1.0
C      1  0.5342020000000  0.4843700000000  0.4753420000000 1.0
C      1  0.4657290000000  0.4831150000000  0.5243270000000 1.0
C      1  0.5342710000000  0.5154590000000  0.4756730000000 1.0
C      1  0.4657980000000  0.5142040000000  0.5246580000000 1.0
C      1  0.5455820000000  0.5270790000000  0.4263450000000 1.0
C      1  0.4654630000000  0.5315550000000  0.5766800000000 1.0
C      1  0.5345370000000  0.4670190000000  0.4233200000000 1.0
C      1  0.4544180000000  0.4714950000000  0.5736550000000 1.0
C      1  0.4548500000000  0.5293350000000  0.4265670000000 1.0
C      1  0.5412490000000  0.5283190000000  0.5744860000000 1.0
C      1  0.4587510000000  0.4702550000000  0.4255140000000 1.0
C      1  0.5451500000000  0.4692390000000  0.5734330000000 1.0
C      1  0.5608700000000  0.4680560000000  0.5160380000000 1.0
C      1  0.4415730000000  0.4675540000000  0.4815940000000 1.0
C      1  0.5584270000000  0.5310190000000  0.5184060000000 1.0
C      1  0.4391300000000  0.5305170000000  0.4839620000000 1.0
C      1  0.4408960000000  0.4665120000000  0.5144870000000 1.0
C      1  0.5616800000000  0.4699610000000  0.4822790000000 1.0
C      1  0.4383200000000  0.5286120000000  0.5177210000000 1.0
C      1  0.5591040000000  0.5320620000000  0.4855130000000 1.0
C      1  0.5161520000000  0.4780560000000  0.4999380000000 1.0
C      1  0.4838480000000  0.5205180000000  0.5000620000000 1.0
C      1  0.4848860000000  0.4785360000000  0.4996510000000 1.0
C      1  0.5151140000000  0.5200380000000  0.5003490000000 1.0
C      1  0.4998330000000  0.4955370000000  0.5575440000000 1.0
C      1  0.5001670000000  0.5030360000000  0.4424560000000 1.0
END
