TITL C-862507-1800-529 -0.00105319615407293 125000 -1038.68718186902 0 0 176 (D2d) n - 1
REM
REM in /home/nfs/bkarasulu/CARBON/AIRSS/Generating-Clusters/TERSOFF/Higher-Symm/FIRE-HFTN
REM
REM
REM
REM
REM
REM ./C.cell (b20cbc046b6831c77cfcea5457e17084)
REM AIRSS Version 0.9.1 bugfix July 2018 build 013d7b7c2542+ Fri, 06 Jul 2018 19:26:36 +0100
REM compiler GCC version 9.2.1 20190827 (Red Hat 9.2.1-1)
REM options -cpp -mtune=generic -march=x86-64 -g -O0 -fpre-include=/usr/include/finclude/math-vector-fortran.h
REM seed 609867865 1980874392 1840606899 -1092708136 113449674 -288709383 1498714516 682215134 965413808 837380368 1299087639 2118792971 1513193312 1527431830 -1743213269 280708839 333969881 1687147435 -1784596165 1864099165 415249598 -435803281 -1949256479 2108297167 -1903663672 110211581 -1166237315 -1835932688 -1870808688 1982517971 1100244023 -1931739917 1459186494
REM
CELL 1.54180   50.00000   50.00000   50.00000   90.00000   90.00000   90.00000
LATT -1
SFAC C  
C      1  0.5300070000000  0.5067080000000  0.4869800000000 1.0
C      1  0.4699930000000  0.4932920000000  0.4869800000000 1.0
C      1  0.4699930000000  0.5067080000000  0.5130200000000 1.0
C      1  0.5300070000000  0.4932920000000  0.5130200000000 1.0
C      1  0.5067080000000  0.5300070000000  0.4869800000000 1.0
C      1  0.4932920000000  0.4699930000000  0.4869800000000 1.0
C      1  0.5067080000000  0.4699930000000  0.5130200000000 1.0
C      1  0.4932920000000  0.5300070000000  0.5130200000000 1.0
C      1  0.4947790000000  0.4257810000000  0.4115170000000 1.0
C      1  0.5052210000000  0.5742190000000  0.4115170000000 1.0
C      1  0.5052210000000  0.4257810000000  0.5884830000000 1.0
C      1  0.4947790000000  0.5742190000000  0.5884830000000 1.0
C      1  0.4257810000000  0.4947790000000  0.4115170000000 1.0
C      1  0.5742190000000  0.5052210000000  0.4115170000000 1.0
C      1  0.4257810000000  0.5052210000000  0.5884830000000 1.0
C      1  0.5742190000000  0.4947790000000  0.5884830000000 1.0
C      1  0.4458440000000  0.5950110000000  0.5279450000000 1.0
C      1  0.5541560000000  0.4049890000000  0.5279450000000 1.0
C      1  0.5541560000000  0.5950110000000  0.4720550000000 1.0
C      1  0.4458440000000  0.4049890000000  0.4720550000000 1.0
C      1  0.5950110000000  0.4458440000000  0.5279450000000 1.0
C      1  0.4049890000000  0.5541560000000  0.5279450000000 1.0
C      1  0.5950110000000  0.5541560000000  0.4720550000000 1.0
C      1  0.4049890000000  0.4458440000000  0.4720550000000 1.0
C      1  0.4715250000000  0.5507360000000  0.5200570000000 1.0
C      1  0.5284750000000  0.4492640000000  0.5200570000000 1.0
C      1  0.5284750000000  0.5507360000000  0.4799430000000 1.0
C      1  0.4715250000000  0.4492640000000  0.4799430000000 1.0
C      1  0.5507360000000  0.4715250000000  0.5200570000000 1.0
C      1  0.4492640000000  0.5284750000000  0.5200570000000 1.0
C      1  0.5507360000000  0.5284750000000  0.4799430000000 1.0
C      1  0.4492640000000  0.4715250000000  0.4799430000000 1.0
C      1  0.5319070000000  0.6137910000000  0.4772990000000 1.0
C      1  0.4680930000000  0.3862090000000  0.4772990000000 1.0
C      1  0.4680930000000  0.6137910000000  0.5227010000000 1.0
C      1  0.5319070000000  0.3862090000000  0.5227010000000 1.0
C      1  0.6137910000000  0.5319070000000  0.4772990000000 1.0
C      1  0.3862090000000  0.4680930000000  0.4772990000000 1.0
C      1  0.6137910000000  0.4680930000000  0.5227010000000 1.0
C      1  0.3862090000000  0.5319070000000  0.5227010000000 1.0
C      1  0.5098740000000  0.5313180000000  0.4387930000000 1.0
C      1  0.4901260000000  0.4686820000000  0.4387930000000 1.0
C      1  0.4901260000000  0.5313180000000  0.5612070000000 1.0
C      1  0.5098740000000  0.4686820000000  0.5612070000000 1.0
C      1  0.5313180000000  0.5098740000000  0.4387930000000 1.0
C      1  0.4686820000000  0.4901260000000  0.4387930000000 1.0
C      1  0.5313180000000  0.4901260000000  0.5612070000000 1.0
C      1  0.4686820000000  0.5098740000000  0.5612070000000 1.0
C      1  0.5692160000000  0.4106730000000  0.5043880000000 1.0
C      1  0.4307840000000  0.5893270000000  0.5043880000000 1.0
C      1  0.4307840000000  0.4106730000000  0.4956120000000 1.0
C      1  0.5692160000000  0.5893270000000  0.4956120000000 1.0
C      1  0.4106730000000  0.5692160000000  0.5043880000000 1.0
C      1  0.5893270000000  0.4307840000000  0.5043880000000 1.0
C      1  0.4106730000000  0.4307840000000  0.4956120000000 1.0
C      1  0.5893270000000  0.5692160000000  0.4956120000000 1.0
C      1  0.4773400000000  0.6017450000000  0.4459870000000 1.0
C      1  0.5226600000000  0.3982550000000  0.4459870000000 1.0
C      1  0.5226600000000  0.6017450000000  0.5540130000000 1.0
C      1  0.4773400000000  0.3982550000000  0.5540130000000 1.0
C      1  0.6017450000000  0.4773400000000  0.4459870000000 1.0
C      1  0.3982550000000  0.5226600000000  0.4459870000000 1.0
C      1  0.6017450000000  0.5226600000000  0.5540130000000 1.0
C      1  0.3982550000000  0.4773400000000  0.5540130000000 1.0
C      1  0.5208610000000  0.4402140000000  0.4026860000000 1.0
C      1  0.4791390000000  0.5597860000000  0.4026860000000 1.0
C      1  0.4791390000000  0.4402140000000  0.5973140000000 1.0
C      1  0.5208610000000  0.5597860000000  0.5973140000000 1.0
C      1  0.4402140000000  0.5208610000000  0.4026860000000 1.0
C      1  0.5597860000000  0.4791390000000  0.4026860000000 1.0
C      1  0.4402140000000  0.4791390000000  0.5973140000000 1.0
C      1  0.5597860000000  0.5208610000000  0.5973140000000 1.0
C      1  0.5323110000000  0.5113860000000  0.5374720000000 1.0
C      1  0.4676890000000  0.4886140000000  0.5374720000000 1.0
C      1  0.4676890000000  0.5113860000000  0.4625280000000 1.0
C      1  0.5323110000000  0.4886140000000  0.4625280000000 1.0
C      1  0.5113860000000  0.5323110000000  0.5374720000000 1.0
C      1  0.4886140000000  0.4676890000000  0.5374720000000 1.0
C      1  0.5113860000000  0.4676890000000  0.4625280000000 1.0
C      1  0.4886140000000  0.5323110000000  0.4625280000000 1.0
C      1  0.5086580000000  0.4686710000000  0.4108610000000 1.0
C      1  0.4913420000000  0.5313290000000  0.4108610000000 1.0
C      1  0.4913420000000  0.4686710000000  0.5891390000000 1.0
C      1  0.5086580000000  0.5313290000000  0.5891390000000 1.0
C      1  0.4686710000000  0.5086580000000  0.4108610000000 1.0
C      1  0.5313290000000  0.4913420000000  0.4108610000000 1.0
C      1  0.4686710000000  0.4913420000000  0.5891390000000 1.0
C      1  0.5313290000000  0.5086580000000  0.5891390000000 1.0
C      1  0.4071640000000  0.5555190000000  0.4797330000000 1.0
C      1  0.5928360000000  0.4444810000000  0.4797330000000 1.0
C      1  0.5928360000000  0.5555190000000  0.5202670000000 1.0
C      1  0.4071640000000  0.4444810000000  0.5202670000000 1.0
C      1  0.5555190000000  0.4071640000000  0.4797330000000 1.0
C      1  0.4444810000000  0.5928360000000  0.4797330000000 1.0
C      1  0.5555190000000  0.5928360000000  0.5202670000000 1.0
C      1  0.4444810000000  0.4071640000000  0.5202670000000 1.0
C      1  0.4797280000000  0.4383860000000  0.5418610000000 1.0
C      1  0.5202720000000  0.5616140000000  0.5418610000000 1.0
C      1  0.5202720000000  0.4383860000000  0.4581390000000 1.0
C      1  0.4797280000000  0.5616140000000  0.4581390000000 1.0
C      1  0.4383860000000  0.4797280000000  0.5418610000000 1.0
C      1  0.5616140000000  0.5202720000000  0.5418610000000 1.0
C      1  0.4383860000000  0.5202720000000  0.4581390000000 1.0
C      1  0.5616140000000  0.4797280000000  0.4581390000000 1.0
C      1  0.5144060000000  0.6134350000000  0.5020070000000 1.0
C      1  0.4855940000000  0.3865650000000  0.5020070000000 1.0
C      1  0.4855940000000  0.6134350000000  0.4979930000000 1.0
C      1  0.5144060000000  0.3865650000000  0.4979930000000 1.0
C      1  0.6134350000000  0.5144060000000  0.5020070000000 1.0
C      1  0.3865650000000  0.4855940000000  0.5020070000000 1.0
C      1  0.6134350000000  0.4855940000000  0.4979930000000 1.0
C      1  0.3865650000000  0.5144060000000  0.4979930000000 1.0
C      1  0.5247550000000  0.6197880000000  0.5297680000000 1.0
C      1  0.4752450000000  0.3802120000000  0.5297680000000 1.0
C      1  0.4752450000000  0.6197880000000  0.4702320000000 1.0
C      1  0.5247550000000  0.3802120000000  0.4702320000000 1.0
C      1  0.6197880000000  0.5247550000000  0.5297680000000 1.0
C      1  0.3802120000000  0.4752450000000  0.5297680000000 1.0
C      1  0.6197880000000  0.4752450000000  0.4702320000000 1.0
C      1  0.3802120000000  0.5247550000000  0.4702320000000 1.0
C      1  0.4526400000000  0.5683990000000  0.4113400000000 1.0
C      1  0.5473600000000  0.4316010000000  0.4113400000000 1.0
C      1  0.5473600000000  0.5683990000000  0.5886600000000 1.0
C      1  0.4526400000000  0.4316010000000  0.5886600000000 1.0
C      1  0.5683990000000  0.4526400000000  0.4113400000000 1.0
C      1  0.4316010000000  0.5473600000000  0.4113400000000 1.0
C      1  0.5683990000000  0.5473600000000  0.5886600000000 1.0
C      1  0.4316010000000  0.4526400000000  0.5886600000000 1.0
C      1  0.4783210000000  0.4559130000000  0.4005860000000 1.0
C      1  0.5216790000000  0.5440870000000  0.4005860000000 1.0
C      1  0.5216790000000  0.4559130000000  0.5994140000000 1.0
C      1  0.4783210000000  0.5440870000000  0.5994140000000 1.0
C      1  0.4559130000000  0.4783210000000  0.4005860000000 1.0
C      1  0.5440870000000  0.5216790000000  0.4005860000000 1.0
C      1  0.4559130000000  0.5216790000000  0.5994140000000 1.0
C      1  0.5440870000000  0.4783210000000  0.5994140000000 1.0
C      1  0.5730600000000  0.5518380000000  0.4518080000000 1.0
C      1  0.4269400000000  0.4481620000000  0.4518080000000 1.0
C      1  0.4269400000000  0.5518380000000  0.5481920000000 1.0
C      1  0.5730600000000  0.4481620000000  0.5481920000000 1.0
C      1  0.5518380000000  0.5730600000000  0.4518080000000 1.0
C      1  0.4481620000000  0.4269400000000  0.4518080000000 1.0
C      1  0.5518380000000  0.4269400000000  0.5481920000000 1.0
C      1  0.4481620000000  0.5730600000000  0.5481920000000 1.0
C      1  0.5235210000000  0.4386710000000  0.5491750000000 1.0
C      1  0.4764790000000  0.5613290000000  0.5491750000000 1.0
C      1  0.4764790000000  0.4386710000000  0.4508250000000 1.0
C      1  0.5235210000000  0.5613290000000  0.4508250000000 1.0
C      1  0.4386710000000  0.5235210000000  0.5491750000000 1.0
C      1  0.5613290000000  0.4764790000000  0.5491750000000 1.0
C      1  0.4386710000000  0.4764790000000  0.4508250000000 1.0
C      1  0.5613290000000  0.5235210000000  0.4508250000000 1.0
C      1  0.4498800000000  0.4287850000000  0.5397170000000 1.0
C      1  0.5501200000000  0.5712150000000  0.5397170000000 1.0
C      1  0.5501200000000  0.4287850000000  0.4602830000000 1.0
C      1  0.4498800000000  0.5712150000000  0.4602830000000 1.0
C      1  0.4287850000000  0.4498800000000  0.5397170000000 1.0
C      1  0.5712150000000  0.5501200000000  0.5397170000000 1.0
C      1  0.4287850000000  0.5501200000000  0.4602830000000 1.0
C      1  0.5712150000000  0.4498800000000  0.4602830000000 1.0
C      1  0.5812840000000  0.4987630000000  0.5579970000000 1.0
C      1  0.4187160000000  0.5012370000000  0.5579970000000 1.0
C      1  0.4187160000000  0.4987630000000  0.4420030000000 1.0
C      1  0.5812840000000  0.5012370000000  0.4420030000000 1.0
C      1  0.4987630000000  0.5812840000000  0.5579970000000 1.0
C      1  0.5012370000000  0.4187160000000  0.5579970000000 1.0
C      1  0.4987630000000  0.4187160000000  0.4420030000000 1.0
C      1  0.5012370000000  0.5812840000000  0.4420030000000 1.0
C      1  0.5480280000000  0.4125400000000  0.4341980000000 1.0
C      1  0.4519720000000  0.5874600000000  0.4341980000000 1.0
C      1  0.4519720000000  0.4125400000000  0.5658020000000 1.0
C      1  0.5480280000000  0.5874600000000  0.5658020000000 1.0
C      1  0.4125400000000  0.5480280000000  0.4341980000000 1.0
C      1  0.5874600000000  0.4519720000000  0.4341980000000 1.0
C      1  0.4125400000000  0.4519720000000  0.5658020000000 1.0
C      1  0.5874600000000  0.5480280000000  0.5658020000000 1.0
END
