TITL C-862130-1496-1402 -0.0142568328533631 125000 -481.584859656114 0 0 98 (C3) n - 1
REM
REM in /home/nfs/bkarasulu/CARBON/AIRSS/Generating-Clusters/TERSOFF/Higher-Symm/FIRE-HFTN
REM
REM
REM
REM
REM
REM ./C.cell (b20cbc046b6831c77cfcea5457e17084)
REM AIRSS Version 0.9.1 bugfix July 2018 build 013d7b7c2542+ Fri, 06 Jul 2018 19:26:36 +0100
REM compiler GCC version 9.2.1 20190827 (Red Hat 9.2.1-1)
REM options -cpp -mtune=generic -march=x86-64 -g -O0 -fpre-include=/usr/include/finclude/math-vector-fortran.h
REM seed 2095127543 748668894 1543398554 -248847363 1378647674 -730168096 -760745270 -1413239532 -1739901991 853471097 -1794748193 -1914191267 -1787984258 32986163 -1558754734 1088951474 -61223268 1350227397 -429628141 -208326354 -7870991 841227715 -804604120 1468427401 66097267 -1696058329 -790427242 -1411881629 497537069 1612569258 1756796229 -1013263774 751990237
REM
CELL 1.54180   50.00000   50.00000   50.00000   90.00000   90.00000   90.00000
LATT -1
SFAC C  
C      1  0.4478520000000  0.4780180000000  0.4480920000000 1.0
C      1  0.5073820000000  0.5564450000000  0.4480920000000 1.0
C      1  0.5455360000000  0.4656770000000  0.4480920000000 1.0
C      1  0.4472070000000  0.4782330000000  0.5529450000000 1.0
C      1  0.5078900000000  0.5568960000000  0.5529450000000 1.0
C      1  0.5456720000000  0.4650120000000  0.5529450000000 1.0
C      1  0.4612360000000  0.4962730000000  0.5177140000000 1.0
C      1  0.5164990000000  0.5357260000000  0.5177140000000 1.0
C      1  0.5230350000000  0.4681410000000  0.5177140000000 1.0
C      1  0.4607240000000  0.4961200000000  0.4837210000000 1.0
C      1  0.5166220000000  0.5362460000000  0.4837210000000 1.0
C      1  0.5234230000000  0.4677740000000  0.4837210000000 1.0
C      1  0.5217400000000  0.5201200000000  0.6038320000000 1.0
C      1  0.5068980000000  0.4714050000000  0.6038320000000 1.0
C      1  0.4721300000000  0.5086160000000  0.6038320000000 1.0
C      1  0.5216570000000  0.5203670000000  0.3972930000000 1.0
C      1  0.5071550000000  0.4713530000000  0.3972930000000 1.0
C      1  0.4719580000000  0.5084190000000  0.3972930000000 1.0
C      1  0.5435450000000  0.4431720000000  0.4854330000000 1.0
C      1  0.4293570000000  0.4909950000000  0.4854320000000 1.0
C      1  0.5278670000000  0.5659730000000  0.4854320000000 1.0
C      1  0.5425450000000  0.4435270000000  0.5165820000000 1.0
C      1  0.4301650000000  0.4916830000000  0.5165820000000 1.0
C      1  0.5280590000000  0.5649300000000  0.5165820000000 1.0
C      1  0.5043720000000  0.5354730000000  0.4215020000000 1.0
C      1  0.5288800000000  0.4787690000000  0.4215020000000 1.0
C      1  0.4675180000000  0.4858970000000  0.4215020000000 1.0
C      1  0.5047560000000  0.5353660000000  0.5794020000000 1.0
C      1  0.5285940000000  0.4784900000000  0.5794030000000 1.0
C      1  0.4674190000000  0.4862840000000  0.5794020000000 1.0
C      1  0.4752610000000  0.4503910000000  0.5172220000000 1.0
C      1  0.4697510000000  0.5465210000000  0.5172220000000 1.0
C      1  0.5557570000000  0.5032280000000  0.5172220000000 1.0
C      1  0.4756140000000  0.4503020000000  0.4838880000000 1.0
C      1  0.4694980000000  0.5462600000000  0.4838870000000 1.0
C      1  0.5556580000000  0.5035780000000  0.4838880000000 1.0
C      1  0.5345140000000  0.5553560000000  0.4161590000000 1.0
C      1  0.5310270000000  0.4427230000000  0.4161600000000 1.0
C      1  0.4352280000000  0.5020590000000  0.4161600000000 1.0
C      1  0.5348760000000  0.5550180000000  0.5849660000000 1.0
C      1  0.5305530000000  0.4425800000000  0.5849660000000 1.0
C      1  0.4353400000000  0.5025430000000  0.5849660000000 1.0
C      1  0.5260400000000  0.4219720000000  0.4711390000000 1.0
C      1  0.4197500000000  0.5167550000000  0.4711380000000 1.0
C      1  0.5549790000000  0.5614130000000  0.4711380000000 1.0
C      1  0.5262750000000  0.4214930000000  0.5305590000000 1.0
C      1  0.4192180000000  0.5167910000000  0.5305590000000 1.0
C      1  0.5552770000000  0.5618560000000  0.5305590000000 1.0
C      1  0.4860690000000  0.4622600000000  0.4161050000000 1.0
C      1  0.4746260000000  0.5312270000000  0.4161050000000 1.0
C      1  0.5400750000000  0.5066520000000  0.4161050000000 1.0
C      1  0.4857250000000  0.4625230000000  0.5849930000000 1.0
C      1  0.4750260000000  0.5313940000000  0.5849920000000 1.0
C      1  0.5400190000000  0.5062240000000  0.5849920000000 1.0
C      1  0.5402570000000  0.4336860000000  0.4447290000000 1.0
C      1  0.4227860000000  0.4985850000000  0.4447280000000 1.0
C      1  0.5377260000000  0.5678680000000  0.4447280000000 1.0
C      1  0.5405370000000  0.4327680000000  0.5570480000000 1.0
C      1  0.4218510000000  0.4988030000000  0.5570480000000 1.0
C      1  0.5383820000000  0.5685700000000  0.5570470000000 1.0
C      1  0.5004240000000  0.4194190000000  0.5635870000000 1.0
C      1  0.4303470000000  0.5402160000000  0.5635860000000 1.0
C      1  0.5699980000000  0.5405060000000  0.5635860000000 1.0
C      1  0.5010610000000  0.4192180000000  0.4374960000000 1.0
C      1  0.4298550000000  0.5397630000000  0.4374950000000 1.0
C      1  0.5698530000000  0.5411570000000  0.4374950000000 1.0
C      1  0.4340550000000  0.5416940000000  0.5171080000000 1.0
C      1  0.5694250000000  0.5365550000000  0.5171080000000 1.0
C      1  0.4972890000000  0.4218900000000  0.5171090000000 1.0
C      1  0.4345250000000  0.5414520000000  0.4847310000000 1.0
C      1  0.5689800000000  0.5362690000000  0.4847310000000 1.0
C      1  0.4972640000000  0.4224190000000  0.4847310000000 1.0
C      1  0.4572870000000  0.5293400000000  0.5612410000000 1.0
C      1  0.5471100000000  0.5226120000000  0.5612410000000 1.0
C      1  0.4963720000000  0.4481880000000  0.5612410000000 1.0
C      1  0.4568760000000  0.5290770000000  0.4399050000000 1.0
C      1  0.5470880000000  0.5231000000000  0.4399050000000 1.0
C      1  0.4968060000000  0.4479620000000  0.4399050000000 1.0
C      1  0.5122610000000  0.5942620000000  0.4829000000000 1.0
C      1  0.5758470000000  0.4425430000000  0.4829010000000 1.0
C      1  0.4126610000000  0.4633350000000  0.4829010000000 1.0
C      1  0.5128860000000  0.5926060000000  0.5142430000000 1.0
C      1  0.5741000000000  0.4428290000000  0.5142440000000 1.0
C      1  0.4137830000000  0.4647050000000  0.5142440000000 1.0
C      1  0.4683660000000  0.5211250000000  0.5334420000000 1.0
C      1  0.5344560000000  0.5171260000000  0.5334420000000 1.0
C      1  0.4979480000000  0.4618900000000  0.5334430000000 1.0
C      1  0.4679290000000  0.5207970000000  0.4677640000000 1.0
C      1  0.5343910000000  0.5176670000000  0.4677640000000 1.0
C      1  0.4984500000000  0.4616750000000  0.4677640000000 1.0
C      1  0.4863150000000  0.5649900000000  0.4676210000000 1.0
C      1  0.5634700000000  0.4796490000000  0.4676220000000 1.0
C      1  0.4509850000000  0.4555010000000  0.4676220000000 1.0
C      1  0.4870250000000  0.5653780000000  0.5330440000000 1.0
C      1  0.5634500000000  0.4788400000000  0.5330450000000 1.0
C      1  0.4502930000000  0.4559230000000  0.5330450000000 1.0
C      1  0.5002560000000  0.5000470000000  0.5730360000000 1.0
C      1  0.5002570000000  0.5000460000000  0.4276370000000 1.0
END
