TITL C-862132-7359-160 -0.000109542115450443 125000 -292.686418097071 0 0 58 (D3) n - 1
REM
REM in /home/nfs/bkarasulu/CARBON/AIRSS/Generating-Clusters/TERSOFF/Higher-Symm/FIRE-HFTN
REM
REM
REM
REM
REM
REM ./C.cell (b20cbc046b6831c77cfcea5457e17084)
REM AIRSS Version 0.9.1 bugfix July 2018 build 013d7b7c2542+ Fri, 06 Jul 2018 19:26:36 +0100
REM compiler GCC version 9.2.1 20190827 (Red Hat 9.2.1-1)
REM options -cpp -mtune=generic -march=x86-64 -g -O0 -fpre-include=/usr/include/finclude/math-vector-fortran.h
REM seed 2038598651 -877061656 -1733864410 1838115686 -1030547469 1641151349 2141956753 -1975201164 989434539 -2008299004 32155236 1498747797 269723817 1927642757 -1314220249 356643357 -223010120 545065478 -1557103365 -1036071908 801842973 1169900418 -450062571 1431892727 1950482377 1660486906 -1947217037 -1181858127 383599574 426065487 -794707791 -555118017 125959919
REM
CELL 1.54180   50.00000   50.00000   50.00000   90.00000   90.00000   90.00000
LATT -1
SFAC C  
C      1  0.5499710000000  0.5084100000000  0.4716890000000 1.0
C      1  0.4674430000000  0.5383460000000  0.4716900000000 1.0
C      1  0.4827820000000  0.4519070000000  0.4716890000000 1.0
C      1  0.4501600000000  0.5084100000000  0.5305450000000 1.0
C      1  0.5326880000000  0.5383460000000  0.5305450000000 1.0
C      1  0.5173490000000  0.4519070000000  0.5305450000000 1.0
C      1  0.5328800000000  0.4618610000000  0.4928780000000 1.0
C      1  0.5163010000000  0.5468190000000  0.4928780000000 1.0
C      1  0.4510150000000  0.4899820000000  0.4928780000000 1.0
C      1  0.4672510000000  0.4618610000000  0.5093560000000 1.0
C      1  0.4838300000000  0.5468190000000  0.5093560000000 1.0
C      1  0.5491160000000  0.4899820000000  0.5093560000000 1.0
C      1  0.5742520000000  0.4651940000000  0.4866220000000 1.0
C      1  0.4927290000000  0.5809820000000  0.4866230000000 1.0
C      1  0.4332150000000  0.4524870000000  0.4866230000000 1.0
C      1  0.4258790000000  0.4651940000000  0.5156120000000 1.0
C      1  0.5074020000000  0.5809820000000  0.5156120000000 1.0
C      1  0.5669160000000  0.4524870000000  0.5156120000000 1.0
C      1  0.5228840000000  0.4328970000000  0.5088220000000 1.0
C      1  0.5463830000000  0.5526440000000  0.5088220000000 1.0
C      1  0.4309300000000  0.5131220000000  0.5088220000000 1.0
C      1  0.4772480000000  0.4328970000000  0.4934120000000 1.0
C      1  0.4537480000000  0.5526440000000  0.4934130000000 1.0
C      1  0.5692010000000  0.5131220000000  0.4934120000000 1.0
C      1  0.5122850000000  0.4827020000000  0.4469450000000 1.0
C      1  0.5085510000000  0.5185630000000  0.4469450000000 1.0
C      1  0.4793610000000  0.4973980000000  0.4469450000000 1.0
C      1  0.4878460000000  0.4827010000000  0.5552890000000 1.0
C      1  0.4915800000000  0.5185630000000  0.5552890000000 1.0
C      1  0.5207700000000  0.4973980000000  0.5552890000000 1.0
C      1  0.5205090000000  0.5171290000000  0.4769920000000 1.0
C      1  0.4746240000000  0.5084720000000  0.4769920000000 1.0
C      1  0.5050630000000  0.4730620000000  0.4769920000000 1.0
C      1  0.4796220000000  0.5171280000000  0.5252430000000 1.0
C      1  0.5255070000000  0.5084720000000  0.5252430000000 1.0
C      1  0.4950680000000  0.4730620000000  0.5252430000000 1.0
C      1  0.4612950000000  0.4437280000000  0.5357950000000 1.0
C      1  0.5677980000000  0.4938910000000  0.5357950000000 1.0
C      1  0.4711040000000  0.5610440000000  0.5357950000000 1.0
C      1  0.5388360000000  0.4437280000000  0.4664390000000 1.0
C      1  0.4323330000000  0.4938910000000  0.4664400000000 1.0
C      1  0.5290270000000  0.5610440000000  0.4664390000000 1.0
C      1  0.4910930000000  0.5503060000000  0.5562260000000 1.0
C      1  0.4605990000000  0.4664070000000  0.5562260000000 1.0
C      1  0.5485050000000  0.4819490000000  0.5562260000000 1.0
C      1  0.5090380000000  0.5503070000000  0.4460090000000 1.0
C      1  0.5395320000000  0.4664080000000  0.4460090000000 1.0
C      1  0.4516260000000  0.4819490000000  0.4460090000000 1.0
C      1  0.4871580000000  0.5586280000000  0.4650400000000 1.0
C      1  0.4553600000000  0.4588390000000  0.4650400000000 1.0
C      1  0.5576790000000  0.4811960000000  0.4650400000000 1.0
C      1  0.5129730000000  0.5586280000000  0.5371940000000 1.0
C      1  0.5447710000000  0.4588390000000  0.5371940000000 1.0
C      1  0.4424520000000  0.4811960000000  0.5371940000000 1.0
C      1  0.4293250000000  0.5403970000000  0.5011170000000 1.0
C      1  0.5708060000000  0.5403970000000  0.5011170000000 1.0
C      1  0.5000660000000  0.4178700000000  0.5011170000000 1.0
C      1  0.5000660000000  0.4995540000000  0.5011170000000 1.0
END
