TITL C-862129-6180-262 0.0629490898714898 125000 -578.626280798675 0 0 98 (C2) n - 1
REM
REM in /home/nfs/bkarasulu/CARBON/AIRSS/Generating-Clusters/TERSOFF/Higher-Symm/FIRE-HFTN
REM
REM
REM
REM
REM
REM ./C.cell (b20cbc046b6831c77cfcea5457e17084)
REM AIRSS Version 0.9.1 bugfix July 2018 build 013d7b7c2542+ Fri, 06 Jul 2018 19:26:36 +0100
REM compiler GCC version 9.2.1 20190827 (Red Hat 9.2.1-1)
REM options -cpp -mtune=generic -march=x86-64 -g -O0 -fpre-include=/usr/include/finclude/math-vector-fortran.h
REM seed 483506182 -214466817 -1129833335 1687876360 -1090476987 -371539379 125685 -582568253 363969336 -1231926258 990383397 -1909413651 -2024577233 -2124787228 1476953850 -499226016 800329940 -964422833 -1603163114 106306689 -1908712876 280669753 -762288782 -1010346754 1521018297 -1488575746 -648081281 -517393665 -121197653 1666642059 2062510039 -1248056622 -43040717
REM
CELL 1.54180   50.00000   50.00000   50.00000   90.00000   90.00000   90.00000
LATT -1
SFAC C  
C      1  0.5112370000000  0.5817030000000  0.5466420000000 1.0
C      1  0.4887640000000  0.5817030000000  0.4533580000000 1.0
C      1  0.4394810000000  0.5439360000000  0.4461580000000 1.0
C      1  0.5605190000000  0.5439360000000  0.5538420000000 1.0
C      1  0.4280940000000  0.4977640000000  0.5262730000000 1.0
C      1  0.5719060000000  0.4977640000000  0.4737270000000 1.0
C      1  0.5188620000000  0.4209030000000  0.4643520000000 1.0
C      1  0.4811380000000  0.4209030000000  0.5356480000000 1.0
C      1  0.4616720000000  0.4574240000000  0.5707300000000 1.0
C      1  0.5383280000000  0.4574240000000  0.4292700000000 1.0
C      1  0.5646220000000  0.5076930000000  0.4246330000000 1.0
C      1  0.4353780000000  0.5076930000000  0.5753670000000 1.0
C      1  0.4740650000000  0.5699060000000  0.4760280000000 1.0
C      1  0.5259350000000  0.5699060000000  0.5239720000000 1.0
C      1  0.5447520000000  0.4981200000000  0.5698200000000 1.0
C      1  0.4552480000000  0.4981200000000  0.4301800000000 1.0
C      1  0.4574450000000  0.4378250000000  0.5454810000000 1.0
C      1  0.5425550000000  0.4378250000000  0.4545190000000 1.0
C      1  0.5537440000000  0.5547890000000  0.5278070000000 1.0
C      1  0.4462560000000  0.5547890000000  0.4721930000000 1.0
C      1  0.4572970000000  0.5273700000000  0.4304860000000 1.0
C      1  0.5427030000000  0.5273700000000  0.5695140000000 1.0
C      1  0.4717620000000  0.5275330000000  0.4998720000000 1.0
C      1  0.5282380000000  0.5275330000000  0.5001280000000 1.0
C      1  0.5165490000000  0.5749030000000  0.4478320000000 1.0
C      1  0.4834510000000  0.5749030000000  0.5521680000000 1.0
C      1  0.4128960000000  0.5240440000000  0.5323880000000 1.0
C      1  0.5871040000000  0.5240440000000  0.4676120000000 1.0
C      1  0.5396480000000  0.4776280000000  0.3805250000000 1.0
C      1  0.4603520000000  0.4776280000000  0.6194750000000 1.0
C      1  0.5780710000000  0.4958450000000  0.5295840000000 1.0
C      1  0.4219290000000  0.4958460000000  0.4704160000000 1.0
C      1  0.4712830000000  0.4484710000000  0.4918300000000 1.0
C      1  0.5287170000000  0.4484710000000  0.5081700000000 1.0
C      1  0.4404850000000  0.5370770000000  0.4962300000000 1.0
C      1  0.5595150000000  0.5370770000000  0.5037700000000 1.0
C      1  0.4348930000000  0.4828400000000  0.4473630000000 1.0
C      1  0.5651070000000  0.4828400000000  0.5526370000000 1.0
C      1  0.5126840000000  0.4755980000000  0.4687210000000 1.0
C      1  0.4873160000000  0.4755980000000  0.5312790000000 1.0
C      1  0.5206940000000  0.4745140000000  0.4966620000000 1.0
C      1  0.4793050000000  0.4745140000000  0.5033380000000 1.0
C      1  0.4952900000000  0.4958320000000  0.5864720000000 1.0
C      1  0.5047100000000  0.4958320000000  0.4135280000000 1.0
C      1  0.5750010000000  0.5473730000000  0.4810970000000 1.0
C      1  0.4249990000000  0.5473730000000  0.5189030000000 1.0
C      1  0.4865020000000  0.4123990000000  0.5069430000000 1.0
C      1  0.5134980000000  0.4123990000000  0.4930570000000 1.0
C      1  0.5238160000000  0.4545650000000  0.5807400000000 1.0
C      1  0.4761840000000  0.4545650000000  0.4192600000000 1.0
C      1  0.5636760000000  0.5043210000000  0.5052320000000 1.0
C      1  0.4363240000000  0.5043210000000  0.4947680000000 1.0
C      1  0.4778520000000  0.4832170000000  0.4174960000000 1.0
C      1  0.5221480000000  0.4832170000000  0.5825040000000 1.0
C      1  0.6094170000000  0.4647930000000  0.4601260000000 1.0
C      1  0.3905830000000  0.4647930000000  0.5398740000000 1.0
C      1  0.5558300000000  0.4407460000000  0.5018950000000 1.0
C      1  0.4441690000000  0.4407470000000  0.4981050000000 1.0
C      1  0.5337300000000  0.4983570000000  0.5072110000000 1.0
C      1  0.4662700000000  0.4983570000000  0.4927890000000 1.0
C      1  0.5634540000000  0.5696510000000  0.4670250000000 1.0
C      1  0.4365460000000  0.5696510000000  0.5329750000000 1.0
C      1  0.5627150000000  0.4531550000000  0.5502210000000 1.0
C      1  0.4372850000000  0.4531550000000  0.4497790000000 1.0
C      1  0.4664280000000  0.4785730000000  0.5502220000000 1.0
C      1  0.5335720000000  0.4785730000000  0.4497780000000 1.0
C      1  0.4747630000000  0.5222800000000  0.5494690000000 1.0
C      1  0.5252370000000  0.5222800000000  0.4505310000000 1.0
C      1  0.5095820000000  0.5263420000000  0.4238090000000 1.0
C      1  0.4904180000000  0.5263420000000  0.5761910000000 1.0
C      1  0.5357710000000  0.5780350000000  0.4704650000000 1.0
C      1  0.4642290000000  0.5780350000000  0.5295350000000 1.0
C      1  0.5181880000000  0.5388930000000  0.5794470000000 1.0
C      1  0.4818120000000  0.5388930000000  0.4205530000000 1.0
C      1  0.4742020000000  0.5867450000000  0.5021170000000 1.0
C      1  0.5257980000000  0.5867450000000  0.4978830000000 1.0
C      1  0.4178010000000  0.4692630000000  0.5307100000000 1.0
C      1  0.5821990000000  0.4692630000000  0.4692900000000 1.0
C      1  0.4264830000000  0.4418150000000  0.4749270000000 1.0
C      1  0.5735170000000  0.4418150000000  0.5250730000000 1.0
C      1  0.5135740000000  0.5413740000000  0.5211260000000 1.0
C      1  0.4864260000000  0.5413740000000  0.4788740000000 1.0
C      1  0.4641170000000  0.4423960000000  0.4422580000000 1.0
C      1  0.5358830000000  0.4423960000000  0.5577420000000 1.0
C      1  0.4851370000000  0.5332900000000  0.5248180000000 1.0
C      1  0.5148630000000  0.5332900000000  0.4751820000000 1.0
C      1  0.5146640000000  0.4798730000000  0.5397070000000 1.0
C      1  0.4853360000000  0.4798730000000  0.4602930000000 1.0
C      1  0.4503080000000  0.5030690000000  0.5498790000000 1.0
C      1  0.5496920000000  0.5030690000000  0.4501210000000 1.0
C      1  0.4807820000000  0.4385330000000  0.4660840000000 1.0
C      1  0.5192180000000  0.4385330000000  0.5339160000000 1.0
C      1  0.5275440000000  0.4773430000000  0.4069450000000 1.0
C      1  0.4724560000000  0.4773430000000  0.5930550000000 1.0
C      1  0.4361290000000  0.4459390000000  0.5254930000000 1.0
C      1  0.5638710000000  0.4459390000000  0.4745070000000 1.0
C      1  0.5223840000000  0.5559400000000  0.4255840000000 1.0
C      1  0.4776160000000  0.5559400000000  0.5744160000000 1.0
END
