TITL C-862506-1665-1180 -0.00944089153386624 125000 -418.788509119654 0 0 76 (C5) n - 1
REM
REM in /home/nfs/bkarasulu/CARBON/AIRSS/Generating-Clusters/TERSOFF/Higher-Symm/FIRE-HFTN
REM
REM
REM
REM
REM
REM ./C.cell (b20cbc046b6831c77cfcea5457e17084)
REM AIRSS Version 0.9.1 bugfix July 2018 build 013d7b7c2542+ Fri, 06 Jul 2018 19:26:36 +0100
REM compiler GCC version 9.2.1 20190827 (Red Hat 9.2.1-1)
REM options -cpp -mtune=generic -march=x86-64 -g -O0 -fpre-include=/usr/include/finclude/math-vector-fortran.h
REM seed 2010372857 564257001 -936002139 1765202411 -653605385 -783051198 1601199437 2092178546 -656507766 318857701 -502554888 1125659100 1880346065 1563658491 -1579666264 178206382 322176002 932162316 1903205733 -1810507472 -520814939 -1865800485 1883128159 -62032461 2145960674 88509899 -1243193656 2107631167 -1383713475 1750510036 -2032727811 -1267389072 1011046455
REM
CELL 1.54180   50.00000   50.00000   50.00000   90.00000   90.00000   90.00000
LATT -1
SFAC C  
C      1  0.4843400000000  0.4200870000000  0.5526760000000 1.0
C      1  0.5454230000000  0.4200870000000  0.5314360000000 1.0
C      1  0.5440980000000  0.4200870000000  0.4667790000000 1.0
C      1  0.4821960000000  0.4200880000000  0.4480600000000 1.0
C      1  0.4452640000000  0.4200880000000  0.5011470000000 1.0
C      1  0.5348900000000  0.5430140000000  0.5082710000000 1.0
C      1  0.5188110000000  0.5430140000000  0.4696390000000 1.0
C      1  0.4771010000000  0.5430140000000  0.4729930000000 1.0
C      1  0.4674020000000  0.5430140000000  0.5136970000000 1.0
C      1  0.5031170000000  0.5430140000000  0.5355000000000 1.0
C      1  0.4447150000000  0.4705530000000  0.5412720000000 1.0
C      1  0.5223310000000  0.4705530000000  0.5655980000000 1.0
C      1  0.5694520000000  0.4705530000000  0.4992980000000 1.0
C      1  0.5209580000000  0.4705530000000  0.4339950000000 1.0
C      1  0.4438660000000  0.4705530000000  0.4599370000000 1.0
C      1  0.5381520000000  0.5686580000000  0.5236730000000 1.0
C      1  0.5344680000000  0.5686580000000  0.4712960000000 1.0
C      1  0.4835160000000  0.5686580000000  0.4586150000000 1.0
C      1  0.4557100000000  0.5686580000000  0.5031540000000 1.0
C      1  0.4894770000000  0.5686580000000  0.5433620000000 1.0
C      1  0.5567920000000  0.4445610000000  0.4571780000000 1.0
C      1  0.4769870000000  0.4445610000000  0.4330200000000 1.0
C      1  0.4293500000000  0.4445620000000  0.5014530000000 1.0
C      1  0.4797140000000  0.4445610000000  0.5679060000000 1.0
C      1  0.5584770000000  0.4445610000000  0.5405420000000 1.0
C      1  0.4286790000000  0.5219520000000  0.5041360000000 1.0
C      1  0.4820580000000  0.5219520000000  0.5693740000000 1.0
C      1  0.5605970000000  0.5219520000000  0.5387670000000 1.0
C      1  0.5557580000000  0.5219520000000  0.4546130000000 1.0
C      1  0.4742280000000  0.5219520000000  0.4332100000000 1.0
C      1  0.5402960000000  0.5631250000000  0.5522430000000 1.0
C      1  0.5623020000000  0.5631260000000  0.4780850000000 1.0
C      1  0.4985740000000  0.5631260000000  0.4342400000000 1.0
C      1  0.4371820000000  0.5631260000000  0.4813010000000 1.0
C      1  0.4629680000000  0.5631260000000  0.5542310000000 1.0
C      1  0.5782250000000  0.4576110000000  0.5237530000000 1.0
C      1  0.5469270000000  0.4576110000000  0.4332080000000 1.0
C      1  0.4511420000000  0.4576110000000  0.4349950000000 1.0
C      1  0.4232420000000  0.4576110000000  0.5266440000000 1.0
C      1  0.5017840000000  0.4576110000000  0.5814990000000 1.0
C      1  0.4939910000000  0.5913260000000  0.5248680000000 1.0
C      1  0.5219580000000  0.5913260000000  0.5136650000000 1.0
C      1  0.5199450000000  0.5913260000000  0.4836050000000 1.0
C      1  0.4907340000000  0.5913270000000  0.4762300000000 1.0
C      1  0.4746940000000  0.5913270000000  0.5017320000000 1.0
C      1  0.5501300000000  0.4924190000000  0.5005160000000 1.0
C      1  0.5161460000000  0.4924190000000  0.4527480000000 1.0
C      1  0.4602140000000  0.4924190000000  0.4703080000000 1.0
C      1  0.4596300000000  0.4924190000000  0.5289280000000 1.0
C      1  0.5152010000000  0.4924190000000  0.5475980000000 1.0
C      1  0.5400750000000  0.5341800000000  0.5576410000000 1.0
C      1  0.5673670000000  0.5341800000000  0.4799640000000 1.0
C      1  0.5019260000000  0.5341810000000  0.4300040000000 1.0
C      1  0.4341880000000  0.5341810000000  0.4768040000000 1.0
C      1  0.4577660000000  0.5341800000000  0.5556880000000 1.0
C      1  0.5107060000000  0.5206620000000  0.5560710000000 1.0
C      1  0.5567980000000  0.5206620000000  0.5074100000000 1.0
C      1  0.5247630000000  0.5206620000000  0.4485370000000 1.0
C      1  0.4588710000000  0.5206630000000  0.4608110000000 1.0
C      1  0.4501830000000  0.5206630000000  0.5272710000000 1.0
C      1  0.4544990000000  0.4584080000000  0.5655520000000 1.0
C      1  0.5484470000000  0.4584080000000  0.5637960000000 1.0
C      1  0.5758080000000  0.4584080000000  0.4739030000000 1.0
C      1  0.4987700000000  0.4584080000000  0.4201030000000 1.0
C      1  0.4237970000000  0.4584080000000  0.4767450000000 1.0
C      1  0.5103740000000  0.4155610000000  0.5290410000000 1.0
C      1  0.5309890000000  0.4155610000000  0.4993720000000 1.0
C      1  0.5091430000000  0.4155610000000  0.4705980000000 1.0
C      1  0.4750260000000  0.4155610000000  0.4824840000000 1.0
C      1  0.4757870000000  0.4155610000000  0.5186030000000 1.0
C      1  0.4328710000000  0.4577190000000  0.4124050000000 1.0
C      1  0.3961120000000  0.4577190000000  0.5370400000000 1.0
C      1  0.5032870000000  0.4577190000000  0.6105140000000 1.0
C      1  0.6062850000000  0.4577190000000  0.5312890000000 1.0
C      1  0.5627650000000  0.4577190000000  0.4088510000000 1.0
C      1  0.5002640000000  0.5361340000000  0.5000200000000 1.0
END
