TITL C-862502-1143-533 0.098597030832823 125000 -221.652779289311 0 0 44 (C1) n - 1
REM
REM in /home/nfs/bkarasulu/CARBON/AIRSS/Generating-Clusters/TERSOFF/Higher-Symm/FIRE-HFTN
REM
REM
REM
REM
REM
REM ./C.cell (b20cbc046b6831c77cfcea5457e17084)
REM AIRSS Version 0.9.1 bugfix July 2018 build 013d7b7c2542+ Fri, 06 Jul 2018 19:26:36 +0100
REM compiler GCC version 9.2.1 20190827 (Red Hat 9.2.1-1)
REM options -cpp -mtune=generic -march=x86-64 -g -O0 -fpre-include=/usr/include/finclude/math-vector-fortran.h
REM seed 763529765 -1882304289 1416358134 -1013626638 980396687 -1885993370 -1554257989 -1358399620 1807038543 1393006660 -1815605454 -1058358670 -1962958733 806440762 1038937874 1750595031 -343266362 1811581531 928268585 -2121488723 -2107049270 1295652653 -527501829 655171799 1950866859 -754524668 1904776006 1702319241 -497436380 1393618625 445788956 -73933184 250018097
REM
CELL 1.54180   50.00000   50.00000   50.00000   90.00000   90.00000   90.00000
LATT -1
SFAC C  
C      1  0.4575370000000  0.4933510000000  0.5287560000000 1.0
C      1  0.5425000000000  0.4933580000000  0.4715240000000 1.0
C      1  0.5168150000000  0.4443820000000  0.5534250000000 1.0
C      1  0.4831030000000  0.4443640000000  0.4467040000000 1.0
C      1  0.5149880000000  0.4359410000000  0.4984320000000 1.0
C      1  0.4845640000000  0.4369420000000  0.5007600000000 1.0
C      1  0.5347510000000  0.5219210000000  0.4879430000000 1.0
C      1  0.4653640000000  0.5218740000000  0.5121570000000 1.0
C      1  0.5395230000000  0.4384670000000  0.5345750000000 1.0
C      1  0.4609510000000  0.4379190000000  0.4660420000000 1.0
C      1  0.5204590000000  0.4691390000000  0.4991940000000 1.0
C      1  0.4786690000000  0.4704100000000  0.5006310000000 1.0
C      1  0.4838890000000  0.5489910000000  0.4969060000000 1.0
C      1  0.5161960000000  0.5490280000000  0.5031800000000 1.0
C      1  0.4488670000000  0.4665470000000  0.5118240000000 1.0
C      1  0.5503490000000  0.4666640000000  0.4884150000000 1.0
C      1  0.4680940000000  0.4409710000000  0.5285160000000 1.0
C      1  0.5323880000000  0.4405330000000  0.4710250000000 1.0
C      1  0.5327460000000  0.5199560000000  0.5404920000000 1.0
C      1  0.4673990000000  0.5199290000000  0.4595440000000 1.0
C      1  0.4963050000000  0.5022870000000  0.4556480000000 1.0
C      1  0.5039160000000  0.5022720000000  0.5442060000000 1.0
C      1  0.4499320000000  0.5203860000000  0.4842610000000 1.0
C      1  0.5502100000000  0.5204770000000  0.5158010000000 1.0
C      1  0.5123810000000  0.5415100000000  0.5318710000000 1.0
C      1  0.4877510000000  0.5414250000000  0.4682390000000 1.0
C      1  0.5558690000000  0.4583570000000  0.5190320000000 1.0
C      1  0.4437800000000  0.4574470000000  0.4811770000000 1.0
C      1  0.4701080000000  0.5750140000000  0.5010020000000 1.0
C      1  0.5299260000000  0.5750680000000  0.4990250000000 1.0
C      1  0.5144120000000  0.5274040000000  0.4640700000000 1.0
C      1  0.4857350000000  0.5273920000000  0.5360160000000 1.0
C      1  0.4896860000000  0.4563760000000  0.5451240000000 1.0
C      1  0.5106480000000  0.4561740000000  0.4545750000000 1.0
C      1  0.5247670000000  0.4865300000000  0.4458550000000 1.0
C      1  0.4755070000000  0.4864420000000  0.5543090000000 1.0
C      1  0.4210900000000  0.5620750000000  0.4905860000000 1.0
C      1  0.5789610000000  0.5622300000000  0.5094740000000 1.0
C      1  0.4969000000000  0.4772680000000  0.4756880000000 1.0
C      1  0.5028300000000  0.4774390000000  0.5238980000000 1.0
C      1  0.5588090000000  0.5784230000000  0.4960090000000 1.0
C      1  0.4412180000000  0.5783170000000  0.5040280000000 1.0
C      1  0.4246460000000  0.5344280000000  0.4829560000000 1.0
C      1  0.5754630000000  0.5345760000000  0.5171050000000 1.0
END
