TITL C-862127-1500-538 -0.113286145783975 125000 -596.821971470416 0 0 98 (C7) n - 1
REM
REM in /home/nfs/bkarasulu/CARBON/AIRSS/Generating-Clusters/TERSOFF/Higher-Symm/FIRE-HFTN
REM
REM
REM
REM
REM
REM ./C.cell (b20cbc046b6831c77cfcea5457e17084)
REM AIRSS Version 0.9.1 bugfix July 2018 build 013d7b7c2542+ Fri, 06 Jul 2018 19:26:36 +0100
REM compiler GCC version 9.2.1 20190827 (Red Hat 9.2.1-1)
REM options -cpp -mtune=generic -march=x86-64 -g -O0 -fpre-include=/usr/include/finclude/math-vector-fortran.h
REM seed 172653492 -1454301575 -194031092 582736885 1967462552 -326226835 1104482815 -1929358041 531632392 -1861590357 -1500865722 1611204110 -2047871506 -1736686404 397895281 -1892195235 -2032900058 -1847044677 -1073236872 10781732 -1168880076 -1658837613 -197280047 -1012431731 313108686 -526439397 -1077955136 742987642 1646091723 -956541940 308162482 441240017 831599838
REM
CELL 1.54180   50.00000   50.00000   50.00000   90.00000   90.00000   90.00000
LATT -1
SFAC C  
C      1  0.5044270000000  0.5779390000000  0.4442770000000 1.0
C      1  0.4418250000000  0.5520550000000  0.4442770000000 1.0
C      1  0.4230300000000  0.4869720000000  0.4442770000000 1.0
C      1  0.4621950000000  0.4317000000000  0.4442770000000 1.0
C      1  0.5298280000000  0.4278580000000  0.4442770000000 1.0
C      1  0.5750000000000  0.4783410000000  0.4442770000000 1.0
C      1  0.5636950000000  0.5451330000000  0.4442770000000 1.0
C      1  0.4724960000000  0.4432620000000  0.4198400000000 1.0
C      1  0.5272110000000  0.4431210000000  0.4198400000000 1.0
C      1  0.5614360000000  0.4858110000000  0.4198400000000 1.0
C      1  0.5493980000000  0.5391850000000  0.4198400000000 1.0
C      1  0.5001630000000  0.5630530000000  0.4198400000000 1.0
C      1  0.4508050000000  0.5394400000000  0.4198400000000 1.0
C      1  0.4384920000000  0.4861280000000  0.4198400000000 1.0
C      1  0.4777710000000  0.4471120000000  0.5738400000000 1.0
C      1  0.5274900000000  0.4496460000000  0.5738400000000 1.0
C      1  0.5565080000000  0.4900970000000  0.5738400000000 1.0
C      1  0.5429750000000  0.5380060000000  0.5738400000000 1.0
C      1  0.4970800000000  0.5572950000000  0.5738400000000 1.0
C      1  0.4533840000000  0.5334400000000  0.5738400000000 1.0
C      1  0.4447910000000  0.4844040000000  0.5738400000000 1.0
C      1  0.5325190000000  0.4857830000000  0.4693450000000 1.0
C      1  0.5313900000000  0.5165600000000  0.4693450000000 1.0
C      1  0.5066240000000  0.5348670000000  0.4693450000000 1.0
C      1  0.4768700000000  0.5269180000000  0.4693450000000 1.0
C      1  0.4645330000000  0.4986990000000  0.4693450000000 1.0
C      1  0.4789040000000  0.4714600000000  0.4693450000000 1.0
C      1  0.5091600000000  0.4657120000000  0.4693450000000 1.0
C      1  0.4852400000000  0.4695290000000  0.4178890000000 1.0
C      1  0.5146200000000  0.4694620000000  0.4178890000000 1.0
C      1  0.5329910000000  0.4923900000000  0.4178890000000 1.0
C      1  0.5265190000000  0.5210490000000  0.4178890000000 1.0
C      1  0.5000780000000  0.5338570000000  0.4178890000000 1.0
C      1  0.4735780000000  0.5211710000000  0.4178890000000 1.0
C      1  0.4669740000000  0.4925420000000  0.4178890000000 1.0
C      1  0.5403720000000  0.4299260000000  0.4944740000000 1.0
C      1  0.5799570000000  0.4878740000000  0.4944740000000 1.0
C      1  0.5593330000000  0.5549520000000  0.4944740000000 1.0
C      1  0.4940300000000  0.5806510000000  0.4944740000000 1.0
C      1  0.4332220000000  0.5456180000000  0.4944740000000 1.0
C      1  0.4227000000000  0.4762330000000  0.4944740000000 1.0
C      1  0.4703850000000  0.4247460000000  0.4944740000000 1.0
C      1  0.4330680000000  0.4974470000000  0.4705020000000 1.0
C      1  0.4602640000000  0.4460790000000  0.4705020000000 1.0
C      1  0.5173830000000  0.4353140000000  0.4705020000000 1.0
C      1  0.5614120000000  0.4732590000000  0.4705020000000 1.0
C      1  0.5591960000000  0.5313410000000  0.4705020000000 1.0
C      1  0.5124050000000  0.5658220000000  0.4705020000000 1.0
C      1  0.4562720000000  0.5507380000000  0.4705020000000 1.0
C      1  0.4208720000000  0.5241610000000  0.4761310000000 1.0
C      1  0.4317750000000  0.4531990000000  0.4761310000000 1.0
C      1  0.4940520000000  0.4174800000000  0.4761310000000 1.0
C      1  0.5608090000000  0.4438990000000  0.4761310000000 1.0
C      1  0.5817750000000  0.5125640000000  0.4761310000000 1.0
C      1  0.5411630000000  0.5717680000000  0.4761310000000 1.0
C      1  0.4695540000000  0.5769290000000  0.4761310000000 1.0
C      1  0.4262000000000  0.5122850000000  0.5330550000000 1.0
C      1  0.4443820000000  0.4499610000000  0.5330550000000 1.0
C      1  0.5044450000000  0.4253170000000  0.5330550000000 1.0
C      1  0.5611610000000  0.4569110000000  0.5330550000000 1.0
C      1  0.5718210000000  0.5209520000000  0.5330550000000 1.0
C      1  0.5283990000000  0.5692160000000  0.5330550000000 1.0
C      1  0.4635920000000  0.5653580000000  0.5330550000000 1.0
C      1  0.4366280000000  0.5109890000000  0.5605390000000 1.0
C      1  0.4518970000000  0.4573060000000  0.5605390000000 1.0
C      1  0.5033880000000  0.4357720000000  0.5605390000000 1.0
C      1  0.5523280000000  0.4626030000000  0.5605390000000 1.0
C      1  0.5618640000000  0.5175950000000  0.5605390000000 1.0
C      1  0.5248150000000  0.5593380000000  0.5605390000000 1.0
C      1  0.4690800000000  0.5563980000000  0.5605390000000 1.0
C      1  0.4866210000000  0.4681630000000  0.5942370000000 1.0
C      1  0.5165500000000  0.4696900000000  0.5942370000000 1.0
C      1  0.5340160000000  0.4940410000000  0.5942370000000 1.0
C      1  0.5258680000000  0.5228790000000  0.5942370000000 1.0
C      1  0.4982400000000  0.5344890000000  0.5942370000000 1.0
C      1  0.4719380000000  0.5201280000000  0.5942370000000 1.0
C      1  0.4667670000000  0.4906100000000  0.5942370000000 1.0
C      1  0.4775750000000  0.5879090000000  0.5208840000000 1.0
C      1  0.4172890000000  0.5372780000000  0.5208840000000 1.0
C      1  0.4192850000000  0.4585760000000  0.5208850000000 1.0
C      1  0.4820620000000  0.4110670000000  0.5208850000000 1.0
C      1  0.5583460000000  0.4305270000000  0.5208850000000 1.0
C      1  0.5906950000000  0.5023010000000  0.5208850000000 1.0
C      1  0.5547480000000  0.5723420000000  0.5208840000000 1.0
C      1  0.5101880000000  0.4689490000000  0.5111870000000 1.0
C      1  0.5306290000000  0.4886060000000  0.5111870000000 1.0
C      1  0.5280050000000  0.5168420000000  0.5111870000000 1.0
C      1  0.5042930000000  0.5323970000000  0.5111870000000 1.0
C      1  0.4773480000000  0.5235550000000  0.5111870000000 1.0
C      1  0.4674600000000  0.4969770000000  0.5111870000000 1.0
C      1  0.4820760000000  0.4726750000000  0.5111870000000 1.0
C      1  0.4580480000000  0.5444150000000  0.5138010000000 1.0
C      1  0.4391180000000  0.4948930000000  0.5138010000000 1.0
C      1  0.4660340000000  0.4492160000000  0.5138010000000 1.0
C      1  0.5185270000000  0.4417810000000  0.5138010000000 1.0
C      1  0.5570690000000  0.4781860000000  0.5138010000000 1.0
C      1  0.5526370000000  0.5310170000000  0.5138010000000 1.0
C      1  0.5085680000000  0.5604920000000  0.5138010000000 1.0
END
