TITL C-862128-1543-1130 -0.00021111302417142 125000 -172.342226833169 0 0 34 (C1) n - 1
REM
REM in /home/nfs/bkarasulu/CARBON/AIRSS/Generating-Clusters/TERSOFF/Higher-Symm/FIRE-HFTN
REM
REM
REM
REM
REM
REM ./C.cell (b20cbc046b6831c77cfcea5457e17084)
REM AIRSS Version 0.9.1 bugfix July 2018 build 013d7b7c2542+ Fri, 06 Jul 2018 19:26:36 +0100
REM compiler GCC version 9.2.1 20190827 (Red Hat 9.2.1-1)
REM options -cpp -mtune=generic -march=x86-64 -g -O0 -fpre-include=/usr/include/finclude/math-vector-fortran.h
REM seed -1800822295 81132762 628998286 -720203934 -1771121891 -1413557207 1839481427 -331334839 129653589 103217756 -1672820278 1340405926 1384426637 1178347301 -2687354 1328428945 2123144001 -118856727 181212425 -55829371 867077465 -416103951 1387167720 1731265078 -439464030 1994065551 208411573 1555325496 -1506029168 786022495 921340639 6785771 -1019742840
REM
CELL 1.54180   50.00000   50.00000   50.00000   90.00000   90.00000   90.00000
LATT -1
SFAC C  
C      1  0.5345960000000  0.4888190000000  0.5184320000000 1.0
C      1  0.4870720000000  0.4988020000000  0.5405750000000 1.0
C      1  0.4934410000000  0.4508610000000  0.4593260000000 1.0
C      1  0.5525380000000  0.5119470000000  0.5029990000000 1.0
C      1  0.4849720000000  0.4684810000000  0.4369210000000 1.0
C      1  0.4779820000000  0.5401460000000  0.4931620000000 1.0
C      1  0.5525070000000  0.5023340000000  0.4721770000000 1.0
C      1  0.5133860000000  0.5175360000000  0.4735460000000 1.0
C      1  0.4480750000000  0.5026020000000  0.4653610000000 1.0
C      1  0.4584850000000  0.4671990000000  0.5266080000000 1.0
C      1  0.5130720000000  0.4715000000000  0.4737830000000 1.0
C      1  0.4535910000000  0.4892130000000  0.4911890000000 1.0
C      1  0.5062380000000  0.4477770000000  0.5164590000000 1.0
C      1  0.5545670000000  0.5339360000000  0.5258480000000 1.0
C      1  0.4628810000000  0.5306740000000  0.5208540000000 1.0
C      1  0.5295200000000  0.5328390000000  0.4921520000000 1.0
C      1  0.4746090000000  0.4397450000000  0.4795280000000 1.0
C      1  0.5243540000000  0.4659160000000  0.5022060000000 1.0
C      1  0.4927030000000  0.4972580000000  0.4399230000000 1.0
C      1  0.5208950000000  0.4713270000000  0.5656330000000 1.0
C      1  0.5151000000000  0.5811320000000  0.5069660000000 1.0
C      1  0.4773430000000  0.4509770000000  0.5087900000000 1.0
C      1  0.5121700000000  0.5091280000000  0.5284840000000 1.0
C      1  0.4580030000000  0.4997070000000  0.5246850000000 1.0
C      1  0.5248200000000  0.4957390000000  0.4563580000000 1.0
C      1  0.4884560000000  0.5438860000000  0.5335670000000 1.0
C      1  0.4744420000000  0.5419550000000  0.4622330000000 1.0
C      1  0.5283270000000  0.5322790000000  0.5392250000000 1.0
C      1  0.5086060000000  0.5525190000000  0.5081600000000 1.0
C      1  0.5417010000000  0.4780970000000  0.5460980000000 1.0
C      1  0.4891670000000  0.5109860000000  0.4864410000000 1.0
C      1  0.4931630000000  0.4798040000000  0.5620040000000 1.0
C      1  0.4696050000000  0.5156810000000  0.4495770000000 1.0
C      1  0.4836160000000  0.4792000000000  0.4907280000000 1.0
END
