TITL C-862501-1041-398 -3.81441713385595e-05 125000 -503.363490769446 0 0 98 (C1) n - 1
REM
REM in /home/nfs/bkarasulu/CARBON/AIRSS/Generating-Clusters/TERSOFF/Higher-Symm/FIRE-HFTN
REM
REM
REM
REM
REM
REM ./C.cell (b20cbc046b6831c77cfcea5457e17084)
REM AIRSS Version 0.9.1 bugfix July 2018 build 013d7b7c2542+ Fri, 06 Jul 2018 19:26:36 +0100
REM compiler GCC version 9.2.1 20190827 (Red Hat 9.2.1-1)
REM options -cpp -mtune=generic -march=x86-64 -g -O0 -fpre-include=/usr/include/finclude/math-vector-fortran.h
REM seed -58870533 -28718848 -105872176 593512755 1408590422 1622856646 -478636862 -698466916 155523937 -1496519668 17392170 -728891602 1109009310 2031421192 -1524434539 2010664411 214213054 1913192588 -2066204904 -2065168503 -1699550187 1187846997 160130770 868162029 -1237536550 1352323526 749122649 254414109 -1161582304 -721859243 -1316883730 1507063861 -955553333
REM
CELL 1.54180   50.00000   50.00000   50.00000   90.00000   90.00000   90.00000
LATT -1
SFAC C  
C      1  0.5783530000000  0.4780050000000  0.5496150000000 1.0
C      1  0.5716940000000  0.4773780000000  0.4412650000000 1.0
C      1  0.4674890000000  0.4767390000000  0.4095450000000 1.0
C      1  0.4057750000000  0.4775530000000  0.5028900000000 1.0
C      1  0.4775670000000  0.4790950000000  0.5901880000000 1.0
C      1  0.4760040000000  0.5050360000000  0.4831480000000 1.0
C      1  0.4589690000000  0.5072010000000  0.5214040000000 1.0
C      1  0.5071170000000  0.5066590000000  0.5332260000000 1.0
C      1  0.5363730000000  0.5061920000000  0.5032040000000 1.0
C      1  0.5147580000000  0.5062360000000  0.4672430000000 1.0
C      1  0.5510700000000  0.4514350000000  0.4469070000000 1.0
C      1  0.4677140000000  0.4478320000000  0.4311380000000 1.0
C      1  0.4259870000000  0.4497250000000  0.5085850000000 1.0
C      1  0.4880750000000  0.4531900000000  0.5727570000000 1.0
C      1  0.5662320000000  0.4517360000000  0.5321230000000 1.0
C      1  0.5231530000000  0.4552950000000  0.4299500000000 1.0
C      1  0.4410440000000  0.4557360000000  0.4534560000000 1.0
C      1  0.4380110000000  0.4556960000000  0.5420700000000 1.0
C      1  0.5234420000000  0.4590910000000  0.5686010000000 1.0
C      1  0.5729460000000  0.4585770000000  0.4977320000000 1.0
C      1  0.5467090000000  0.4799000000000  0.4837110000000 1.0
C      1  0.4955820000000  0.4813400000000  0.4533960000000 1.0
C      1  0.4541250000000  0.4811010000000  0.4888810000000 1.0
C      1  0.4735050000000  0.4823000000000  0.5394940000000 1.0
C      1  0.5297460000000  0.4801160000000  0.5390790000000 1.0
C      1  0.4632830000000  0.5316140000000  0.4170850000000 1.0
C      1  0.4105480000000  0.5306180000000  0.5109330000000 1.0
C      1  0.4838520000000  0.5321400000000  0.5902290000000 1.0
C      1  0.5798630000000  0.5317700000000  0.5438830000000 1.0
C      1  0.5662730000000  0.5305570000000  0.4375220000000 1.0
C      1  0.4518530000000  0.5563400000000  0.5164270000000 1.0
C      1  0.5000430000000  0.5547730000000  0.5503030000000 1.0
C      1  0.5467670000000  0.5535040000000  0.5159590000000 1.0
C      1  0.5297160000000  0.5528850000000  0.4607900000000 1.0
C      1  0.4716680000000  0.5527280000000  0.4604740000000 1.0
C      1  0.4324690000000  0.4907170000000  0.5494240000000 1.0
C      1  0.5247430000000  0.4941720000000  0.5781900000000 1.0
C      1  0.5824230000000  0.4935710000000  0.5008290000000 1.0
C      1  0.5246610000000  0.4909110000000  0.4240560000000 1.0
C      1  0.4396070000000  0.4919300000000  0.4517220000000 1.0
C      1  0.5247450000000  0.4272870000000  0.4886030000000 1.0
C      1  0.4977760000000  0.4280130000000  0.4717730000000 1.0
C      1  0.4725450000000  0.4279840000000  0.4919970000000 1.0
C      1  0.4841670000000  0.4280460000000  0.5235320000000 1.0
C      1  0.5179250000000  0.4274230000000  0.5204890000000 1.0
C      1  0.5003780000000  0.5732430000000  0.5262740000000 1.0
C      1  0.5244720000000  0.5716390000000  0.5081000000000 1.0
C      1  0.5152660000000  0.5710130000000  0.4797040000000 1.0
C      1  0.4852410000000  0.5714400000000  0.4796640000000 1.0
C      1  0.4746880000000  0.5752450000000  0.5088160000000 1.0
C      1  0.5402930000000  0.5236970000000  0.4227970000000 1.0
C      1  0.4410890000000  0.5245600000000  0.4364250000000 1.0
C      1  0.4221870000000  0.5239930000000  0.5390670000000 1.0
C      1  0.5134040000000  0.5262490000000  0.5870930000000 1.0
C      1  0.5865490000000  0.5259060000000  0.5148620000000 1.0
C      1  0.4822660000000  0.5253400000000  0.5405190000000 1.0
C      1  0.5336360000000  0.5244160000000  0.5298100000000 1.0
C      1  0.5388330000000  0.5246030000000  0.4772320000000 1.0
C      1  0.4861430000000  0.5218820000000  0.4575900000000 1.0
C      1  0.4584920000000  0.5271920000000  0.4963070000000 1.0
C      1  0.5819900000000  0.5074650000000  0.4493090000000 1.0
C      1  0.4783070000000  0.5083940000000  0.4034380000000 1.0
C      1  0.4055660000000  0.5081130000000  0.4909000000000 1.0
C      1  0.4650710000000  0.5085410000000  0.5902350000000 1.0
C      1  0.5734780000000  0.5080260000000  0.5617250000000 1.0
C      1  0.4961460000000  0.4407260000000  0.4428810000000 1.0
C      1  0.4446680000000  0.4404830000000  0.4844410000000 1.0
C      1  0.4687400000000  0.4415400000000  0.5482540000000 1.0
C      1  0.5379760000000  0.4391690000000  0.5422760000000 1.0
C      1  0.5515340000000  0.4389560000000  0.4763710000000 1.0
C      1  0.5605330000000  0.4926820000000  0.5249600000000 1.0
C      1  0.5429250000000  0.4924470000000  0.4506890000000 1.0
C      1  0.4679840000000  0.4889300000000  0.4390370000000 1.0
C      1  0.4330120000000  0.4901020000000  0.5168300000000 1.0
C      1  0.4950430000000  0.4938140000000  0.5648830000000 1.0
C      1  0.4316560000000  0.5139160000000  0.4758480000000 1.0
C      1  0.4553870000000  0.5135330000000  0.5624540000000 1.0
C      1  0.5437480000000  0.5138710000000  0.5609030000000 1.0
C      1  0.5721520000000  0.5135530000000  0.4774430000000 1.0
C      1  0.4999880000000  0.5124890000000  0.4256100000000 1.0
C      1  0.4820290000000  0.5527390000000  0.4295290000000 1.0
C      1  0.4260010000000  0.5535860000000  0.4968790000000 1.0
C      1  0.4743040000000  0.5539000000000  0.5700980000000 1.0
C      1  0.5581010000000  0.5540770000000  0.5464560000000 1.0
C      1  0.5624150000000  0.5537350000000  0.4585660000000 1.0
C      1  0.5296320000000  0.5467700000000  0.5651370000000 1.0
C      1  0.5712550000000  0.5464740000000  0.4923520000000 1.0
C      1  0.5149580000000  0.5446040000000  0.4314960000000 1.0
C      1  0.4388380000000  0.5460410000000  0.4643470000000 1.0
C      1  0.4469900000000  0.5462490000000  0.5492650000000 1.0
C      1  0.5188860000000  0.4646360000000  0.4704110000000 1.0
C      1  0.4772360000000  0.4646220000000  0.4720130000000 1.0
C      1  0.4655810000000  0.4642210000000  0.5120200000000 1.0
C      1  0.5004150000000  0.4653600000000  0.5345960000000 1.0
C      1  0.5334830000000  0.4648110000000  0.5094080000000 1.0
C      1  0.4876170000000  0.5354100000000  0.5096570000000 1.0
C      1  0.5031200000000  0.4943520000000  0.4996310000000 1.0
C      1  0.4995620000000  0.4590600000000  0.4999440000000 1.0
END
