TITL C-862500-986-293 98.7273315325301 125000 -722.850890094542 0 0 119 (C1) n - 1
REM
REM in /home/nfs/bkarasulu/CARBON/AIRSS/Generating-Clusters/TERSOFF/Higher-Symm/FIRE-HFTN
REM
REM
REM
REM
REM
REM ./C.cell (b20cbc046b6831c77cfcea5457e17084)
REM AIRSS Version 0.9.1 bugfix July 2018 build 013d7b7c2542+ Fri, 06 Jul 2018 19:26:36 +0100
REM compiler GCC version 9.2.1 20190827 (Red Hat 9.2.1-1)
REM options -cpp -mtune=generic -march=x86-64 -g -O0 -fpre-include=/usr/include/finclude/math-vector-fortran.h
REM seed 887925117 -366244163 1125508331 241101005 -1765075211 597580196 562994587 1317478395 1617144712 -54039902 1846886146 -1664065213 1797192913 543007781 2029743285 2085579621 -1664989398 -1090213706 -1905660431 -1365037077 -855822042 2118658554 -963816961 -1926594904 -986223026 -1610993438 -547296826 -26371447 -1861297572 2046126920 1189094046 477060354 747998193
REM
CELL 1.54180   50.00000   50.00000   50.00000   90.00000   90.00000   90.00000
LATT -1
SFAC C  
C      1  0.4734150000000  0.4432230000000  0.3980870000000 1.0
C      1  0.4732530000000  0.5560910000000  0.3980040000000 1.0
C      1  0.4845920000000  0.5144530000000  0.4253070000000 1.0
C      1  0.4846320000000  0.4849410000000  0.4253180000000 1.0
C      1  0.5017820000000  0.5284470000000  0.4443470000000 1.0
C      1  0.5018100000000  0.4710070000000  0.4443980000000 1.0
C      1  0.4458490000000  0.4336800000000  0.5691310000000 1.0
C      1  0.4461100000000  0.5658780000000  0.5691150000000 1.0
C      1  0.4473070000000  0.5239090000000  0.4807870000000 1.0
C      1  0.4472730000000  0.4756710000000  0.4807930000000 1.0
C      1  0.6308970000000  0.4846000000000  0.5104600000000 1.0
C      1  0.6321960000000  0.5158290000000  0.5085870000000 1.0
C      1  0.4742540000000  0.5738050000000  0.5626660000000 1.0
C      1  0.4739800000000  0.4257340000000  0.5627140000000 1.0
C      1  0.4326750000000  0.4201540000000  0.5224960000000 1.0
C      1  0.4328500000000  0.5794790000000  0.5225080000000 1.0
C      1  0.5247770000000  0.3955460000000  0.5480290000000 1.0
C      1  0.5250390000000  0.6039910000000  0.5479260000000 1.0
C      1  0.5200260000000  0.5233850000000  0.4869720000000 1.0
C      1  0.5200070000000  0.4761060000000  0.4870020000000 1.0
C      1  0.5576070000000  0.4254900000000  0.5258990000000 1.0
C      1  0.5577920000000  0.5740160000000  0.5257290000000 1.0
C      1  0.4932200000000  0.5348710000000  0.4849290000000 1.0
C      1  0.4931870000000  0.4646480000000  0.4849770000000 1.0
C      1  0.6314480000000  0.4823060000000  0.5422920000000 1.0
C      1  0.6312000000000  0.5139810000000  0.5404690000000 1.0
C      1  0.4550800000000  0.5988980000000  0.5230860000000 1.0
C      1  0.4548540000000  0.4006780000000  0.5231070000000 1.0
C      1  0.4860960000000  0.5237430000000  0.5617260000000 1.0
C      1  0.4859410000000  0.4757990000000  0.5618660000000 1.0
C      1  0.4400970000000  0.5178960000000  0.5325020000000 1.0
C      1  0.4400420000000  0.4817250000000  0.5325120000000 1.0
C      1  0.4270510000000  0.5625000000000  0.5463000000000 1.0
C      1  0.4268580000000  0.4371300000000  0.5462880000000 1.0
C      1  0.5716120000000  0.4672950000000  0.4624500000000 1.0
C      1  0.5714810000000  0.5324130000000  0.4623210000000 1.0
C      1  0.4926460000000  0.5577430000000  0.4601680000000 1.0
C      1  0.4926710000000  0.4417330000000  0.4602830000000 1.0
C      1  0.5217020000000  0.4340710000000  0.4434260000000 1.0
C      1  0.5215440000000  0.5654510000000  0.4432460000000 1.0
C      1  0.4748110000000  0.4015960000000  0.5453910000000 1.0
C      1  0.4750740000000  0.5979420000000  0.5453380000000 1.0
C      1  0.5392730000000  0.4641370000000  0.4024310000000 1.0
C      1  0.5391520000000  0.5352870000000  0.4023320000000 1.0
C      1  0.5508340000000  0.4785490000000  0.4469970000000 1.0
C      1  0.5507610000000  0.5210060000000  0.4469360000000 1.0
C      1  0.4578440000000  0.4844630000000  0.5586230000000 1.0
C      1  0.4579360000000  0.5152280000000  0.5585860000000 1.0
C      1  0.4669270000000  0.4701920000000  0.4067070000000 1.0
C      1  0.4668210000000  0.5291340000000  0.4066970000000 1.0
C      1  0.5882000000000  0.4848830000000  0.5697510000000 1.0
C      1  0.5886550000000  0.5140650000000  0.5691120000000 1.0
C      1  0.5250210000000  0.5550720000000  0.5585010000000 1.0
C      1  0.5246990000000  0.4444740000000  0.5585080000000 1.0
C      1  0.3870630000000  0.5152440000000  0.5042540000000 1.0
C      1  0.3870260000000  0.4844810000000  0.5042500000000 1.0
C      1  0.4225240000000  0.4856030000000  0.4707290000000 1.0
C      1  0.4225430000000  0.5140400000000  0.4707200000000 1.0
C      1  0.5374920000000  0.5785250000000  0.5460910000000 1.0
C      1  0.5372220000000  0.4210180000000  0.5461810000000 1.0
C      1  0.5687590000000  0.5611500000000  0.4661280000000 1.0
C      1  0.5689420000000  0.4385500000000  0.4663190000000 1.0
C      1  0.5633260000000  0.4716230000000  0.5760980000000 1.0
C      1  0.5643350000000  0.5284000000000  0.5754300000000 1.0
C      1  0.5537340000000  0.4841220000000  0.4186300000000 1.0
C      1  0.5536690000000  0.5153780000000  0.4185850000000 1.0
C      1  0.4976020000000  0.6104780000000  0.5055890000000 1.0
C      1  0.4973820000000  0.3890250000000  0.5056780000000 1.0
C      1  0.4376120000000  0.5616200000000  0.5965470000000 1.0
C      1  0.4373000000000  0.4378870000000  0.5965550000000 1.0
C      1  0.6118250000000  0.4707820000000  0.4935840000000 1.0
C      1  0.6126750000000  0.5293440000000  0.4920400000000 1.0
C      1  0.5413710000000  0.5305770000000  0.5577660000000 1.0
C      1  0.5409150000000  0.4690260000000  0.5578700000000 1.0
C      1  0.4731050000000  0.5145640000000  0.4716690000000 1.0
C      1  0.4731050000000  0.4849540000000  0.4716600000000 1.0
C      1  0.6113100000000  0.5276330000000  0.5566440000000 1.0
C      1  0.6106130000000  0.4700490000000  0.5583510000000 1.0
C      1  0.3906950000000  0.4707840000000  0.5299340000000 1.0
C      1  0.3907700000000  0.5289410000000  0.5299390000000 1.0
C      1  0.5914890000000  0.4842040000000  0.4771470000000 1.0
C      1  0.5917100000000  0.5156870000000  0.4766620000000 1.0
C      1  0.4764070000000  0.5490420000000  0.5077300000000 1.0
C      1  0.4763440000000  0.4505290000000  0.5077880000000 1.0
C      1  0.4513670000000  0.5321140000000  0.5085400000000 1.0
C      1  0.4513300000000  0.4674920000000  0.5085620000000 1.0
C      1  0.5454030000000  0.5768240000000  0.4570760000000 1.0
C      1  0.5455870000000  0.4227950000000  0.4573320000000 1.0
C      1  0.5000280000000  0.4321420000000  0.3975570000000 1.0
C      1  0.4998450000000  0.5672020000000  0.3973950000000 1.0
C      1  0.4950160000000  0.4479770000000  0.5612590000000 1.0
C      1  0.4953000000000  0.5515350000000  0.5612180000000 1.0
C      1  0.4709290000000  0.3999340000000  0.4969230000000 1.0
C      1  0.4711100000000  0.5996230000000  0.4968730000000 1.0
C      1  0.5221190000000  0.4417700000000  0.4137610000000 1.0
C      1  0.5219620000000  0.5576630000000  0.4136100000000 1.0
C      1  0.5399490000000  0.4700930000000  0.5075760000000 1.0
C      1  0.5400080000000  0.5294130000000  0.5075060000000 1.0
C      1  0.5001310000000  0.3897390000000  0.5353900000000 1.0
C      1  0.5003840000000  0.6097770000000  0.5353000000000 1.0
C      1  0.5563000000000  0.4461180000000  0.5056450000000 1.0
C      1  0.5563870000000  0.5533670000000  0.5054980000000 1.0
C      1  0.4458230000000  0.4852800000000  0.3937760000000 1.0
C      1  0.4457640000000  0.5139640000000  0.3937840000000 1.0
C      1  0.4084930000000  0.4421240000000  0.4820720000000 1.0
C      1  0.4085780000000  0.5575560000000  0.4820850000000 1.0
C      1  0.4003160000000  0.4708700000000  0.4810710000000 1.0
C      1  0.4003720000000  0.5288220000000  0.4810750000000 1.0
C      1  0.5401530000000  0.4849800000000  0.5329460000000 1.0
C      1  0.5402730000000  0.5145570000000  0.5329060000000 1.0
C      1  0.4338620000000  0.5677670000000  0.4949570000000 1.0
C      1  0.4337610000000  0.4318790000000  0.4949590000000 1.0
C      1  0.5252580000000  0.4850140000000  0.4589240000000 1.0
C      1  0.5252290000000  0.5144770000000  0.4588970000000 1.0
C      1  0.4677290000000  0.5713920000000  0.4828250000000 1.0
C      1  0.4676450000000  0.4281770000000  0.4828810000000 1.0
C      1  0.4170970000000  0.5348040000000  0.5409710000000 1.0
C      1  0.4170030000000  0.4648540000000  0.5409590000000 1.0
C      1  0.5039740000000  0.4997290000000  0.5637520000000 1.0
END
