TITL C-862127-1500-827 3.83713431852469 125000 -941.890621820787 0 0 167 (C1) n - 1
REM
REM in /home/nfs/bkarasulu/CARBON/AIRSS/Generating-Clusters/TERSOFF/Higher-Symm/FIRE-HFTN
REM
REM
REM
REM
REM
REM ./C.cell (b20cbc046b6831c77cfcea5457e17084)
REM AIRSS Version 0.9.1 bugfix July 2018 build 013d7b7c2542+ Fri, 06 Jul 2018 19:26:36 +0100
REM compiler GCC version 9.2.1 20190827 (Red Hat 9.2.1-1)
REM options -cpp -mtune=generic -march=x86-64 -g -O0 -fpre-include=/usr/include/finclude/math-vector-fortran.h
REM seed 450331360 2115043075 -1484881619 771764599 -1582248722 -642588020 1286508531 107371470 1469851795 -1150865253 1360161759 1514666482 847481903 93765276 1261173514 -1966282621 -821360513 -2064969911 -2018726874 -301612839 1676782046 1124345626 -1387349214 -230044883 -587262175 -598365257 -1483044161 725618119 -1158464873 129900230 1052730778 -260027260 -1495860536
REM
CELL 1.54180   50.00000   50.00000   50.00000   90.00000   90.00000   90.00000
LATT -1
SFAC C  
C      1  0.6023760000000  0.4681540000000  0.4971510000000 1.0
C      1  0.6022830000000  0.5318500000000  0.4970780000000 1.0
C      1  0.5544160000000  0.5947910000000  0.4529210000000 1.0
C      1  0.5547790000000  0.4050060000000  0.4529500000000 1.0
C      1  0.5253280000000  0.4668970000000  0.6266700000000 1.0
C      1  0.5255180000000  0.5330970000000  0.6265480000000 1.0
C      1  0.4164670000000  0.4447270000000  0.4935980000000 1.0
C      1  0.4164490000000  0.5551050000000  0.4937070000000 1.0
C      1  0.4376770000000  0.4663880000000  0.4476770000000 1.0
C      1  0.4373180000000  0.5334730000000  0.4478970000000 1.0
C      1  0.4562940000000  0.5152830000000  0.4081500000000 1.0
C      1  0.4602500000000  0.4846490000000  0.4059850000000 1.0
C      1  0.5134520000000  0.5388680000000  0.6007490000000 1.0
C      1  0.5133320000000  0.4611160000000  0.6008410000000 1.0
C      1  0.5697670000000  0.5152630000000  0.5301360000000 1.0
C      1  0.5697830000000  0.4847040000000  0.5301420000000 1.0
C      1  0.4817440000000  0.6250750000000  0.4994960000000 1.0
C      1  0.4816960000000  0.3747680000000  0.4997460000000 1.0
C      1  0.5259420000000  0.4384310000000  0.5563490000000 1.0
C      1  0.5259780000000  0.5616200000000  0.5562710000000 1.0
C      1  0.5754480000000  0.6366750000000  0.5061410000000 1.0
C      1  0.5753900000000  0.3633130000000  0.5063100000000 1.0
C      1  0.5716110000000  0.6116080000000  0.5200950000000 1.0
C      1  0.5715750000000  0.3883980000000  0.5202370000000 1.0
C      1  0.4929530000000  0.5165920000000  0.5316950000000 1.0
C      1  0.4929680000000  0.4832120000000  0.5317080000000 1.0
C      1  0.5606540000000  0.4427770000000  0.5017610000000 1.0
C      1  0.5605160000000  0.5571150000000  0.5017600000000 1.0
C      1  0.5879470000000  0.4656190000000  0.4299980000000 1.0
C      1  0.5878120000000  0.5343160000000  0.4299470000000 1.0
C      1  0.4649090000000  0.5628060000000  0.4200790000000 1.0
C      1  0.4646730000000  0.4367850000000  0.4203210000000 1.0
C      1  0.5504220000000  0.5772170000000  0.5479720000000 1.0
C      1  0.5503990000000  0.4228460000000  0.5480630000000 1.0
C      1  0.4238300000000  0.4850520000000  0.4709850000000 1.0
C      1  0.4238000000000  0.5147290000000  0.4712840000000 1.0
C      1  0.5113770000000  0.4403250000000  0.5056520000000 1.0
C      1  0.5112460000000  0.5594650000000  0.5055410000000 1.0
C      1  0.5912820000000  0.5372950000000  0.5269300000000 1.0
C      1  0.5913290000000  0.4627040000000  0.5270100000000 1.0
C      1  0.5825250000000  0.5654350000000  0.5366190000000 1.0
C      1  0.5825250000000  0.4345750000000  0.5367150000000 1.0
C      1  0.4128070000000  0.5174320000000  0.4308570000000 1.0
C      1  0.4136270000000  0.4824440000000  0.4303290000000 1.0
C      1  0.4145530000000  0.5728620000000  0.5206970000000 1.0
C      1  0.4145400000000  0.4270220000000  0.5206760000000 1.0
C      1  0.4178050000000  0.5264920000000  0.5846430000000 1.0
C      1  0.4177630000000  0.4734600000000  0.5846620000000 1.0
C      1  0.4824300000000  0.5824210000000  0.5250020000000 1.0
C      1  0.4823590000000  0.4175710000000  0.5250440000000 1.0
C      1  0.4989340000000  0.4846070000000  0.5664310000000 1.0
C      1  0.4989930000000  0.5153210000000  0.5664820000000 1.0
C      1  0.4974840000000  0.3926490000000  0.5161070000000 1.0
C      1  0.4975240000000  0.6073060000000  0.5159760000000 1.0
C      1  0.5020640000000  0.4038970000000  0.4713730000000 1.0
C      1  0.5021800000000  0.5959310000000  0.4712060000000 1.0
C      1  0.5320390000000  0.5145680000000  0.5001280000000 1.0
C      1  0.5320760000000  0.4852620000000  0.5001500000000 1.0
C      1  0.5796540000000  0.5154090000000  0.4827450000000 1.0
C      1  0.5797280000000  0.4845400000000  0.4827710000000 1.0
C      1  0.6050370000000  0.5545310000000  0.4779890000000 1.0
C      1  0.6051940000000  0.4454710000000  0.4780650000000 1.0
C      1  0.4481750000000  0.5212820000000  0.4865270000000 1.0
C      1  0.4481910000000  0.4786170000000  0.4863870000000 1.0
C      1  0.5299400000000  0.4584020000000  0.5771830000000 1.0
C      1  0.5299980000000  0.5416020000000  0.5770500000000 1.0
C      1  0.3917030000000  0.5305880000000  0.4493200000000 1.0
C      1  0.3922860000000  0.4687920000000  0.4485260000000 1.0
C      1  0.4743960000000  0.4855400000000  0.4744700000000 1.0
C      1  0.4742840000000  0.5145030000000  0.4744410000000 1.0
C      1  0.4679640000000  0.4672900000000  0.5739560000000 1.0
C      1  0.4680240000000  0.5326510000000  0.5739700000000 1.0
C      1  0.5818400000000  0.5711620000000  0.4867700000000 1.0
C      1  0.5820470000000  0.4287790000000  0.4868240000000 1.0
C      1  0.4582190000000  0.6082000000000  0.4584730000000 1.0
C      1  0.4580730000000  0.3914430000000  0.4587090000000 1.0
C      1  0.5717560000000  0.5137070000000  0.6157030000000 1.0
C      1  0.5723660000000  0.4847870000000  0.6167240000000 1.0
C      1  0.5499240000000  0.5704910000000  0.4381440000000 1.0
C      1  0.5501520000000  0.4293210000000  0.4382330000000 1.0
C      1  0.4667050000000  0.4367270000000  0.4985190000000 1.0
C      1  0.4666630000000  0.5632600000000  0.4985430000000 1.0
C      1  0.5539510000000  0.5304100000000  0.6312520000000 1.0
C      1  0.5537940000000  0.4683950000000  0.6316950000000 1.0
C      1  0.6097530000000  0.4524640000000  0.4491830000000 1.0
C      1  0.6095990000000  0.5475220000000  0.4491110000000 1.0
C      1  0.4539750000000  0.4067910000000  0.5302120000000 1.0
C      1  0.4539880000000  0.5931310000000  0.5300680000000 1.0
C      1  0.4542730000000  0.4242580000000  0.5837430000000 1.0
C      1  0.4543230000000  0.5757290000000  0.5837090000000 1.0
C      1  0.4338450000000  0.3991380000000  0.5077690000000 1.0
C      1  0.4338750000000  0.6006370000000  0.5075480000000 1.0
C      1  0.4149720000000  0.4394350000000  0.5495390000000 1.0
C      1  0.4150270000000  0.5604670000000  0.5495690000000 1.0
C      1  0.4048260000000  0.5305540000000  0.5564510000000 1.0
C      1  0.4048370000000  0.4693660000000  0.5564370000000 1.0
C      1  0.4821380000000  0.4182390000000  0.5774690000000 1.0
C      1  0.4821770000000  0.5817860000000  0.5774140000000 1.0
C      1  0.3991560000000  0.4665870000000  0.4788260000000 1.0
C      1  0.3990640000000  0.5330110000000  0.4794050000000 1.0
C      1  0.4672540000000  0.4705620000000  0.5428500000000 1.0
C      1  0.4672720000000  0.5292550000000  0.5428890000000 1.0
C      1  0.5713740000000  0.4839020000000  0.4504630000000 1.0
C      1  0.5712440000000  0.5160440000000  0.4504090000000 1.0
C      1  0.4439040000000  0.5437770000000  0.5034310000000 1.0
C      1  0.4438940000000  0.4561680000000  0.5033510000000 1.0
C      1  0.4229060000000  0.4166220000000  0.4808190000000 1.0
C      1  0.4228820000000  0.5830930000000  0.4805440000000 1.0
C      1  0.5589240000000  0.4731600000000  0.5024460000000 1.0
C      1  0.5588540000000  0.5267350000000  0.5024420000000 1.0
C      1  0.4845920000000  0.4579770000000  0.5983450000000 1.0
C      1  0.4847030000000  0.5419770000000  0.5983240000000 1.0
C      1  0.5035790000000  0.4311550000000  0.4794410000000 1.0
C      1  0.5034900000000  0.5686700000000  0.4793250000000 1.0
C      1  0.4366380000000  0.5893220000000  0.4540790000000 1.0
C      1  0.4364520000000  0.4102950000000  0.4543150000000 1.0
C      1  0.4434260000000  0.4698660000000  0.5283540000000 1.0
C      1  0.4434430000000  0.5300410000000  0.5284140000000 1.0
C      1  0.4631420000000  0.4464860000000  0.4638970000000 1.0
C      1  0.4627830000000  0.5535090000000  0.4639480000000 1.0
C      1  0.5210110000000  0.6174750000000  0.5308920000000 1.0
C      1  0.5209800000000  0.3825580000000  0.5310690000000 1.0
C      1  0.5071220000000  0.5508750000000  0.4586560000000 1.0
C      1  0.5074070000000  0.4489660000000  0.4588210000000 1.0
C      1  0.4859750000000  0.6010300000000  0.4474190000000 1.0
C      1  0.4857960000000  0.3986760000000  0.4476880000000 1.0
C      1  0.5369530000000  0.5710920000000  0.5087970000000 1.0
C      1  0.5371290000000  0.4287300000000  0.5087840000000 1.0
C      1  0.5467380000000  0.6036280000000  0.5337720000000 1.0
C      1  0.5467020000000  0.3964250000000  0.5338850000000 1.0
C      1  0.4962590000000  0.4269350000000  0.5527090000000 1.0
C      1  0.4962980000000  0.5730930000000  0.5526540000000 1.0
C      1  0.5919540000000  0.5905660000000  0.5226110000000 1.0
C      1  0.5919430000000  0.4094170000000  0.5227480000000 1.0
C      1  0.4567480000000  0.6168860000000  0.4872040000000 1.0
C      1  0.4566540000000  0.3828420000000  0.4874710000000 1.0
C      1  0.4399800000000  0.5510350000000  0.5739690000000 1.0
C      1  0.4398950000000  0.4489140000000  0.5739520000000 1.0
C      1  0.5181880000000  0.5622620000000  0.4120200000000 1.0
C      1  0.5180510000000  0.4374030000000  0.4125090000000 1.0
C      1  0.4718220000000  0.5348170000000  0.4231910000000 1.0
C      1  0.4720810000000  0.4645530000000  0.4236700000000 1.0
C      1  0.5723960000000  0.4398300000000  0.4223470000000 1.0
C      1  0.5722370000000  0.5600730000000  0.4223090000000 1.0
C      1  0.4200650000000  0.5146510000000  0.5369120000000 1.0
C      1  0.4200560000000  0.4852640000000  0.5368920000000 1.0
C      1  0.5748640000000  0.4044380000000  0.4731810000000 1.0
C      1  0.5745420000000  0.5954540000000  0.4731070000000 1.0
C      1  0.5667030000000  0.4843610000000  0.4087320000000 1.0
C      1  0.5666680000000  0.5154180000000  0.4086690000000 1.0
C      1  0.4852040000000  0.4679650000000  0.4516930000000 1.0
C      1  0.4847170000000  0.5321350000000  0.4515550000000 1.0
C      1  0.5353540000000  0.5305350000000  0.4110590000000 1.0
C      1  0.5353310000000  0.4690690000000  0.4112600000000 1.0
C      1  0.5101180000000  0.4699370000000  0.5112400000000 1.0
C      1  0.5100220000000  0.5298550000000  0.5111490000000 1.0
C      1  0.5426990000000  0.5220230000000  0.4424820000000 1.0
C      1  0.5428800000000  0.4777490000000  0.4426450000000 1.0
C      1  0.5332520000000  0.5483260000000  0.4490130000000 1.0
C      1  0.5335750000000  0.4514470000000  0.4493110000000 1.0
C      1  0.4886760000000  0.4199910000000  0.4239330000000 1.0
C      1  0.4888880000000  0.5795380000000  0.4237230000000 1.0
C      1  0.4253710000000  0.5192630000000  0.4014140000000 1.0
C      1  0.4277510000000  0.4852420000000  0.4013990000000 1.0
C      1  0.4388380000000  0.4277750000000  0.4312340000000 1.0
C      1  0.4390550000000  0.5718620000000  0.4309810000000 1.0
C      1  0.4257450000000  0.4999760000000  0.5958330000000 1.0
END
