TITL C-862133-5440-1331 -8.37619360596463e-05 125000 -198.059055366236 0 0 35 (C3) n - 1
REM
REM in /home/nfs/bkarasulu/CARBON/AIRSS/Generating-Clusters/TERSOFF/Higher-Symm/FIRE-HFTN
REM
REM
REM
REM
REM
REM ./C.cell (b20cbc046b6831c77cfcea5457e17084)
REM AIRSS Version 0.9.1 bugfix July 2018 build 013d7b7c2542+ Fri, 06 Jul 2018 19:26:36 +0100
REM compiler GCC version 9.2.1 20190827 (Red Hat 9.2.1-1)
REM options -cpp -mtune=generic -march=x86-64 -g -O0 -fpre-include=/usr/include/finclude/math-vector-fortran.h
REM seed -661091300 338688406 1429385050 73470480 2072579980 1420361235 -142950640 -1819150109 1527376576 -1297124960 346834633 221947991 -556654559 285351890 -1225200852 -911418367 -2123127756 -1410481201 51362153 -1963861372 47579284 458910575 -95475548 -531492239 168741357 -847979650 -1334206164 1778065836 -775669482 97877988 1156508583 1206831459 -232434353
REM
CELL 1.54180   50.00000   50.00000   50.00000   90.00000   90.00000   90.00000
LATT -1
SFAC C  
C      1  0.4501990000000  0.4521760000000  0.4916670000000 1.0
C      1  0.4501990000000  0.5321370000000  0.4628310000000 1.0
C      1  0.4501990000000  0.5171290000000  0.5464970000000 1.0
C      1  0.5391870000000  0.5385180000000  0.5114220000000 1.0
C      1  0.5391870000000  0.4718570000000  0.5277270000000 1.0
C      1  0.5391870000000  0.4910670000000  0.4618450000000 1.0
C      1  0.4476360000000  0.4790980000000  0.4805320000000 1.0
C      1  0.4476360000000  0.5283190000000  0.4917130000000 1.0
C      1  0.4476370000000  0.4940250000000  0.5287490000000 1.0
C      1  0.5610190000000  0.5199900000000  0.5060230000000 1.0
C      1  0.5610190000000  0.4857960000000  0.5143810000000 1.0
C      1  0.5610190000000  0.4956550000000  0.4805890000000 1.0
C      1  0.5218490000000  0.4677870000000  0.4649590000000 1.0
C      1  0.5218490000000  0.5474600000000  0.4897040000000 1.0
C      1  0.5218490000000  0.4861940000000  0.5463310000000 1.0
C      1  0.5331580000000  0.5531970000000  0.4635640000000 1.0
C      1  0.5331580000000  0.5059640000000  0.5643690000000 1.0
C      1  0.5331570000000  0.4422810000000  0.4730620000000 1.0
C      1  0.4751950000000  0.4897830000000  0.4695330000000 1.0
C      1  0.4751950000000  0.5325010000000  0.5064670000000 1.0
C      1  0.4751950000000  0.4791570000000  0.5249940000000 1.0
C      1  0.4935600000000  0.5520760000000  0.4945970000000 1.0
C      1  0.4935600000000  0.4796490000000  0.5478810000000 1.0
C      1  0.4935600000000  0.4697170000000  0.4585150000000 1.0
C      1  0.5297070000000  0.5366650000000  0.4401230000000 1.0
C      1  0.5297070000000  0.5345300000000  0.5617720000000 1.0
C      1  0.5297070000000  0.4302460000000  0.4990990000000 1.0
C      1  0.4678690000000  0.5368170000000  0.5351640000000 1.0
C      1  0.4678690000000  0.4521470000000  0.5143840000000 1.0
C      1  0.4678690000000  0.5124780000000  0.4514470000000 1.0
C      1  0.5359270000000  0.4431690000000  0.5241900000000 1.0
C      1  0.5359270000000  0.5084740000000  0.4387690000000 1.0
C      1  0.5359270000000  0.5497980000000  0.5380350000000 1.0
C      1  0.4815530000000  0.5004810000000  0.5003310000000 1.0
C      1  0.4381350000000  0.5004810000000  0.5003310000000 1.0
END
