TITL C-862502-1143-122 0.000125467147583735 125000 -1017.53432785899 0 0 185 (D2) n - 1
REM
REM in /home/nfs/bkarasulu/CARBON/AIRSS/Generating-Clusters/TERSOFF/Higher-Symm/FIRE-HFTN
REM
REM
REM
REM
REM
REM ./C.cell (b20cbc046b6831c77cfcea5457e17084)
REM AIRSS Version 0.9.1 bugfix July 2018 build 013d7b7c2542+ Fri, 06 Jul 2018 19:26:36 +0100
REM compiler GCC version 9.2.1 20190827 (Red Hat 9.2.1-1)
REM options -cpp -mtune=generic -march=x86-64 -g -O0 -fpre-include=/usr/include/finclude/math-vector-fortran.h
REM seed -408335874 946734448 846193081 529790942 448799681 -1663695604 614000282 -18304385 -768630023 148033341 -1119501887 -1360617183 -1183730077 1155611948 1451622484 1269182074 -2135880779 -1467741349 1069129579 -306000611 320744975 -1950142229 -1989851393 -244898823 -2023405852 -762406573 704707844 -1982698869 1198490672 -776621136 1466091395 834017781 420867356
REM
CELL 1.54180   50.00000   50.00000   50.00000   90.00000   90.00000   90.00000
LATT -1
SFAC C  
C      1  0.4585150000000  0.4730190000000  0.5342990000000 1.0
C      1  0.5412690000000  0.5273620000000  0.5342990000000 1.0
C      1  0.5412690000000  0.4730190000000  0.4652590000000 1.0
C      1  0.4585150000000  0.5273620000000  0.4652590000000 1.0
C      1  0.5571960000000  0.5298200000000  0.4078850000000 1.0
C      1  0.4425880000000  0.4705610000000  0.4078850000000 1.0
C      1  0.4425880000000  0.5298200000000  0.5916730000000 1.0
C      1  0.5571960000000  0.4705610000000  0.5916730000000 1.0
C      1  0.5395210000000  0.4848950000000  0.4354740000000 1.0
C      1  0.4602630000000  0.5154860000000  0.4354740000000 1.0
C      1  0.4602630000000  0.4848950000000  0.5640840000000 1.0
C      1  0.5395210000000  0.5154860000000  0.5640840000000 1.0
C      1  0.4962820000000  0.5683090000000  0.5949750000000 1.0
C      1  0.5035020000000  0.4320730000000  0.5949750000000 1.0
C      1  0.5035020000000  0.5683090000000  0.4045820000000 1.0
C      1  0.4962810000000  0.4320730000000  0.4045820000000 1.0
C      1  0.4199270000000  0.5580580000000  0.4877600000000 1.0
C      1  0.5798560000000  0.4423230000000  0.4877600000000 1.0
C      1  0.5798560000000  0.5580580000000  0.5117970000000 1.0
C      1  0.4199270000000  0.4423240000000  0.5117980000000 1.0
C      1  0.5908990000000  0.4686700000000  0.5494780000000 1.0
C      1  0.4088850000000  0.5317110000000  0.5494780000000 1.0
C      1  0.4088850000000  0.4686700000000  0.4500800000000 1.0
C      1  0.5908980000000  0.5317110000000  0.4500790000000 1.0
C      1  0.5154690000000  0.5229000000000  0.4424080000000 1.0
C      1  0.4843140000000  0.4774810000000  0.4424080000000 1.0
C      1  0.4843140000000  0.5229010000000  0.5571490000000 1.0
C      1  0.5154690000000  0.4774810000000  0.5571490000000 1.0
C      1  0.5690270000000  0.5731310000000  0.4380450000000 1.0
C      1  0.4307560000000  0.4272510000000  0.4380460000000 1.0
C      1  0.4307570000000  0.5731310000000  0.5615120000000 1.0
C      1  0.5690270000000  0.4272510000000  0.5615120000000 1.0
C      1  0.4799670000000  0.4742310000000  0.6058210000000 1.0
C      1  0.5198170000000  0.5261510000000  0.6058210000000 1.0
C      1  0.5198160000000  0.4742310000000  0.3937370000000 1.0
C      1  0.4799670000000  0.5261500000000  0.3937370000000 1.0
C      1  0.5274340000000  0.4417480000000  0.5039020000000 1.0
C      1  0.4723490000000  0.5586340000000  0.5039020000000 1.0
C      1  0.4723490000000  0.4417480000000  0.4956560000000 1.0
C      1  0.5274340000000  0.5586340000000  0.4956560000000 1.0
C      1  0.4307680000000  0.4386780000000  0.5628130000000 1.0
C      1  0.5690160000000  0.5617040000000  0.5628120000000 1.0
C      1  0.5690150000000  0.4386770000000  0.4367450000000 1.0
C      1  0.4307680000000  0.5617040000000  0.4367450000000 1.0
C      1  0.5539380000000  0.5228670000000  0.5946460000000 1.0
C      1  0.4458460000000  0.4775150000000  0.5946460000000 1.0
C      1  0.4458460000000  0.5228670000000  0.4049120000000 1.0
C      1  0.5539380000000  0.4775150000000  0.4049120000000 1.0
C      1  0.5646500000000  0.4989920000000  0.5617960000000 1.0
C      1  0.4351330000000  0.5013900000000  0.5617960000000 1.0
C      1  0.4351330000000  0.4989920000000  0.4377620000000 1.0
C      1  0.5646500000000  0.5013900000000  0.4377620000000 1.0
C      1  0.5865100000000  0.5664260000000  0.5398200000000 1.0
C      1  0.4132740000000  0.4339550000000  0.5398200000000 1.0
C      1  0.4132740000000  0.5664260000000  0.4597380000000 1.0
C      1  0.5865100000000  0.4339550000000  0.4597370000000 1.0
C      1  0.4861250000000  0.4704370000000  0.5725140000000 1.0
C      1  0.5136590000000  0.5299450000000  0.5725140000000 1.0
C      1  0.5136590000000  0.4704370000000  0.4270440000000 1.0
C      1  0.4861240000000  0.5299450000000  0.4270440000000 1.0
C      1  0.3791780000000  0.5145720000000  0.4974500000000 1.0
C      1  0.6206060000000  0.4858100000000  0.4974500000000 1.0
C      1  0.6206060000000  0.5145720000000  0.5021080000000 1.0
C      1  0.3791780000000  0.4858100000000  0.5021080000000 1.0
C      1  0.5758290000000  0.5190990000000  0.5266820000000 1.0
C      1  0.4239550000000  0.4812830000000  0.5266820000000 1.0
C      1  0.4239550000000  0.5190990000000  0.4728760000000 1.0
C      1  0.5758290000000  0.4812830000000  0.4728760000000 1.0
C      1  0.4214840000000  0.5132680000000  0.5238990000000 1.0
C      1  0.5783000000000  0.4871130000000  0.5238990000000 1.0
C      1  0.5783000000000  0.5132680000000  0.4756580000000 1.0
C      1  0.4214840000000  0.4871130000000  0.4756580000000 1.0
C      1  0.5233630000000  0.5038660000000  0.4720620000000 1.0
C      1  0.4764210000000  0.4965150000000  0.4720620000000 1.0
C      1  0.4764210000000  0.5038660000000  0.5274950000000 1.0
C      1  0.5233630000000  0.4965150000000  0.5274950000000 1.0
C      1  0.4915420000000  0.5410890000000  0.6064030000000 1.0
C      1  0.5082420000000  0.4592920000000  0.6064030000000 1.0
C      1  0.5082410000000  0.5410890000000  0.3931550000000 1.0
C      1  0.4915420000000  0.4592920000000  0.3931550000000 1.0
C      1  0.4246500000000  0.5450200000000  0.5715850000000 1.0
C      1  0.5751330000000  0.4553620000000  0.5715850000000 1.0
C      1  0.5751330000000  0.5450200000000  0.4279720000000 1.0
C      1  0.4246500000000  0.4553620000000  0.4279730000000 1.0
C      1  0.4470630000000  0.5449540000000  0.5038270000000 1.0
C      1  0.5527210000000  0.4554270000000  0.5038260000000 1.0
C      1  0.5527210000000  0.5449540000000  0.4957310000000 1.0
C      1  0.4470630000000  0.4554270000000  0.4957310000000 1.0
C      1  0.4774090000000  0.5714250000000  0.5727290000000 1.0
C      1  0.5223740000000  0.4289570000000  0.5727290000000 1.0
C      1  0.5223740000000  0.5714250000000  0.4268290000000 1.0
C      1  0.4774090000000  0.4289570000000  0.4268290000000 1.0
C      1  0.4572460000000  0.4420460000000  0.5503250000000 1.0
C      1  0.5425380000000  0.5583350000000  0.5503250000000 1.0
C      1  0.5425370000000  0.4420460000000  0.4492320000000 1.0
C      1  0.4572460000000  0.5583350000000  0.4492320000000 1.0
C      1  0.4749820000000  0.4055870000000  0.5693190000000 1.0
C      1  0.5248020000000  0.5947950000000  0.5693190000000 1.0
C      1  0.5248010000000  0.4055870000000  0.4302390000000 1.0
C      1  0.4749820000000  0.5947950000000  0.4302380000000 1.0
C      1  0.5279820000000  0.5288280000000  0.4126370000000 1.0
C      1  0.4718010000000  0.4715530000000  0.4126370000000 1.0
C      1  0.4718010000000  0.5288280000000  0.5869210000000 1.0
C      1  0.5279830000000  0.4715530000000  0.5869210000000 1.0
C      1  0.5918640000000  0.4893600000000  0.4439990000000 1.0
C      1  0.4079190000000  0.5110210000000  0.4439990000000 1.0
C      1  0.4079190000000  0.4893600000000  0.5555590000000 1.0
C      1  0.5918640000000  0.5110220000000  0.5555590000000 1.0
C      1  0.5160910000000  0.5483870000000  0.5194050000000 1.0
C      1  0.4836920000000  0.4519940000000  0.5194050000000 1.0
C      1  0.4836920000000  0.5483870000000  0.4801520000000 1.0
C      1  0.5160910000000  0.4519940000000  0.4801520000000 1.0
C      1  0.5000130000000  0.6028070000000  0.5563600000000 1.0
C      1  0.4997710000000  0.3975740000000  0.5563600000000 1.0
C      1  0.4997710000000  0.6028070000000  0.4431980000000 1.0
C      1  0.5000130000000  0.3975740000000  0.4431980000000 1.0
C      1  0.5660250000000  0.5041280000000  0.3958850000000 1.0
C      1  0.4337580000000  0.4962530000000  0.3958850000000 1.0
C      1  0.4337580000000  0.5041280000000  0.6036730000000 1.0
C      1  0.5660260000000  0.4962530000000  0.6036720000000 1.0
C      1  0.5762210000000  0.5441370000000  0.5856180000000 1.0
C      1  0.4235630000000  0.4562440000000  0.5856180000000 1.0
C      1  0.4235630000000  0.5441370000000  0.4139400000000 1.0
C      1  0.5762210000000  0.4562440000000  0.4139390000000 1.0
C      1  0.5228820000000  0.4359360000000  0.4223790000000 1.0
C      1  0.4769010000000  0.5644450000000  0.4223790000000 1.0
C      1  0.4769010000000  0.4359360000000  0.5771790000000 1.0
C      1  0.5228830000000  0.5644460000000  0.5771780000000 1.0
C      1  0.5232520000000  0.4032360000000  0.4841430000000 1.0
C      1  0.4765310000000  0.5971460000000  0.4841430000000 1.0
C      1  0.4765310000000  0.4032360000000  0.5154150000000 1.0
C      1  0.5232520000000  0.5971460000000  0.5154150000000 1.0
C      1  0.4048940000000  0.4694300000000  0.5003830000000 1.0
C      1  0.5948890000000  0.5309520000000  0.5003820000000 1.0
C      1  0.5948890000000  0.4694300000000  0.4991750000000 1.0
C      1  0.4048940000000  0.5309520000000  0.4991750000000 1.0
C      1  0.5465820000000  0.5862160000000  0.4259950000000 1.0
C      1  0.4532010000000  0.4141650000000  0.4259950000000 1.0
C      1  0.4532010000000  0.5862160000000  0.5735630000000 1.0
C      1  0.5465820000000  0.4141660000000  0.5735630000000 1.0
C      1  0.5563300000000  0.5886800000000  0.4909320000000 1.0
C      1  0.4434530000000  0.4117010000000  0.4909320000000 1.0
C      1  0.4434530000000  0.5886810000000  0.5086250000000 1.0
C      1  0.5563300000000  0.4117010000000  0.5086250000000 1.0
C      1  0.4046820000000  0.5516750000000  0.5262340000000 1.0
C      1  0.5951020000000  0.4487070000000  0.5262340000000 1.0
C      1  0.5951020000000  0.5516750000000  0.4733230000000 1.0
C      1  0.4046810000000  0.4487070000000  0.4733240000000 1.0
C      1  0.4514350000000  0.6000120000000  0.4470460000000 1.0
C      1  0.5483480000000  0.4003700000000  0.4470460000000 1.0
C      1  0.5483480000000  0.6000120000000  0.5525120000000 1.0
C      1  0.4514350000000  0.4003700000000  0.5525120000000 1.0
C      1  0.5999960000000  0.4705030000000  0.4234850000000 1.0
C      1  0.3997880000000  0.5298790000000  0.4234850000000 1.0
C      1  0.3997880000000  0.4705030000000  0.5760730000000 1.0
C      1  0.5999960000000  0.5298790000000  0.5760720000000 1.0
C      1  0.5494390000000  0.4171780000000  0.4734080000000 1.0
C      1  0.4503440000000  0.5832040000000  0.4734080000000 1.0
C      1  0.4503440000000  0.4171780000000  0.5261500000000 1.0
C      1  0.5494390000000  0.5832040000000  0.5261500000000 1.0
C      1  0.5091120000000  0.5626030000000  0.4725060000000 1.0
C      1  0.4906710000000  0.4377780000000  0.4725060000000 1.0
C      1  0.4906710000000  0.5626030000000  0.5270520000000 1.0
C      1  0.5091120000000  0.4377780000000  0.5270520000000 1.0
C      1  0.4492790000000  0.5142970000000  0.5110040000000 1.0
C      1  0.5505040000000  0.4860840000000  0.5110040000000 1.0
C      1  0.5505040000000  0.5142970000000  0.4885530000000 1.0
C      1  0.4492790000000  0.4860840000000  0.4885540000000 1.0
C      1  0.4732840000000  0.3962640000000  0.4861320000000 1.0
C      1  0.5265000000000  0.6041170000000  0.4861320000000 1.0
C      1  0.5265000000000  0.3962650000000  0.5134260000000 1.0
C      1  0.4732840000000  0.6041170000000  0.5134260000000 1.0
C      1  0.4961000000000  0.5930720000000  0.5288460000000 1.0
C      1  0.5036830000000  0.4073100000000  0.5288460000000 1.0
C      1  0.5036830000000  0.5930720000000  0.4707110000000 1.0
C      1  0.4961000000000  0.4073100000000  0.4707110000000 1.0
C      1  0.4240740000000  0.4246270000000  0.4687550000000 1.0
C      1  0.5757090000000  0.5757540000000  0.4687550000000 1.0
C      1  0.5757100000000  0.4246270000000  0.5308020000000 1.0
C      1  0.4240740000000  0.5757540000000  0.5308020000000 1.0
C      1  0.4806830000000  0.5526850000000  0.5512890000000 1.0
C      1  0.5191010000000  0.4476970000000  0.5512890000000 1.0
C      1  0.5191010000000  0.5526850000000  0.4482680000000 1.0
C      1  0.4806830000000  0.4476970000000  0.4482680000000 1.0
C      1  0.4998920000000  0.5001910000000  0.4997790000000 1.0
END
