TITL C-862130-1496-35 -0.0524605466111258 125000 -929.088835483359 0 0 184 (C1) n - 1
REM
REM in /home/nfs/bkarasulu/CARBON/AIRSS/Generating-Clusters/TERSOFF/Higher-Symm/FIRE-HFTN
REM
REM
REM
REM
REM
REM ./C.cell (b20cbc046b6831c77cfcea5457e17084)
REM AIRSS Version 0.9.1 bugfix July 2018 build 013d7b7c2542+ Fri, 06 Jul 2018 19:26:36 +0100
REM compiler GCC version 9.2.1 20190827 (Red Hat 9.2.1-1)
REM options -cpp -mtune=generic -march=x86-64 -g -O0 -fpre-include=/usr/include/finclude/math-vector-fortran.h
REM seed 1678855765 1324211846 -2131596547 469538611 -860176714 -610723888 330926166 766251681 -1677637857 -512439714 558764951 880211778 -1957052045 -835645733 -1235484737 868037072 14668777 9892520 -1689905400 1048395137 1724307144 -356838685 106116319 1361892560 1117532475 1164727509 -864020388 -1072400812 -1541076931 -2073864395 1753650356 485504655 -1583423377
REM
CELL 1.54180   50.00000   50.00000   50.00000   90.00000   90.00000   90.00000
LATT -1
SFAC C  
C      1  0.4541110000000  0.5166140000000  0.6067590000000 1.0
C      1  0.5172470000000  0.6035990000000  0.4560000000000 1.0
C      1  0.6017880000000  0.4564960000000  0.5141160000000 1.0
C      1  0.4564010000000  0.4824100000000  0.3973110000000 1.0
C      1  0.5484670000000  0.5233310000000  0.3869910000000 1.0
C      1  0.5422080000000  0.4820630000000  0.6047820000000 1.0
C      1  0.5071430000000  0.4008620000000  0.5538660000000 1.0
C      1  0.4830600000000  0.6004940000000  0.5413260000000 1.0
C      1  0.4857080000000  0.3929810000000  0.4614460000000 1.0
C      1  0.6086700000000  0.5435890000000  0.4828360000000 1.0
C      1  0.4006530000000  0.4586320000000  0.4856940000000 1.0
C      1  0.3946460000000  0.5412500000000  0.5169910000000 1.0
C      1  0.4562390000000  0.6028190000000  0.5163140000000 1.0
C      1  0.5143410000000  0.4581310000000  0.6015800000000 1.0
C      1  0.6050970000000  0.5187590000000  0.4557810000000 1.0
C      1  0.4600670000000  0.3938110000000  0.4876850000000 1.0
C      1  0.5522340000000  0.4004080000000  0.5080410000000 1.0
C      1  0.5425730000000  0.6021790000000  0.4834980000000 1.0
C      1  0.5196600000000  0.5449690000000  0.3944210000000 1.0
C      1  0.4823170000000  0.5399900000000  0.6030710000000 1.0
C      1  0.4843140000000  0.4589450000000  0.3997700000000 1.0
C      1  0.6068780000000  0.4803250000000  0.5416070000000 1.0
C      1  0.3969040000000  0.4810580000000  0.4569320000000 1.0
C      1  0.3882650000000  0.5204370000000  0.5470410000000 1.0
C      1  0.5881670000000  0.4950820000000  0.4694030000000 1.0
C      1  0.4943930000000  0.4787380000000  0.5899710000000 1.0
C      1  0.4712820000000  0.5998360000000  0.4863260000000 1.0
C      1  0.6064320000000  0.5119690000000  0.5294770000000 1.0
C      1  0.3955690000000  0.4917020000000  0.5284560000000 1.0
C      1  0.4011450000000  0.5103920000000  0.4706390000000 1.0
C      1  0.5014350000000  0.5239790000000  0.4085670000000 1.0
C      1  0.5071070000000  0.4764160000000  0.4117760000000 1.0
C      1  0.5020310000000  0.5199000000000  0.5911380000000 1.0
C      1  0.4756240000000  0.3998110000000  0.5154400000000 1.0
C      1  0.5275120000000  0.5877080000000  0.5073310000000 1.0
C      1  0.5238650000000  0.3894450000000  0.5037660000000 1.0
C      1  0.5901260000000  0.4806040000000  0.4970020000000 1.0
C      1  0.4988100000000  0.5904860000000  0.4767980000000 1.0
C      1  0.4662160000000  0.4856100000000  0.6002980000000 1.0
C      1  0.5973290000000  0.5215530000000  0.5013420000000 1.0
C      1  0.4083160000000  0.5197020000000  0.4999110000000 1.0
C      1  0.4127780000000  0.4784330000000  0.5059690000000 1.0
C      1  0.5020070000000  0.3905330000000  0.5255500000000 1.0
C      1  0.5135270000000  0.3978190000000  0.4771290000000 1.0
C      1  0.4991930000000  0.5871400000000  0.5185460000000 1.0
C      1  0.4736660000000  0.5109380000000  0.3995950000000 1.0
C      1  0.5299590000000  0.5135590000000  0.6012140000000 1.0
C      1  0.5274820000000  0.4947630000000  0.3939140000000 1.0
C      1  0.5586180000000  0.4609910000000  0.5200680000000 1.0
C      1  0.4544720000000  0.5186760000000  0.5648720000000 1.0
C      1  0.5265670000000  0.5622890000000  0.4626300000000 1.0
C      1  0.5673220000000  0.5387990000000  0.4775900000000 1.0
C      1  0.4458220000000  0.4612140000000  0.4865940000000 1.0
C      1  0.4384220000000  0.5386160000000  0.5222400000000 1.0
C      1  0.4654150000000  0.4816640000000  0.4428280000000 1.0
C      1  0.5455460000000  0.5292090000000  0.4290470000000 1.0
C      1  0.5435900000000  0.4821640000000  0.5628260000000 1.0
C      1  0.5163410000000  0.4398760000000  0.5413730000000 1.0
C      1  0.4796360000000  0.5585170000000  0.5422270000000 1.0
C      1  0.4861930000000  0.4374660000000  0.4665230000000 1.0
C      1  0.5637350000000  0.5243560000000  0.4519500000000 1.0
C      1  0.4582430000000  0.5612070000000  0.5216330000000 1.0
C      1  0.5193650000000  0.4645160000000  0.5593770000000 1.0
C      1  0.5648840000000  0.4809000000000  0.5418710000000 1.0
C      1  0.4423340000000  0.4805560000000  0.4626000000000 1.0
C      1  0.4313220000000  0.5230800000000  0.5472870000000 1.0
C      1  0.4645170000000  0.4381170000000  0.4875940000000 1.0
C      1  0.5376100000000  0.4376230000000  0.5208390000000 1.0
C      1  0.5493350000000  0.5608200000000  0.4818670000000 1.0
C      1  0.5224940000000  0.5463890000000  0.4371710000000 1.0
C      1  0.4783660000000  0.5354580000000  0.5601980000000 1.0
C      1  0.4869170000000  0.4594830000000  0.4458250000000 1.0
C      1  0.4631470000000  0.5819430000000  0.5613010000000 1.0
C      1  0.5887350000000  0.5590330000000  0.4613780000000 1.0
C      1  0.5611160000000  0.4620130000000  0.5837290000000 1.0
C      1  0.4671670000000  0.4176880000000  0.4476780000000 1.0
C      1  0.5399890000000  0.5849300000000  0.4425230000000 1.0
C      1  0.5329860000000  0.4164970000000  0.5584950000000 1.0
C      1  0.5811310000000  0.4396320000000  0.5344160000000 1.0
C      1  0.4145180000000  0.5600020000000  0.5365020000000 1.0
C      1  0.4233370000000  0.4436030000000  0.4685740000000 1.0
C      1  0.5639280000000  0.5455410000000  0.4084640000000 1.0
C      1  0.4476550000000  0.4638670000000  0.4226560000000 1.0
C      1  0.4353170000000  0.5376920000000  0.5864580000000 1.0
C      1  0.4626100000000  0.5558980000000  0.5825130000000 1.0
C      1  0.5849860000000  0.4610590000000  0.5598220000000 1.0
C      1  0.5665530000000  0.5851080000000  0.4636280000000 1.0
C      1  0.4689270000000  0.4395740000000  0.4231540000000 1.0
C      1  0.5344860000000  0.4424060000000  0.5805190000000 1.0
C      1  0.5380460000000  0.5675160000000  0.4135800000000 1.0
C      1  0.5882820000000  0.5407100000000  0.4333460000000 1.0
C      1  0.4102360000000  0.5413790000000  0.5637190000000 1.0
C      1  0.4217570000000  0.4627690000000  0.4426040000000 1.0
C      1  0.5573650000000  0.4153500000000  0.5340960000000 1.0
C      1  0.4432990000000  0.4178160000000  0.4684500000000 1.0
C      1  0.4390410000000  0.5830270000000  0.5372910000000 1.0
C      1  0.5674790000000  0.4120480000000  0.4843060000000 1.0
C      1  0.3953760000000  0.4981060000000  0.5745670000000 1.0
C      1  0.4926350000000  0.5650190000000  0.4073640000000 1.0
C      1  0.5693310000000  0.5894220000000  0.5052210000000 1.0
C      1  0.4356000000000  0.4111510000000  0.5089860000000 1.0
C      1  0.4326730000000  0.5857940000000  0.4946920000000 1.0
C      1  0.4064400000000  0.5027170000000  0.4297340000000 1.0
C      1  0.5926990000000  0.4990750000000  0.4278910000000 1.0
C      1  0.5943430000000  0.5014060000000  0.5681950000000 1.0
C      1  0.4865160000000  0.4377830000000  0.5948920000000 1.0
C      1  0.5080490000000  0.5614380000000  0.5896740000000 1.0
C      1  0.5085590000000  0.4344800000000  0.4102540000000 1.0
C      1  0.5726340000000  0.4986730000000  0.3976760000000 1.0
C      1  0.4053340000000  0.5625000000000  0.4922010000000 1.0
C      1  0.4839260000000  0.4118540000000  0.5698090000000 1.0
C      1  0.5691170000000  0.5024910000000  0.5914260000000 1.0
C      1  0.4331700000000  0.5065500000000  0.4097080000000 1.0
C      1  0.4265760000000  0.4971480000000  0.5930820000000 1.0
C      1  0.4089290000000  0.4356190000000  0.5097700000000 1.0
C      1  0.5901140000000  0.4401450000000  0.4857500000000 1.0
C      1  0.5941110000000  0.5633950000000  0.5082120000000 1.0
C      1  0.4921160000000  0.5877990000000  0.4354450000000 1.0
C      1  0.5082100000000  0.5845470000000  0.5617970000000 1.0
C      1  0.5072690000000  0.4109740000000  0.4377410000000 1.0
C      1  0.4702410000000  0.5107820000000  0.4333070000000 1.0
C      1  0.5114340000000  0.4266680000000  0.4764680000000 1.0
C      1  0.4440820000000  0.4757880000000  0.5132620000000 1.0
C      1  0.4612790000000  0.4891490000000  0.5664020000000 1.0
C      1  0.5356420000000  0.5111960000000  0.5676140000000 1.0
C      1  0.5386000000000  0.5022560000000  0.4218990000000 1.0
C      1  0.5074470000000  0.5573750000000  0.5282680000000 1.0
C      1  0.4883460000000  0.4452320000000  0.5317370000000 1.0
C      1  0.5017910000000  0.5605530000000  0.4813060000000 1.0
C      1  0.4407960000000  0.5202760000000  0.4968090000000 1.0
C      1  0.5580980000000  0.4778470000000  0.4929760000000 1.0
C      1  0.5655680000000  0.5178930000000  0.5024950000000 1.0
C      1  0.4734800000000  0.4286220000000  0.5137750000000 1.0
C      1  0.5148380000000  0.4706220000000  0.4422640000000 1.0
C      1  0.4334830000000  0.5088660000000  0.4681520000000 1.0
C      1  0.4694300000000  0.5656530000000  0.4936200000000 1.0
C      1  0.5375340000000  0.5577580000000  0.5109420000000 1.0
C      1  0.5286090000000  0.4424360000000  0.4926630000000 1.0
C      1  0.5040180000000  0.5151370000000  0.5581070000000 1.0
C      1  0.4966890000000  0.5281040000000  0.4391990000000 1.0
C      1  0.4933840000000  0.4857540000000  0.5586810000000 1.0
C      1  0.4224060000000  0.4964040000000  0.5426560000000 1.0
C      1  0.5538550000000  0.4963820000000  0.4647870000000 1.0
C      1  0.5727660000000  0.5091290000000  0.5330030000000 1.0
C      1  0.5906870000000  0.5353520000000  0.5667630000000 1.0
C      1  0.5390500000000  0.5515690000000  0.5786540000000 1.0
C      1  0.5654030000000  0.5751550000000  0.5370370000000 1.0
C      1  0.5818100000000  0.4690230000000  0.4339400000000 1.0
C      1  0.4128630000000  0.5364190000000  0.4321410000000 1.0
C      1  0.4073020000000  0.4647180000000  0.5674020000000 1.0
C      1  0.5412500000000  0.4419300000000  0.4110030000000 1.0
C      1  0.4650790000000  0.5525980000000  0.4220910000000 1.0
C      1  0.4580550000000  0.4496730000000  0.5801880000000 1.0
C      1  0.5547460000000  0.4317180000000  0.4615980000000 1.0
C      1  0.4381350000000  0.5733880000000  0.4641120000000 1.0
C      1  0.4351960000000  0.4236530000000  0.5402630000000 1.0
C      1  0.5894180000000  0.5538710000000  0.5406860000000 1.0
C      1  0.5391720000000  0.5711370000000  0.5534270000000 1.0
C      1  0.5650500000000  0.5363390000000  0.5881870000000 1.0
C      1  0.5741330000000  0.4564660000000  0.4607140000000 1.0
C      1  0.4092510000000  0.4432060000000  0.5429440000000 1.0
C      1  0.4137790000000  0.5532650000000  0.4590720000000 1.0
C      1  0.5386040000000  0.4241600000000  0.4377170000000 1.0
C      1  0.4591960000000  0.4290570000000  0.5572810000000 1.0
C      1  0.4646110000000  0.5704540000000  0.4481970000000 1.0
C      1  0.5633180000000  0.4655750000000  0.4088600000000 1.0
C      1  0.4320370000000  0.4653260000000  0.5867690000000 1.0
C      1  0.4394250000000  0.5392800000000  0.4111640000000 1.0
C      1  0.5237310000000  0.5118780000000  0.4787530000000 1.0
C      1  0.4704960000000  0.5335120000000  0.4881820000000 1.0
C      1  0.4802580000000  0.5165900000000  0.5115080000000 1.0
C      1  0.4731920000000  0.4876080000000  0.5094220000000 1.0
C      1  0.5325330000000  0.5230860000000  0.5067940000000 1.0
C      1  0.5278150000000  0.4712640000000  0.4927960000000 1.0
C      1  0.4992620000000  0.5295130000000  0.4694760000000 1.0
C      1  0.4912080000000  0.4746420000000  0.5291460000000 1.0
C      1  0.5183260000000  0.4798140000000  0.5190550000000 1.0
C      1  0.4822350000000  0.4814590000000  0.4813080000000 1.0
C      1  0.5101970000000  0.4831820000000  0.4718990000000 1.0
C      1  0.5051840000000  0.5251800000000  0.5266400000000 1.0
C      1  0.5425900000000  0.4820630000000  0.4413940000000 1.0
C      1  0.4423490000000  0.4742180000000  0.5463620000000 1.0
C      1  0.4492300000000  0.5241780000000  0.4490470000000 1.0
C      1  0.5538820000000  0.5255310000000  0.5492300000000 1.0
END
