TITL C-862128-1543-52 0.00372157870740109 125000 -202.463529719079 0 0 38 (C1) n - 1
REM
REM in /home/nfs/bkarasulu/CARBON/AIRSS/Generating-Clusters/TERSOFF/Higher-Symm/FIRE-HFTN
REM
REM
REM
REM
REM
REM ./C.cell (b20cbc046b6831c77cfcea5457e17084)
REM AIRSS Version 0.9.1 bugfix July 2018 build 013d7b7c2542+ Fri, 06 Jul 2018 19:26:36 +0100
REM compiler GCC version 9.2.1 20190827 (Red Hat 9.2.1-1)
REM options -cpp -mtune=generic -march=x86-64 -g -O0 -fpre-include=/usr/include/finclude/math-vector-fortran.h
REM seed 1937012808 538963098 279171926 1860030258 -1736334017 180114468 1978011373 -2084652348 1484953614 558365001 -1486269073 1051831810 -713162126 -1472097367 -776122274 1862204437 1771351882 -1990367886 2055969409 -1515601299 -1946484223 1492348437 -1939838401 -856029108 421470406 -464691743 -570828534 1313260577 977730272 -1676320554 -841996792 1393298114 -2019094008
REM
CELL 1.54180   50.00000   50.00000   50.00000   90.00000   90.00000   90.00000
LATT -1
SFAC C  
C      1  0.4697170000000  0.5322750000000  0.5520910000000 1.0
C      1  0.4599420000000  0.4805800000000  0.5515260000000 1.0
C      1  0.5062170000000  0.4556010000000  0.5515360000000 1.0
C      1  0.5444900000000  0.4915670000000  0.5517750000000 1.0
C      1  0.5217750000000  0.5392250000000  0.5519470000000 1.0
C      1  0.4567980000000  0.4643180000000  0.4719740000000 1.0
C      1  0.5205600000000  0.4471470000000  0.4714220000000 1.0
C      1  0.5564990000000  0.5036800000000  0.4716420000000 1.0
C      1  0.5144530000000  0.5539270000000  0.4696080000000 1.0
C      1  0.4544100000000  0.5305700000000  0.4719220000000 1.0
C      1  0.4624780000000  0.4595320000000  0.5004040000000 1.0
C      1  0.5274060000000  0.4509950000000  0.4998160000000 1.0
C      1  0.5553800000000  0.5105540000000  0.5008570000000 1.0
C      1  0.5076130000000  0.5545180000000  0.4989370000000 1.0
C      1  0.4509850000000  0.5239780000000  0.5004260000000 1.0
C      1  0.5189430000000  0.4689140000000  0.4512100000000 1.0
C      1  0.5347210000000  0.5078180000000  0.4509520000000 1.0
C      1  0.5026760000000  0.5348950000000  0.4491520000000 1.0
C      1  0.4670950000000  0.5127470000000  0.4517800000000 1.0
C      1  0.4770680000000  0.4719580000000  0.4517000000000 1.0
C      1  0.5295790000000  0.4786610000000  0.5097590000000 1.0
C      1  0.5300830000000  0.5205050000000  0.5137790000000 1.0
C      1  0.4903550000000  0.5338630000000  0.5111440000000 1.0
C      1  0.4651900000000  0.5002630000000  0.5101910000000 1.0
C      1  0.4895260000000  0.4660470000000  0.5098430000000 1.0
C      1  0.5277500000000  0.5487870000000  0.5230820000000 1.0
C      1  0.4640520000000  0.5409030000000  0.5235060000000 1.0
C      1  0.4503650000000  0.4776400000000  0.5229220000000 1.0
C      1  0.5066200000000  0.4452170000000  0.5228970000000 1.0
C      1  0.5547390000000  0.4879640000000  0.5235000000000 1.0
C      1  0.4794370000000  0.4613420000000  0.5629450000000 1.0
C      1  0.5302220000000  0.4683600000000  0.5633880000000 1.0
C      1  0.5403210000000  0.5187780000000  0.5631380000000 1.0
C      1  0.4948230000000  0.5427340000000  0.5638120000000 1.0
C      1  0.4573620000000  0.5076990000000  0.5632930000000 1.0
C      1  0.5060660000000  0.5085000000000  0.4816240000000 1.0
C      1  0.5006400000000  0.4994610000000  0.5105350000000 1.0
C      1  0.4996760000000  0.4990190000000  0.4537110000000 1.0
END
