TITL C-862133-5440-1337 -8.11581978610705 125000 -1029.69771398947 0 0 180 (C3) n - 1
REM
REM in /home/nfs/bkarasulu/CARBON/AIRSS/Generating-Clusters/TERSOFF/Higher-Symm/FIRE-HFTN
REM
REM
REM
REM
REM
REM ./C.cell (b20cbc046b6831c77cfcea5457e17084)
REM AIRSS Version 0.9.1 bugfix July 2018 build 013d7b7c2542+ Fri, 06 Jul 2018 19:26:36 +0100
REM compiler GCC version 9.2.1 20190827 (Red Hat 9.2.1-1)
REM options -cpp -mtune=generic -march=x86-64 -g -O0 -fpre-include=/usr/include/finclude/math-vector-fortran.h
REM seed -233044318 -1512912651 910322879 -9115762 -349994109 -2106621184 1398059237 -109501991 1926910071 -1280213056 -1685942831 1604017197 2077759876 1429240727 -1026180820 2108962386 -413987187 -235309469 1279825906 -651874005 -942466263 1782434348 -205811695 1915032268 -1401611361 -1683365373 956025848 2059548611 -1532157194 -594892422 393267772 -1453260209 -720593224
REM
CELL 1.54180   50.00000   50.00000   50.00000   90.00000   90.00000   90.00000
LATT -1
SFAC C  
C      1  0.4327080000000  0.4188810000000  0.5582980000000 1.0
C      1  0.4831590000000  0.4188810000000  0.4125740000000 1.0
C      1  0.5841340000000  0.4188820000000  0.5291280000000 1.0
C      1  0.4519680000000  0.5280680000000  0.4873570000000 1.0
C      1  0.5349640000000  0.5280690000000  0.4647250000000 1.0
C      1  0.5130660000000  0.5280690000000  0.5479180000000 1.0
C      1  0.4502900000000  0.5451470000000  0.5127040000000 1.0
C      1  0.5138530000000  0.5451480000000  0.4505980000000 1.0
C      1  0.5358560000000  0.5451480000000  0.5366980000000 1.0
C      1  0.4029570000000  0.4447340000000  0.5228190000000 1.0
C      1  0.5287600000000  0.4447350000000  0.4045480000000 1.0
C      1  0.5682840000000  0.4447350000000  0.5726330000000 1.0
C      1  0.5411040000000  0.3966070000000  0.4960410000000 1.0
C      1  0.4828780000000  0.3966060000000  0.5375760000000 1.0
C      1  0.4760210000000  0.3966060000000  0.4663830000000 1.0
C      1  0.5150270000000  0.4314520000000  0.4629520000000 1.0
C      1  0.5245720000000  0.4314520000000  0.5315380000000 1.0
C      1  0.4604020000000  0.4314520000000  0.5055110000000 1.0
C      1  0.4778350000000  0.4571100000000  0.6215890000000 1.0
C      1  0.4057840000000  0.4571100000000  0.4200090000000 1.0
C      1  0.6163820000000  0.4571110000000  0.4584010000000 1.0
C      1  0.6075120000000  0.5127360000000  0.4513000000000 1.0
C      1  0.4884190000000  0.5127360000000  0.6174580000000 1.0
C      1  0.4040690000000  0.5127350000000  0.4312420000000 1.0
C      1  0.5433360000000  0.4571630000000  0.5270320000000 1.0
C      1  0.4549220000000  0.4571630000000  0.5240140000000 1.0
C      1  0.5017420000000  0.4571630000000  0.4489540000000 1.0
C      1  0.4987960000000  0.4427560000000  0.4038390000000 1.0
C      1  0.5838800000000  0.4427560000000  0.5470380000000 1.0
C      1  0.4173250000000  0.4427550000000  0.5491230000000 1.0
C      1  0.4372760000000  0.5978440000000  0.4923230000000 1.0
C      1  0.5380100000000  0.5978450000000  0.4495190000000 1.0
C      1  0.5247120000000  0.5978450000000  0.5581590000000 1.0
C      1  0.4678720000000  0.6090060000000  0.4941490000000 1.0
C      1  0.5211300000000  0.6090060000000  0.4751030000000 1.0
C      1  0.5109960000000  0.6090060000000  0.5307490000000 1.0
C      1  0.5760440000000  0.4964990000000  0.5738370000000 1.0
C      1  0.3980330000000  0.4964980000000  0.5289370000000 1.0
C      1  0.5259230000000  0.4964990000000  0.3972250000000 1.0
C      1  0.6055410000000  0.5016600000000  0.4804680000000 1.0
C      1  0.4641450000000  0.5016590000000  0.6011670000000 1.0
C      1  0.4303150000000  0.5016590000000  0.4183650000000 1.0
C      1  0.5259300000000  0.5806650000000  0.4262190000000 1.0
C      1  0.5509300000000  0.5806650000000  0.5593470000000 1.0
C      1  0.4231380000000  0.5806640000000  0.5144340000000 1.0
C      1  0.3991930000000  0.5065890000000  0.4847860000000 1.0
C      1  0.5635790000000  0.5065900000000  0.4203050000000 1.0
C      1  0.5372280000000  0.5065900000000  0.5949090000000 1.0
C      1  0.6096920000000  0.5438570000000  0.4590100000000 1.0
C      1  0.4806510000000  0.5438560000000  0.6154920000000 1.0
C      1  0.4096550000000  0.5438560000000  0.4254980000000 1.0
C      1  0.4666500000000  0.5006120000000  0.5707750000000 1.0
C      1  0.4553820000000  0.5006120000000  0.4357300000000 1.0
C      1  0.5779680000000  0.5006130000000  0.4934950000000 1.0
C      1  0.3971510000000  0.5242750000000  0.5603960000000 1.0
C      1  0.4991190000000  0.5242760000000  0.3807330000000 1.0
C      1  0.6037290000000  0.5242770000000  0.5588710000000 1.0
C      1  0.4064890000000  0.5212250000000  0.4617410000000 1.0
C      1  0.5798880000000  0.5212260000000  0.4381470000000 1.0
C      1  0.5136220000000  0.5212260000000  0.6001120000000 1.0
C      1  0.4550710000000  0.4595010000000  0.4102130000000 1.0
C      1  0.6002230000000  0.4595020000000  0.5059830000000 1.0
C      1  0.4447070000000  0.4595010000000  0.5838040000000 1.0
C      1  0.6004740000000  0.4272370000000  0.4678370000000 1.0
C      1  0.4776180000000  0.4272360000000  0.6030940000000 1.0
C      1  0.4219090000000  0.4272350000000  0.4290690000000 1.0
C      1  0.4894690000000  0.4859130000000  0.6339010000000 1.0
C      1  0.3893040000000  0.4859120000000  0.4239290000000 1.0
C      1  0.6212280000000  0.4859140000000  0.4421700000000 1.0
C      1  0.4646040000000  0.5690400000000  0.5060120000000 1.0
C      1  0.5124910000000  0.5690410000000  0.4663400000000 1.0
C      1  0.5229040000000  0.5690410000000  0.5276480000000 1.0
C      1  0.4563780000000  0.4713940000000  0.4374520000000 1.0
C      1  0.5759800000000  0.4713950000000  0.4934970000000 1.0
C      1  0.4676430000000  0.4713940000000  0.5690520000000 1.0
C      1  0.5181330000000  0.4117080000000  0.5083210000000 1.0
C      1  0.4837280000000  0.4117080000000  0.5115420000000 1.0
C      1  0.4981410000000  0.4117080000000  0.4801370000000 1.0
C      1  0.4301930000000  0.5588310000000  0.4433090000000 1.0
C      1  0.5839990000000  0.5588320000000  0.4678920000000 1.0
C      1  0.4858070000000  0.5588310000000  0.5888000000000 1.0
C      1  0.5243190000000  0.4154780000000  0.4398120000000 1.0
C      1  0.5399650000000  0.4154780000000  0.5511540000000 1.0
C      1  0.4357170000000  0.4154770000000  0.5090330000000 1.0
C      1  0.4719440000000  0.4825200000000  0.4748060000000 1.0
C      1  0.5358470000000  0.4825210000000  0.4883000000000 1.0
C      1  0.4922090000000  0.4825200000000  0.5368950000000 1.0
C      1  0.4781490000000  0.5948300000000  0.5259670000000 1.0
C      1  0.4884370000000  0.5948300000000  0.4680940000000 1.0
C      1  0.5334120000000  0.5948300000000  0.5059400000000 1.0
C      1  0.4883120000000  0.5341630000000  0.4453810000000 1.0
C      1  0.5531450000000  0.5341630000000  0.5171880000000 1.0
C      1  0.4585420000000  0.5341630000000  0.5374320000000 1.0
C      1  0.5647190000000  0.5070190000000  0.5203330000000 1.0
C      1  0.4500320000000  0.5070180000000  0.5458820000000 1.0
C      1  0.4852490000000  0.5070190000000  0.4337850000000 1.0
C      1  0.3943630000000  0.5204620000000  0.5101290000000 1.0
C      1  0.5440460000000  0.5204640000000  0.4034510000000 1.0
C      1  0.5615900000000  0.5204640000000  0.5864190000000 1.0
C      1  0.4276290000000  0.5391630000000  0.4669480000000 1.0
C      1  0.5648090000000  0.5391640000000  0.4538510000000 1.0
C      1  0.5075620000000  0.5391630000000  0.5792010000000 1.0
C      1  0.4515710000000  0.4614890000000  0.4652010000000 1.0
C      1  0.5543520000000  0.4614900000000  0.4754580000000 1.0
C      1  0.4940780000000  0.4614900000000  0.5593410000000 1.0
C      1  0.5222570000000  0.5000470000000  0.4709860000000 1.0
C      1  0.5139980000000  0.5000470000000  0.5337830000000 1.0
C      1  0.4637440000000  0.5000470000000  0.4952320000000 1.0
C      1  0.4630340000000  0.5581030000000  0.4043320000000 1.0
C      1  0.6013340000000  0.5581040000000  0.5158210000000 1.0
C      1  0.4356310000000  0.5581030000000  0.5798470000000 1.0
C      1  0.6124860000000  0.5072200000000  0.5215110000000 1.0
C      1  0.4251270000000  0.5072190000000  0.5866600000000 1.0
C      1  0.4623860000000  0.5072190000000  0.3918280000000 1.0
C      1  0.5635570000000  0.5511840000000  0.5759550000000 1.0
C      1  0.4024430000000  0.5511830000000  0.5170650000000 1.0
C      1  0.5340000000000  0.5511840000000  0.4069810000000 1.0
C      1  0.4308070000000  0.5344850000000  0.5965900000000 1.0
C      1  0.4509470000000  0.5344850000000  0.3917820000000 1.0
C      1  0.6182460000000  0.5344860000000  0.5116280000000 1.0
C      1  0.4546500000000  0.4735510000000  0.6089320000000 1.0
C      1  0.4283370000000  0.4735510000000  0.4062590000000 1.0
C      1  0.6170140000000  0.4735520000000  0.4848080000000 1.0
C      1  0.5609300000000  0.4125980000000  0.4806970000000 1.0
C      1  0.4862530000000  0.4125980000000  0.5624180000000 1.0
C      1  0.4528190000000  0.4125970000000  0.4568850000000 1.0
C      1  0.5821540000000  0.5685700000000  0.4958770000000 1.0
C      1  0.4624930000000  0.5685690000000  0.5732100000000 1.0
C      1  0.4553510000000  0.5685690000000  0.4309140000000 1.0
C      1  0.5724740000000  0.4160440000000  0.4480760000000 1.0
C      1  0.5087320000000  0.4160440000000  0.5887260000000 1.0
C      1  0.4187960000000  0.4160430000000  0.4631990000000 1.0
C      1  0.4184400000000  0.4990620000000  0.5551400000000 1.0
C      1  0.4930270000000  0.4990630000000  0.4017970000000 1.0
C      1  0.5885330000000  0.4990630000000  0.5430630000000 1.0
C      1  0.5722120000000  0.5877620000000  0.5393820000000 1.0
C      1  0.4297880000000  0.5877610000000  0.5428470000000 1.0
C      1  0.4979990000000  0.5877620000000  0.4177720000000 1.0
C      1  0.4848420000000  0.5449260000000  0.5444470000000 1.0
C      1  0.4690860000000  0.5449260000000  0.4646500000000 1.0
C      1  0.5460710000000  0.5449260000000  0.4909030000000 1.0
C      1  0.3879980000000  0.4698100000000  0.5200870000000 1.0
C      1  0.5386050000000  0.4698110000000  0.3929600000000 1.0
C      1  0.5733970000000  0.4698110000000  0.5869530000000 1.0
C      1  0.5319830000000  0.5701310000000  0.4866850000000 1.0
C      1  0.4955380000000  0.5701300000000  0.5343560000000 1.0
C      1  0.4724770000000  0.5701300000000  0.4789590000000 1.0
C      1  0.4887580000000  0.5694820000000  0.3962790000000 1.0
C      1  0.5954450000000  0.5694830000000  0.5421250000000 1.0
C      1  0.4157960000000  0.5694820000000  0.5615960000000 1.0
C      1  0.5128260000000  0.4656170000000  0.5821090000000 1.0
C      1  0.4224790000000  0.4656160000000  0.4700530000000 1.0
C      1  0.5646960000000  0.4656170000000  0.4478380000000 1.0
C      1  0.5909010000000  0.4569590000000  0.4397670000000 1.0
C      1  0.5067130000000  0.4569580000000  0.6088390000000 1.0
C      1  0.4023870000000  0.4569580000000  0.4513940000000 1.0
C      1  0.5088440000000  0.5501370000000  0.3891950000000 1.0
C      1  0.5915380000000  0.5501370000000  0.5630620000000 1.0
C      1  0.3996170000000  0.5501360000000  0.5477440000000 1.0
C      1  0.4820320000000  0.4667310000000  0.3985010000000 1.0
C      1  0.5968850000000  0.4667320000000  0.5351890000000 1.0
C      1  0.4210830000000  0.4667310000000  0.5663100000000 1.0
C      1  0.5424700000000  0.4244620000000  0.5793780000000 1.0
C      1  0.4100230000000  0.4244610000000  0.4970910000000 1.0
C      1  0.5475090000000  0.4244620000000  0.4235310000000 1.0
C      1  0.4974370000000  0.4879310000000  0.4570110000000 1.0
C      1  0.5385110000000  0.4879310000000  0.5192750000000 1.0
C      1  0.4640520000000  0.4879300000000  0.5237140000000 1.0
C      1  0.4140740000000  0.4828990000000  0.4898860000000 1.0
C      1  0.5517220000000  0.4829000000000  0.4306430000000 1.0
C      1  0.5342040000000  0.4829000000000  0.5794710000000 1.0
C      1  0.4591120000000  0.4359070000000  0.4750870000000 1.0
C      1  0.5420200000000  0.4359080000000  0.4770460000000 1.0
C      1  0.4988690000000  0.4359070000000  0.5478670000000 1.0
C      1  0.4549810000000  0.4199820000000  0.4265070000000 1.0
C      1  0.5861580000000  0.4199830000000  0.4977580000000 1.0
C      1  0.4588630000000  0.4199820000000  0.5757350000000 1.0
C      1  0.4770420000000  0.5907600000000  0.4393320000000 1.0
C      1  0.5640180000000  0.5907610000000  0.5104530000000 1.0
C      1  0.4589380000000  0.5907600000000  0.5502160000000 1.0
END
