TITL C-862500-986-1188 0.155455701784783 125000 -1127.61996262754 0 0 192 (C3) n - 1
REM
REM in /home/nfs/bkarasulu/CARBON/AIRSS/Generating-Clusters/TERSOFF/Higher-Symm/FIRE-HFTN
REM
REM
REM
REM
REM
REM ./C.cell (b20cbc046b6831c77cfcea5457e17084)
REM AIRSS Version 0.9.1 bugfix July 2018 build 013d7b7c2542+ Fri, 06 Jul 2018 19:26:36 +0100
REM compiler GCC version 9.2.1 20190827 (Red Hat 9.2.1-1)
REM options -cpp -mtune=generic -march=x86-64 -g -O0 -fpre-include=/usr/include/finclude/math-vector-fortran.h
REM seed -2070869444 -573700807 688210455 -837368390 -96291252 -1550690589 -532277286 -285999612 -415008332 631789495 -213279396 1953134399 -1658856715 -1423974654 -307792497 -1562534857 1231579347 -1642173030 -1861710168 -374600451 1076443192 -448011289 -1137396487 700039826 -1159853068 1461770483 1500148631 1619308549 329801897 -565440419 -1556675107 143457281 -23925317
REM
CELL 1.54180   50.00000   50.00000   50.00000   90.00000   90.00000   90.00000
LATT -1
SFAC C  
C      1  0.4170500000000  0.4201150000000  0.4491960000000 1.0
C      1  0.4722920000000  0.6117800000000  0.4491970000000 1.0
C      1  0.6106580000000  0.4681070000000  0.4491950000000 1.0
C      1  0.4687360000000  0.5086000000000  0.4380190000000 1.0
C      1  0.5230790000000  0.5227750000000  0.4380190000000 1.0
C      1  0.5081840000000  0.4686260000000  0.4380190000000 1.0
C      1  0.4255390000000  0.5724630000000  0.5506860000000 1.0
C      1  0.5999860000000  0.5282540000000  0.5506850000000 1.0
C      1  0.4744760000000  0.3992830000000  0.5506840000000 1.0
C      1  0.4776870000000  0.6192940000000  0.5332200000000 1.0
C      1  0.6144680000000  0.4596770000000  0.5332180000000 1.0
C      1  0.4078450000000  0.4210290000000  0.5332190000000 1.0
C      1  0.3832750000000  0.4837040000000  0.5452730000000 1.0
C      1  0.5442500000000  0.6092340000000  0.5452730000000 1.0
C      1  0.5724750000000  0.4070610000000  0.5452720000000 1.0
C      1  0.5738540000000  0.4684890000000  0.4092850000000 1.0
C      1  0.4357830000000  0.4517960000000  0.4092850000000 1.0
C      1  0.4903620000000  0.5797160000000  0.4092860000000 1.0
C      1  0.4567580000000  0.5881710000000  0.4413210000000 1.0
C      1  0.5979790000000  0.4933640000000  0.4413190000000 1.0
C      1  0.4452630000000  0.4184660000000  0.4413200000000 1.0
C      1  0.4915460000000  0.5786840000000  0.5920630000000 1.0
C      1  0.5723700000000  0.4679790000000  0.5920620000000 1.0
C      1  0.4360850000000  0.4533360000000  0.5920620000000 1.0
C      1  0.4793890000000  0.5291060000000  0.4164140000000 1.0
C      1  0.5355120000000  0.5032970000000  0.4164140000000 1.0
C      1  0.4850990000000  0.4675980000000  0.4164140000000 1.0
C      1  0.5280230000000  0.4774860000000  0.5497250000000 1.0
C      1  0.4664910000000  0.4869880000000  0.5497250000000 1.0
C      1  0.5054860000000  0.5355250000000  0.5497250000000 1.0
C      1  0.4412910000000  0.5611730000000  0.4694990000000 1.0
C      1  0.5823310000000  0.5202570000000  0.4694980000000 1.0
C      1  0.4763780000000  0.4185710000000  0.4694980000000 1.0
C      1  0.5308160000000  0.6001040000000  0.4972520000000 1.0
C      1  0.5712840000000  0.4232610000000  0.4972510000000 1.0
C      1  0.3979000000000  0.4766360000000  0.4972520000000 1.0
C      1  0.5146270000000  0.4555610000000  0.5380110000000 1.0
C      1  0.4542020000000  0.5095520000000  0.5380120000000 1.0
C      1  0.5311720000000  0.5348860000000  0.5380120000000 1.0
C      1  0.4375180000000  0.5387330000000  0.4861770000000 1.0
C      1  0.5647850000000  0.5347440000000  0.4861760000000 1.0
C      1  0.4976970000000  0.4265230000000  0.4861760000000 1.0
C      1  0.5485300000000  0.4414540000000  0.5045660000000 1.0
C      1  0.4250330000000  0.4872440000000  0.5045670000000 1.0
C      1  0.5264370000000  0.5713010000000  0.5045670000000 1.0
C      1  0.5729970000000  0.4417790000000  0.4252060000000 1.0
C      1  0.4130800000000  0.4658940000000  0.4252070000000 1.0
C      1  0.5139220000000  0.5923290000000  0.4252070000000 1.0
C      1  0.3765900000000  0.4854120000000  0.5153410000000 1.0
C      1  0.5490720000000  0.6141700000000  0.5153410000000 1.0
C      1  0.5743380000000  0.4004170000000  0.5153400000000 1.0
C      1  0.4326230000000  0.5341320000000  0.5826860000000 1.0
C      1  0.5632490000000  0.5412840000000  0.5826860000000 1.0
C      1  0.5041290000000  0.4245820000000  0.5826850000000 1.0
C      1  0.4113030000000  0.5614100000000  0.4364960000000 1.0
C      1  0.5975310000000  0.5461090000000  0.4364960000000 1.0
C      1  0.4911660000000  0.3924820000000  0.4364950000000 1.0
C      1  0.4930910000000  0.6373800000000  0.5165120000000 1.0
C      1  0.6224290000000  0.4372930000000  0.5165100000000 1.0
C      1  0.3844800000000  0.4253270000000  0.5165110000000 1.0
C      1  0.4958160000000  0.4506740000000  0.5008040000000 1.0
C      1  0.4593740000000  0.5282860000000  0.5008050000000 1.0
C      1  0.5448090000000  0.5210400000000  0.5008040000000 1.0
C      1  0.4537170000000  0.4168640000000  0.5424170000000 1.0
C      1  0.4511440000000  0.5816500000000  0.5424180000000 1.0
C      1  0.5951390000000  0.5014860000000  0.5424170000000 1.0
C      1  0.4959530000000  0.5466710000000  0.6188900000000 1.0
C      1  0.5424430000000  0.4801680000000  0.6188890000000 1.0
C      1  0.4616050000000  0.4731590000000  0.6188890000000 1.0
C      1  0.5027720000000  0.6086500000000  0.4477860000000 1.0
C      1  0.5927070000000  0.4432740000000  0.4477850000000 1.0
C      1  0.4045200000000  0.4480760000000  0.4477860000000 1.0
C      1  0.4602410000000  0.4418320000000  0.4534750000000 1.0
C      1  0.4695040000000  0.5635170000000  0.4534760000000 1.0
C      1  0.5702550000000  0.4946520000000  0.4534750000000 1.0
C      1  0.5321980000000  0.4833070000000  0.3894310000000 1.0
C      1  0.4694430000000  0.4804630000000  0.3894310000000 1.0
C      1  0.4983580000000  0.5362320000000  0.3894310000000 1.0
C      1  0.5758300000000  0.4398990000000  0.5852760000000 1.0
C      1  0.4100370000000  0.4643790000000  0.5852770000000 1.0
C      1  0.5141340000000  0.5957200000000  0.5852770000000 1.0
C      1  0.5275380000000  0.4696520000000  0.5960480000000 1.0
C      1  0.4599500000000  0.4913250000000  0.5960480000000 1.0
C      1  0.5125140000000  0.5390220000000  0.5960480000000 1.0
C      1  0.5166870000000  0.4874690000000  0.5750120000000 1.0
C      1  0.4808050000000  0.4918140000000  0.5750130000000 1.0
C      1  0.5025080000000  0.5207160000000  0.5750130000000 1.0
C      1  0.5462570000000  0.3981800000000  0.5527230000000 1.0
C      1  0.3886930000000  0.5108500000000  0.5527250000000 1.0
C      1  0.5650500000000  0.5909700000000  0.5527240000000 1.0
C      1  0.4273230000000  0.5868770000000  0.4380120000000 1.0
C      1  0.6115750000000  0.5195020000000  0.4380100000000 1.0
C      1  0.4611010000000  0.3936220000000  0.4380100000000 1.0
C      1  0.6178210000000  0.4400330000000  0.4883000000000 1.0
C      1  0.3891560000000  0.4279470000000  0.4883010000000 1.0
C      1  0.4930220000000  0.6320200000000  0.4883020000000 1.0
C      1  0.4489690000000  0.4887540000000  0.4330660000000 1.0
C      1  0.5157750000000  0.5498180000000  0.4330660000000 1.0
C      1  0.5352550000000  0.4614300000000  0.4330650000000 1.0
C      1  0.5451590000000  0.5564980000000  0.4037770000000 1.0
C      1  0.5263480000000  0.4326420000000  0.4037760000000 1.0
C      1  0.4284920000000  0.5108610000000  0.4037770000000 1.0
C      1  0.5112090000000  0.3977190000000  0.4587600000000 1.0
C      1  0.4058180000000  0.5414340000000  0.4587610000000 1.0
C      1  0.5829730000000  0.5608480000000  0.4587600000000 1.0
C      1  0.5375320000000  0.4116090000000  0.4521490000000 1.0
C      1  0.4046850000000  0.5116920000000  0.4521500000000 1.0
C      1  0.5577830000000  0.5767000000000  0.4521500000000 1.0
C      1  0.4478340000000  0.5520250000000  0.6001900000000 1.0
C      1  0.5711390000000  0.5191630000000  0.6001900000000 1.0
C      1  0.4810270000000  0.4288090000000  0.6001900000000 1.0
C      1  0.5767550000000  0.6072180000000  0.5073340000000 1.0
C      1  0.5544760000000  0.3799190000000  0.5073320000000 1.0
C      1  0.3687690000000  0.5128630000000  0.5073340000000 1.0
C      1  0.4347140000000  0.4051730000000  0.4947370000000 1.0
C      1  0.4505210000000  0.6039530000000  0.4947380000000 1.0
C      1  0.6147650000000  0.4908740000000  0.4947370000000 1.0
C      1  0.5373530000000  0.5539710000000  0.5889170000000 1.0
C      1  0.5280650000000  0.4406650000000  0.5889170000000 1.0
C      1  0.4345830000000  0.5053620000000  0.5889170000000 1.0
C      1  0.4791330000000  0.4497790000000  0.6204670000000 1.0
C      1  0.4669420000000  0.5431820000000  0.6204670000000 1.0
C      1  0.5539270000000  0.5070380000000  0.6204670000000 1.0
C      1  0.5555540000000  0.4925370000000  0.5102840000000 1.0
C      1  0.4657610000000  0.4556200000000  0.5102840000000 1.0
C      1  0.4786860000000  0.5518420000000  0.5102840000000 1.0
C      1  0.5142820000000  0.4703700000000  0.4880830000000 1.0
C      1  0.4671980000000  0.5024470000000  0.4880830000000 1.0
C      1  0.5185200000000  0.5271840000000  0.4880830000000 1.0
C      1  0.5603740000000  0.4747340000000  0.3836500000000 1.0
C      1  0.4479300000000  0.4603480000000  0.3836510000000 1.0
C      1  0.4916940000000  0.5649200000000  0.3836510000000 1.0
C      1  0.5129960000000  0.5133050000000  0.4632760000000 1.0
C      1  0.5050240000000  0.4820930000000  0.4632760000000 1.0
C      1  0.4819800000000  0.5046020000000  0.4632760000000 1.0
C      1  0.5679120000000  0.4885270000000  0.5716470000000 1.0
C      1  0.4561090000000  0.4469230000000  0.5716470000000 1.0
C      1  0.4759800000000  0.5645490000000  0.5716480000000 1.0
C      1  0.5801720000000  0.4331190000000  0.5572980000000 1.0
C      1  0.4019940000000  0.4640090000000  0.5572990000000 1.0
C      1  0.5178350000000  0.6028700000000  0.5572990000000 1.0
C      1  0.4867440000000  0.5593720000000  0.5427180000000 1.0
C      1  0.5580460000000  0.4817930000000  0.5427180000000 1.0
C      1  0.4552100000000  0.4588340000000  0.5427180000000 1.0
C      1  0.5556150000000  0.4843140000000  0.4289470000000 1.0
C      1  0.4586070000000  0.4596800000000  0.4289480000000 1.0
C      1  0.4857770000000  0.5560080000000  0.4289480000000 1.0
C      1  0.5845790000000  0.4574170000000  0.5414220000000 1.0
C      1  0.4208330000000  0.4480440000000  0.5414230000000 1.0
C      1  0.4945890000000  0.5945380000000  0.5414230000000 1.0
C      1  0.4422500000000  0.4603470000000  0.4692790000000 1.0
C      1  0.4945350000000  0.5698400000000  0.4692800000000 1.0
C      1  0.5632160000000  0.4698130000000  0.4692790000000 1.0
C      1  0.5926740000000  0.4288340000000  0.4761210000000 1.0
C      1  0.3920310000000  0.4553250000000  0.4761210000000 1.0
C      1  0.5152940000000  0.6158410000000  0.4761220000000 1.0
C      1  0.5875370000000  0.4936230000000  0.5152870000000 1.0
C      1  0.4507090000000  0.4273790000000  0.5152870000000 1.0
C      1  0.4617540000000  0.5789970000000  0.5152880000000 1.0
C      1  0.4678170000000  0.6211900000000  0.4767630000000 1.0
C      1  0.6210450000000  0.4672760000000  0.4767610000000 1.0
C      1  0.4111370000000  0.4115340000000  0.4767620000000 1.0
C      1  0.4198340000000  0.5452660000000  0.5571400000000 1.0
C      1  0.5792850000000  0.5467920000000  0.5571400000000 1.0
C      1  0.5008810000000  0.4079400000000  0.5571390000000 1.0
C      1  0.5283650000000  0.5356670000000  0.3906740000000 1.0
C      1  0.5167050000000  0.4576020000000  0.3906740000000 1.0
C      1  0.4549290000000  0.5067330000000  0.3906740000000 1.0
C      1  0.6277900000000  0.4842280000000  0.5224390000000 1.0
C      1  0.4224470000000  0.3972160000000  0.5224390000000 1.0
C      1  0.4497640000000  0.6185550000000  0.5224400000000 1.0
C      1  0.5453410000000  0.4690670000000  0.4929090000000 1.0
C      1  0.4505400000000  0.4762000000000  0.4929090000000 1.0
C      1  0.5041190000000  0.5547330000000  0.4929100000000 1.0
C      1  0.5432250000000  0.5571000000000  0.5250330000000 1.0
C      1  0.5278380000000  0.4340160000000  0.5250320000000 1.0
C      1  0.4289380000000  0.5088840000000  0.5250330000000 1.0
C      1  0.5433430000000  0.4318510000000  0.4298930000000 1.0
C      1  0.4193090000000  0.4965390000000  0.4298940000000 1.0
C      1  0.5373470000000  0.5716120000000  0.4298940000000 1.0
C      1  0.5230860000000  0.4060060000000  0.5357180000000 1.0
C      1  0.4070560000000  0.5270040000000  0.5357190000000 1.0
C      1  0.5698580000000  0.5669900000000  0.5357190000000 1.0
C      1  0.6091920000000  0.5158670000000  0.4797830000000 1.0
C      1  0.4591450000000  0.3975040000000  0.4797830000000 1.0
C      1  0.4316630000000  0.5866290000000  0.4797850000000 1.0
C      1  0.5958210000000  0.5630090000000  0.4868100000000 1.0
C      1  0.5066570000000  0.3855120000000  0.4868090000000 1.0
C      1  0.3975220000000  0.5514790000000  0.4868110000000 1.0
C      1  0.5854310000000  0.5791160000000  0.5103050000000 1.0
C      1  0.5258010000000  0.3864570000000  0.5103040000000 1.0
C      1  0.3887690000000  0.5344270000000  0.5103050000000 1.0
END
