TITL C-862501-1041-1206 -0.00949365765892825 125000 -121.457068190975 0 0 21 (C2) n - 1
REM
REM in /home/nfs/bkarasulu/CARBON/AIRSS/Generating-Clusters/TERSOFF/Higher-Symm/FIRE-HFTN
REM
REM
REM
REM
REM
REM ./C.cell (b20cbc046b6831c77cfcea5457e17084)
REM AIRSS Version 0.9.1 bugfix July 2018 build 013d7b7c2542+ Fri, 06 Jul 2018 19:26:36 +0100
REM compiler GCC version 9.2.1 20190827 (Red Hat 9.2.1-1)
REM options -cpp -mtune=generic -march=x86-64 -g -O0 -fpre-include=/usr/include/finclude/math-vector-fortran.h
REM seed 1630794331 1979690140 -2058854174 899721598 2027617530 1691772805 292132475 -1197673790 638337649 -969423512 1369142973 1500695289 594467248 -171597322 1952071395 1866019934 -796252165 -2088269762 -880622411 -55723714 1886374584 -1171443860 1314363305 165160560 -9748156 -965281986 -1676103064 2042134467 1692661313 1992773419 1331104104 1697770347 -1704986484
REM
CELL 1.54180   50.00000   50.00000   50.00000   90.00000   90.00000   90.00000
LATT -1
SFAC C  
C      1  0.5155960000000  0.5015510000000  0.4720810000000 1.0
C      1  0.5416410000000  0.5321410000000  0.5167100000000 1.0
C      1  0.5319950000000  0.5048220000000  0.5196360000000 1.0
C      1  0.5266950000000  0.4885510000000  0.4958130000000 1.0
C      1  0.4571870000000  0.4835020000000  0.4702650000000 1.0
C      1  0.4673680000000  0.4811450000000  0.4974450000000 1.0
C      1  0.4725250000000  0.5052920000000  0.5132770000000 1.0
C      1  0.4829620000000  0.5290260000000  0.4997440000000 1.0
C      1  0.4824720000000  0.5549040000000  0.5128070000000 1.0
C      1  0.4738040000000  0.5035120000000  0.5422390000000 1.0
C      1  0.4757290000000  0.4551280000000  0.5075390000000 1.0
C      1  0.4679700000000  0.4694500000000  0.4472610000000 1.0
C      1  0.5259700000000  0.4596010000000  0.4980270000000 1.0
C      1  0.5242800000000  0.4949590000000  0.5459400000000 1.0
C      1  0.5306960000000  0.5551520000000  0.5306270000000 1.0
C      1  0.5158620000000  0.4881250000000  0.4463860000000 1.0
C      1  0.4926210000000  0.4764660000000  0.4336040000000 1.0
C      1  0.5056820000000  0.5682650000000  0.5238630000000 1.0
C      1  0.4977110000000  0.4972530000000  0.5573110000000 1.0
C      1  0.5024530000000  0.4441990000000  0.5049290000000 1.0
C      1  0.4991060000000  0.5249190000000  0.4761430000000 1.0
END
