TITL C-862500-986-732 -0.00233858366614325 125000 -343.224036916629 0 0 63 (C1) n - 1
REM
REM in /home/nfs/bkarasulu/CARBON/AIRSS/Generating-Clusters/TERSOFF/Higher-Symm/FIRE-HFTN
REM
REM
REM
REM
REM
REM ./C.cell (b20cbc046b6831c77cfcea5457e17084)
REM AIRSS Version 0.9.1 bugfix July 2018 build 013d7b7c2542+ Fri, 06 Jul 2018 19:26:36 +0100
REM compiler GCC version 9.2.1 20190827 (Red Hat 9.2.1-1)
REM options -cpp -mtune=generic -march=x86-64 -g -O0 -fpre-include=/usr/include/finclude/math-vector-fortran.h
REM seed 578510124 -1462010140 435548505 1315320534 1980537946 677794256 1182891665 1321808154 -1013217578 687550049 957503042 1106757764 877137204 1344248665 941559638 1624332259 350576597 1744316726 827559237 -1399785878 -341847643 2133979892 -988869659 -2115027175 2017381459 -2084819867 1820225516 1624861781 1781880030 -2087276774 -77276894 305277114 467407598
REM
CELL 1.54180   50.00000   50.00000   50.00000   90.00000   90.00000   90.00000
LATT -1
SFAC C  
C      1  0.5188470000000  0.4298450000000  0.5032320000000 1.0
C      1  0.5096050000000  0.4727090000000  0.5957240000000 1.0
C      1  0.5133750000000  0.5609080000000  0.5379270000000 1.0
C      1  0.5179020000000  0.5643440000000  0.4436360000000 1.0
C      1  0.5036330000000  0.4606700000000  0.4246110000000 1.0
C      1  0.4968020000000  0.4464180000000  0.5104780000000 1.0
C      1  0.4806080000000  0.4731230000000  0.5878310000000 1.0
C      1  0.4854800000000  0.5668000000000  0.5396690000000 1.0
C      1  0.4878340000000  0.5620390000000  0.4491360000000 1.0
C      1  0.4753820000000  0.4607810000000  0.4193060000000 1.0
C      1  0.4612220000000  0.4851380000000  0.4267670000000 1.0
C      1  0.4877150000000  0.4625400000000  0.4878540000000 1.0
C      1  0.4774360000000  0.4731980000000  0.5571360000000 1.0
C      1  0.4688850000000  0.5456790000000  0.5510350000000 1.0
C      1  0.4869300000000  0.5443480000000  0.4742750000000 1.0
C      1  0.5157180000000  0.4866700000000  0.4305340000000 1.0
C      1  0.5329780000000  0.4447010000000  0.4827200000000 1.0
C      1  0.5285160000000  0.4668460000000  0.5715200000000 1.0
C      1  0.5217790000000  0.5386770000000  0.5546370000000 1.0
C      1  0.5350450000000  0.5522720000000  0.4668070000000 1.0
C      1  0.4732980000000  0.5080180000000  0.4131240000000 1.0
C      1  0.4921540000000  0.4477550000000  0.4628380000000 1.0
C      1  0.4894160000000  0.4512500000000  0.5391310000000 1.0
C      1  0.4778160000000  0.5399670000000  0.5785000000000 1.0
C      1  0.4955810000000  0.5573870000000  0.5000520000000 1.0
C      1  0.5029860000000  0.5074700000000  0.4139650000000 1.0
C      1  0.5217200000000  0.4382770000000  0.4558570000000 1.0
C      1  0.5214090000000  0.4508050000000  0.5491660000000 1.0
C      1  0.5069990000000  0.5381330000000  0.5804730000000 1.0
C      1  0.5273640000000  0.5552560000000  0.4944890000000 1.0
C      1  0.5563860000000  0.5314920000000  0.5301440000000 1.0
C      1  0.5336380000000  0.5433410000000  0.4258400000000 1.0
C      1  0.5543270000000  0.4728190000000  0.4395250000000 1.0
C      1  0.5555990000000  0.4650640000000  0.5116600000000 1.0
C      1  0.5297910000000  0.4993340000000  0.5980070000000 1.0
C      1  0.4460410000000  0.5441700000000  0.5158350000000 1.0
C      1  0.4605130000000  0.5448230000000  0.4417800000000 1.0
C      1  0.4449420000000  0.4575170000000  0.4541600000000 1.0
C      1  0.4473910000000  0.4660840000000  0.5090960000000 1.0
C      1  0.4565720000000  0.4965490000000  0.5850380000000 1.0
C      1  0.5452060000000  0.4459950000000  0.5316180000000 1.0
C      1  0.5188810000000  0.5249840000000  0.6025710000000 1.0
C      1  0.5482170000000  0.5549890000000  0.5152400000000 1.0
C      1  0.5186910000000  0.5296190000000  0.4060510000000 1.0
C      1  0.5417240000000  0.4471750000000  0.4358920000000 1.0
C      1  0.4590790000000  0.4481530000000  0.5288620000000 1.0
C      1  0.4617730000000  0.5228540000000  0.5947270000000 1.0
C      1  0.4640390000000  0.5635830000000  0.5037600000000 1.0
C      1  0.4598410000000  0.5328080000000  0.4160650000000 1.0
C      1  0.4664910000000  0.4376120000000  0.4530670000000 1.0
C      1  0.4544820000000  0.4949730000000  0.5499130000000 1.0
C      1  0.4588830000000  0.5197600000000  0.5310580000000 1.0
C      1  0.4599860000000  0.5224040000000  0.4703380000000 1.0
C      1  0.4517140000000  0.4891770000000  0.4584130000000 1.0
C      1  0.4645140000000  0.4817580000000  0.4901510000000 1.0
C      1  0.5430410000000  0.4940030000000  0.5667040000000 1.0
C      1  0.5363260000000  0.5122370000000  0.5424090000000 1.0
C      1  0.5471660000000  0.5247010000000  0.4524820000000 1.0
C      1  0.5393650000000  0.4941970000000  0.4566320000000 1.0
C      1  0.5378520000000  0.4794470000000  0.4895840000000 1.0
C      1  0.5226350000000  0.4992780000000  0.5129250000000 1.0
C      1  0.4726660000000  0.5105360000000  0.5020830000000 1.0
C      1  0.5018460000000  0.5159320000000  0.5013590000000 1.0
END
