TITL C-862127-1500-1068 7.17784881080117e-06 125000 -24.8013072667612 0 0 7 (S4) n - 1
REM
REM in /home/nfs/bkarasulu/CARBON/AIRSS/Generating-Clusters/TERSOFF/Higher-Symm/FIRE-HFTN
REM
REM
REM
REM
REM
REM ./C.cell (b20cbc046b6831c77cfcea5457e17084)
REM AIRSS Version 0.9.1 bugfix July 2018 build 013d7b7c2542+ Fri, 06 Jul 2018 19:26:36 +0100
REM compiler GCC version 9.2.1 20190827 (Red Hat 9.2.1-1)
REM options -cpp -mtune=generic -march=x86-64 -g -O0 -fpre-include=/usr/include/finclude/math-vector-fortran.h
REM seed -1737288099 1569379004 -954220932 -682929197 441768294 -876334033 -19274662 832215347 942020009 1258349681 -433176983 -1244832169 1303794199 1158258669 443092987 1612250714 -2111798037 990024155 852446261 1595737166 -1832033744 1471209071 -843133477 -1962240795 601814647 -1007994038 1084101089 2128061456 940416776 18765152 255902574 871170503 469798822
REM
CELL 1.54180   50.00000   50.00000   50.00000   90.00000   90.00000   90.00000
LATT -1
SFAC C  
C      1  0.4842030000000  0.5181640000000  0.5288400000000 1.0
C      1  0.5138900000000  0.4884760000000  0.5288400000000 1.0
C      1  0.4842040000000  0.4884760000000  0.4805370000000 1.0
C      1  0.5138910000000  0.5181640000000  0.4805370000000 1.0
C      1  0.4990460000000  0.5033200000000  0.5529870000000 1.0
C      1  0.4990480000000  0.5033200000000  0.4563900000000 1.0
C      1  0.4990470000000  0.5033200000000  0.5046880000000 1.0
END
