TITL C-862131-2149-149 0.00284558801584824 125000 -691.017008643092 0 0 117 (C1) n - 1
REM
REM in /home/nfs/bkarasulu/CARBON/AIRSS/Generating-Clusters/TERSOFF/Higher-Symm/FIRE-HFTN
REM
REM
REM
REM
REM
REM ./C.cell (b20cbc046b6831c77cfcea5457e17084)
REM AIRSS Version 0.9.1 bugfix July 2018 build 013d7b7c2542+ Fri, 06 Jul 2018 19:26:36 +0100
REM compiler GCC version 9.2.1 20190827 (Red Hat 9.2.1-1)
REM options -cpp -mtune=generic -march=x86-64 -g -O0 -fpre-include=/usr/include/finclude/math-vector-fortran.h
REM seed -243855611 -1974470049 -1630948176 -1047985115 1441717078 635957118 361985712 1120609066 1228912039 -239156428 294007103 1390064302 -911721948 623424530 1748876424 2130351740 1530725574 -1171576830 895646143 -401261955 -1920253202 755949630 499310015 -1940178958 -841931021 -849775802 -1008369080 -1987047883 -1860607619 -1570130673 223532812 1171848628 64288064
REM
CELL 1.54180   50.00000   50.00000   50.00000   90.00000   90.00000   90.00000
LATT -1
SFAC C  
C      1  0.4713490000000  0.5172800000000  0.4051020000000 1.0
C      1  0.5288810000000  0.5182470000000  0.4043180000000 1.0
C      1  0.5421930000000  0.4330260000000  0.5379750000000 1.0
C      1  0.4545810000000  0.4356790000000  0.5412560000000 1.0
C      1  0.4396280000000  0.4909360000000  0.5007020000000 1.0
C      1  0.5613460000000  0.4917330000000  0.5010970000000 1.0
C      1  0.5322770000000  0.5467040000000  0.4448990000000 1.0
C      1  0.4677120000000  0.5463210000000  0.4449460000000 1.0
C      1  0.4739160000000  0.5848750000000  0.5098520000000 1.0
C      1  0.5256070000000  0.5858970000000  0.5098160000000 1.0
C      1  0.4844440000000  0.5806790000000  0.4823330000000 1.0
C      1  0.5151510000000  0.5811480000000  0.4822780000000 1.0
C      1  0.4449170000000  0.5258280000000  0.4440790000000 1.0
C      1  0.5554110000000  0.5264790000000  0.4438730000000 1.0
C      1  0.4582320000000  0.4174960000000  0.4437990000000 1.0
C      1  0.5398900000000  0.4206400000000  0.4416600000000 1.0
C      1  0.5720860000000  0.4894250000000  0.5809720000000 1.0
C      1  0.4278480000000  0.4884080000000  0.5799800000000 1.0
C      1  0.4359850000000  0.5774670000000  0.4659810000000 1.0
C      1  0.5637700000000  0.5779460000000  0.4663550000000 1.0
C      1  0.4525280000000  0.4783800000000  0.5906950000000 1.0
C      1  0.5473450000000  0.4771410000000  0.5884860000000 1.0
C      1  0.4134770000000  0.4556350000000  0.4861850000000 1.0
C      1  0.5869830000000  0.4561030000000  0.4854380000000 1.0
C      1  0.4105160000000  0.4766690000000  0.4655360000000 1.0
C      1  0.5904160000000  0.4772820000000  0.4649960000000 1.0
C      1  0.5152970000000  0.4123360000000  0.5012860000000 1.0
C      1  0.4860260000000  0.4115100000000  0.5015470000000 1.0
C      1  0.4853410000000  0.5206470000000  0.6170080000000 1.0
C      1  0.5141820000000  0.5191820000000  0.6162300000000 1.0
C      1  0.5272760000000  0.4686240000000  0.4046670000000 1.0
C      1  0.4741000000000  0.4678000000000  0.4055280000000 1.0
C      1  0.4849770000000  0.5438040000000  0.4197610000000 1.0
C      1  0.5149370000000  0.5442440000000  0.4196580000000 1.0
C      1  0.5298640000000  0.5380810000000  0.6006210000000 1.0
C      1  0.4708450000000  0.5395550000000  0.6005220000000 1.0
C      1  0.4459130000000  0.5071430000000  0.4212980000000 1.0
C      1  0.5549750000000  0.5084640000000  0.4204090000000 1.0
C      1  0.4209100000000  0.5380210000000  0.5042910000000 1.0
C      1  0.5814370000000  0.5381260000000  0.5048100000000 1.0
C      1  0.4646420000000  0.5713610000000  0.4611430000000 1.0
C      1  0.5351810000000  0.5717010000000  0.4612900000000 1.0
C      1  0.5291730000000  0.4331060000000  0.4859080000000 1.0
C      1  0.4710740000000  0.4312600000000  0.4860220000000 1.0
C      1  0.4122400000000  0.4944510000000  0.5323010000000 1.0
C      1  0.5881020000000  0.4939350000000  0.5333390000000 1.0
C      1  0.5830020000000  0.5602320000000  0.5228010000000 1.0
C      1  0.4195550000000  0.5602550000000  0.5221310000000 1.0
C      1  0.4868330000000  0.5030900000000  0.4298040000000 1.0
C      1  0.5142220000000  0.5033610000000  0.4291360000000 1.0
C      1  0.5169680000000  0.5204600000000  0.5490350000000 1.0
C      1  0.4840830000000  0.5198470000000  0.5496210000000 1.0
C      1  0.5287620000000  0.4841940000000  0.4441280000000 1.0
C      1  0.4732700000000  0.4832440000000  0.4456110000000 1.0
C      1  0.5758280000000  0.5579240000000  0.5500570000000 1.0
C      1  0.4251820000000  0.5576250000000  0.5497070000000 1.0
C      1  0.5159860000000  0.5658790000000  0.5593610000000 1.0
C      1  0.4844900000000  0.5657490000000  0.5592840000000 1.0
C      1  0.4447460000000  0.5193580000000  0.5015080000000 1.0
C      1  0.5572470000000  0.5201120000000  0.5015820000000 1.0
C      1  0.4683520000000  0.5385070000000  0.5705990000000 1.0
C      1  0.5324270000000  0.5385250000000  0.5706680000000 1.0
C      1  0.5588450000000  0.4391870000000  0.4568440000000 1.0
C      1  0.4407370000000  0.4379840000000  0.4578140000000 1.0
C      1  0.5277050000000  0.4699670000000  0.5681340000000 1.0
C      1  0.4750190000000  0.4720060000000  0.5731100000000 1.0
C      1  0.4209710000000  0.5288260000000  0.4603690000000 1.0
C      1  0.5792240000000  0.5294300000000  0.4606850000000 1.0
C      1  0.5151880000000  0.5125200000000  0.4810860000000 1.0
C      1  0.4869780000000  0.5110510000000  0.4824940000000 1.0
C      1  0.5402300000000  0.4760180000000  0.6163000000000 1.0
C      1  0.4567540000000  0.4793860000000  0.6191490000000 1.0
C      1  0.5408540000000  0.4723610000000  0.4951650000000 1.0
C      1  0.4603780000000  0.4701850000000  0.4976100000000 1.0
C      1  0.5171130000000  0.4879530000000  0.5457160000000 1.0
C      1  0.4828720000000  0.4868380000000  0.5477480000000 1.0
C      1  0.5167390000000  0.5385180000000  0.5220510000000 1.0
C      1  0.4848380000000  0.5378150000000  0.5224330000000 1.0
C      1  0.5157500000000  0.4436530000000  0.5292490000000 1.0
C      1  0.4852720000000  0.4371400000000  0.5347610000000 1.0
C      1  0.5916530000000  0.5059810000000  0.4757680000000 1.0
C      1  0.4091150000000  0.5055710000000  0.4758390000000 1.0
C      1  0.5655090000000  0.4431970000000  0.5218600000000 1.0
C      1  0.4343020000000  0.4456970000000  0.5225170000000 1.0
C      1  0.4387800000000  0.5346410000000  0.5603220000000 1.0
C      1  0.5620460000000  0.5348990000000  0.5603620000000 1.0
C      1  0.5135280000000  0.4496880000000  0.4686100000000 1.0
C      1  0.4857180000000  0.4469630000000  0.4672300000000 1.0
C      1  0.4752450000000  0.5643920000000  0.5304710000000 1.0
C      1  0.5254100000000  0.5653090000000  0.5304670000000 1.0
C      1  0.5207500000000  0.4705980000000  0.5189570000000 1.0
C      1  0.4775100000000  0.4663010000000  0.5239220000000 1.0
C      1  0.5114930000000  0.4127040000000  0.4488360000000 1.0
C      1  0.4866840000000  0.4212910000000  0.4340170000000 1.0
C      1  0.4296280000000  0.4621850000000  0.4442550000000 1.0
C      1  0.5713450000000  0.4630290000000  0.4438050000000 1.0
C      1  0.4744910000000  0.4867060000000  0.4746440000000 1.0
C      1  0.5284060000000  0.4887300000000  0.4726110000000 1.0
C      1  0.5752940000000  0.5070140000000  0.5585090000000 1.0
C      1  0.4257960000000  0.5065490000000  0.5576360000000 1.0
C      1  0.5978100000000  0.5113610000000  0.5080500000000 1.0
C      1  0.4038590000000  0.5118820000000  0.5074580000000 1.0
C      1  0.4707800000000  0.5006320000000  0.6317760000000 1.0
C      1  0.5273210000000  0.4974180000000  0.6298440000000 1.0
C      1  0.5157230000000  0.4932770000000  0.3884310000000 1.0
C      1  0.4847230000000  0.4928100000000  0.3891660000000 1.0
C      1  0.4491620000000  0.4769560000000  0.4282170000000 1.0
C      1  0.5527240000000  0.4778780000000  0.4265570000000 1.0
C      1  0.4153150000000  0.5568190000000  0.4671640000000 1.0
C      1  0.5845740000000  0.5574480000000  0.4676640000000 1.0
C      1  0.5875390000000  0.4624930000000  0.5324320000000 1.0
C      1  0.4114490000000  0.4639620000000  0.5306900000000 1.0
C      1  0.5301130000000  0.5288900000000  0.4989200000000 1.0
C      1  0.4719030000000  0.5276860000000  0.4994480000000 1.0
C      1  0.4415970000000  0.4416830000000  0.4917460000000 1.0
C      1  0.5586180000000  0.4428140000000  0.4908020000000 1.0
C      1  0.5010610000000  0.4549700000000  0.4134580000000 1.0
END
