TITL C-862501-1041-345 48.6299075667518 125000 -581.54652944365 0 0 103 (C1) n - 1
REM
REM in /home/nfs/bkarasulu/CARBON/AIRSS/Generating-Clusters/TERSOFF/Higher-Symm/FIRE-HFTN
REM
REM
REM
REM
REM
REM ./C.cell (b20cbc046b6831c77cfcea5457e17084)
REM AIRSS Version 0.9.1 bugfix July 2018 build 013d7b7c2542+ Fri, 06 Jul 2018 19:26:36 +0100
REM compiler GCC version 9.2.1 20190827 (Red Hat 9.2.1-1)
REM options -cpp -mtune=generic -march=x86-64 -g -O0 -fpre-include=/usr/include/finclude/math-vector-fortran.h
REM seed 639256866 -1438542192 -43253210 -93910916 -2127974182 -1202397531 -1930550160 -320937517 325703651 402859891 -1412853703 -680607983 1368252968 265554878 -1862571382 2035038158 2062944875 -156849318 -40403114 1491158649 -430086147 -897478806 366790654 828230376 167212921 -751660516 1010320410 -1272593598 1279860190 -405786046 -1810045675 -1083752303 -535523300
REM
CELL 1.54180   50.00000   50.00000   50.00000   90.00000   90.00000   90.00000
LATT -1
SFAC C  
C      1  0.4897550000000  0.4539390000000  0.5012360000000 1.0
C      1  0.4839520000000  0.3980010000000  0.5106350000000 1.0
C      1  0.3968580000000  0.4926080000000  0.5245050000000 1.0
C      1  0.5972670000000  0.5121500000000  0.4986870000000 1.0
C      1  0.4752650000000  0.5388720000000  0.5943150000000 1.0
C      1  0.5262900000000  0.5127930000000  0.4801090000000 1.0
C      1  0.5401150000000  0.4546170000000  0.5580390000000 1.0
C      1  0.5598790000000  0.4666040000000  0.4104160000000 1.0
C      1  0.5281540000000  0.5324910000000  0.5218030000000 1.0
C      1  0.5148060000000  0.5337290000000  0.4944670000000 1.0
C      1  0.4653440000000  0.4642980000000  0.4855860000000 1.0
C      1  0.5255060000000  0.5662630000000  0.4701770000000 1.0
C      1  0.4534650000000  0.5399900000000  0.5744470000000 1.0
C      1  0.4189270000000  0.4845170000000  0.4668200000000 1.0
C      1  0.5065470000000  0.5411450000000  0.5663830000000 1.0
C      1  0.4525970000000  0.4194780000000  0.4767340000000 1.0
C      1  0.4852030000000  0.5012010000000  0.4520480000000 1.0
C      1  0.4818930000000  0.5456340000000  0.4322450000000 1.0
C      1  0.5267480000000  0.5549670000000  0.4422970000000 1.0
C      1  0.5344880000000  0.4820180000000  0.4081070000000 1.0
C      1  0.5580380000000  0.4779720000000  0.4748400000000 1.0
C      1  0.4170970000000  0.4459660000000  0.5538790000000 1.0
C      1  0.4410830000000  0.4680090000000  0.5090410000000 1.0
C      1  0.4689830000000  0.4720620000000  0.5602690000000 1.0
C      1  0.5310180000000  0.4430850000000  0.4452660000000 1.0
C      1  0.6028990000000  0.5192120000000  0.4706600000000 1.0
C      1  0.4620550000000  0.5586440000000  0.4505950000000 1.0
C      1  0.4734820000000  0.5167780000000  0.4302430000000 1.0
C      1  0.4688950000000  0.5611150000000  0.4788550000000 1.0
C      1  0.4390750000000  0.5762220000000  0.5183900000000 1.0
C      1  0.4195470000000  0.4734500000000  0.5657240000000 1.0
C      1  0.5141750000000  0.4325330000000  0.4186210000000 1.0
C      1  0.5698280000000  0.5135400000000  0.5117390000000 1.0
C      1  0.5755010000000  0.5366410000000  0.4330990000000 1.0
C      1  0.5450860000000  0.5763800000000  0.5479420000000 1.0
C      1  0.5312050000000  0.5149930000000  0.5631520000000 1.0
C      1  0.5509770000000  0.4689830000000  0.5354290000000 1.0
C      1  0.5811330000000  0.5810960000000  0.4922440000000 1.0
C      1  0.4976330000000  0.5596340000000  0.4123880000000 1.0
C      1  0.5520660000000  0.4129070000000  0.4839500000000 1.0
C      1  0.5652970000000  0.4511390000000  0.5158010000000 1.0
C      1  0.5497150000000  0.5575780000000  0.5256840000000 1.0
C      1  0.4481780000000  0.5172720000000  0.5565430000000 1.0
C      1  0.5171360000000  0.4474940000000  0.4918360000000 1.0
C      1  0.5354910000000  0.5018190000000  0.4331600000000 1.0
C      1  0.5199360000000  0.5899340000000  0.5518370000000 1.0
C      1  0.4979960000000  0.5698050000000  0.5561240000000 1.0
C      1  0.5132190000000  0.4602500000000  0.4039040000000 1.0
C      1  0.5560740000000  0.4227300000000  0.5126910000000 1.0
C      1  0.4938610000000  0.4309110000000  0.5498560000000 1.0
C      1  0.5022550000000  0.4128960000000  0.5282120000000 1.0
C      1  0.5436560000000  0.5011890000000  0.5318020000000 1.0
C      1  0.4666760000000  0.4440250000000  0.5513030000000 1.0
C      1  0.5759030000000  0.4587340000000  0.4880240000000 1.0
C      1  0.4955810000000  0.5889450000000  0.5095180000000 1.0
C      1  0.5750000000000  0.4314350000000  0.4744630000000 1.0
C      1  0.4081320000000  0.4680480000000  0.5118900000000 1.0
C      1  0.3990320000000  0.4734260000000  0.4845600000000 1.0
C      1  0.4403520000000  0.5655040000000  0.5689050000000 1.0
C      1  0.5451710000000  0.5329260000000  0.4329370000000 1.0
C      1  0.5010010000000  0.4632040000000  0.4439660000000 1.0
C      1  0.5554510000000  0.5706870000000  0.4999980000000 1.0
C      1  0.4672130000000  0.4928600000000  0.4747870000000 1.0
C      1  0.5031760000000  0.5326070000000  0.5373240000000 1.0
C      1  0.5603950000000  0.5261200000000  0.5611370000000 1.0
C      1  0.4993750000000  0.4088420000000  0.4626850000000 1.0
C      1  0.5037920000000  0.5843520000000  0.4804930000000 1.0
C      1  0.4432880000000  0.5190500000000  0.4299800000000 1.0
C      1  0.5073810000000  0.5008060000000  0.5789740000000 1.0
C      1  0.4775830000000  0.4053780000000  0.4828280000000 1.0
C      1  0.4415810000000  0.4304990000000  0.5539240000000 1.0
C      1  0.4459430000000  0.4888060000000  0.5691170000000 1.0
C      1  0.5332750000000  0.4631360000000  0.4706810000000 1.0
C      1  0.5947100000000  0.5468890000000  0.4567720000000 1.0
C      1  0.5123200000000  0.4518830000000  0.5633860000000 1.0
C      1  0.4304610000000  0.4622710000000  0.4519410000000 1.0
C      1  0.4914240000000  0.4215590000000  0.4360290000000 1.0
C      1  0.4852210000000  0.5400020000000  0.4931380000000 1.0
C      1  0.5120100000000  0.6055070000000  0.5278880000000 1.0
C      1  0.5859400000000  0.5077600000000  0.4444540000000 1.0
C      1  0.4333670000000  0.5188310000000  0.5061830000000 1.0
C      1  0.4820680000000  0.5681130000000  0.5297240000000 1.0
C      1  0.4559650000000  0.5816280000000  0.4952290000000 1.0
C      1  0.5580480000000  0.4467800000000  0.4313470000000 1.0
C      1  0.5249480000000  0.4220510000000  0.4723100000000 1.0
C      1  0.4489810000000  0.4931960000000  0.5988340000000 1.0
C      1  0.5955090000000  0.5732780000000  0.4685930000000 1.0
C      1  0.4362510000000  0.5448790000000  0.4429600000000 1.0
C      1  0.4533940000000  0.4458110000000  0.4620650000000 1.0
C      1  0.4776340000000  0.5385720000000  0.5215610000000 1.0
C      1  0.4925600000000  0.5157040000000  0.5994730000000 1.0
C      1  0.5681800000000  0.5354010000000  0.5341950000000 1.0
C      1  0.4701530000000  0.4820180000000  0.6151000000000 1.0
C      1  0.4396530000000  0.5043870000000  0.4794730000000 1.0
C      1  0.4016110000000  0.4453760000000  0.5293110000000 1.0
C      1  0.5625990000000  0.4904950000000  0.4478410000000 1.0
C      1  0.4539570000000  0.5227940000000  0.5275010000000 1.0
C      1  0.5146290000000  0.5025230000000  0.4557440000000 1.0
C      1  0.4964660000000  0.4757790000000  0.5694040000000 1.0
C      1  0.4064520000000  0.5177860000000  0.5160770000000 1.0
C      1  0.4461090000000  0.5825220000000  0.5459490000000 1.0
C      1  0.5505250000000  0.5009490000000  0.4902010000000 1.0
C      1  0.4679040000000  0.4383090000000  0.4369930000000 1.0
END
