TITL C-862500-986-1106 5.0068384280253e-07 125000 -229.418549277441 0 0 42 (D3h) n - 1
REM
REM in /home/nfs/bkarasulu/CARBON/AIRSS/Generating-Clusters/TERSOFF/Higher-Symm/FIRE-HFTN
REM
REM
REM
REM
REM
REM ./C.cell (b20cbc046b6831c77cfcea5457e17084)
REM AIRSS Version 0.9.1 bugfix July 2018 build 013d7b7c2542+ Fri, 06 Jul 2018 19:26:36 +0100
REM compiler GCC version 9.2.1 20190827 (Red Hat 9.2.1-1)
REM options -cpp -mtune=generic -march=x86-64 -g -O0 -fpre-include=/usr/include/finclude/math-vector-fortran.h
REM seed 1582526684 733299467 -1391112804 1951693285 -1519425250 1474723160 1344987552 1146589214 960495490 1274443183 -778153293 1556043888 -633515226 -1873972719 137290749 -218222929 -112258068 350413864 1959369663 1059016335 -942298378 1746124476 1496760366 -891289103 427957858 2140594283 912329954 -1129917431 417831037 -1361602902 -333210032 -1717776344 -1911582594
REM
CELL 1.54180   50.00000   50.00000   50.00000   90.00000   90.00000   90.00000
LATT -1
SFAC C  
C      1  0.4440550000000  0.5167650000000  0.4361060000000 1.0
C      1  0.5833060000000  0.5167650000000  0.4834970000000 1.0
C      1  0.4726390000000  0.5167650000000  0.5803970000000 1.0
C      1  0.4440550000000  0.4832350000000  0.4361060000000 1.0
C      1  0.5833060000000  0.4832350000000  0.4834970000000 1.0
C      1  0.4726390000000  0.4832350000000  0.5803970000000 1.0
C      1  0.4440550000000  0.5167650000000  0.5638940000000 1.0
C      1  0.5833060000000  0.5167650000000  0.5165030000000 1.0
C      1  0.4726390000000  0.5167650000000  0.4196030000000 1.0
C      1  0.4440550000000  0.4832350000000  0.5638940000000 1.0
C      1  0.5833060000000  0.4832350000000  0.5165030000000 1.0
C      1  0.4726390000000  0.4832350000000  0.4196030000000 1.0
C      1  0.5063440000000  0.5277700000000  0.5409170000000 1.0
C      1  0.4613930000000  0.5277700000000  0.4850360000000 1.0
C      1  0.5322630000000  0.5277700000000  0.4740470000000 1.0
C      1  0.5063440000000  0.4722300000000  0.5409170000000 1.0
C      1  0.4613930000000  0.4722300000000  0.4850360000000 1.0
C      1  0.5322630000000  0.4722300000000  0.4740470000000 1.0
C      1  0.5063440000000  0.5277700000000  0.4590830000000 1.0
C      1  0.4613930000000  0.5277700000000  0.5149640000000 1.0
C      1  0.5322630000000  0.5277700000000  0.5259530000000 1.0
C      1  0.5063440000000  0.4722300000000  0.4590830000000 1.0
C      1  0.4613930000000  0.4722300000000  0.5149640000000 1.0
C      1  0.5322630000000  0.4722300000000  0.5259530000000 1.0
C      1  0.5576470000000  0.4838550000000  0.5365800000000 1.0
C      1  0.4394970000000  0.4838550000000  0.5316340000000 1.0
C      1  0.5028560000000  0.4838550000000  0.4317860000000 1.0
C      1  0.5576470000000  0.5161450000000  0.5365800000000 1.0
C      1  0.4394970000000  0.5161450000000  0.5316340000000 1.0
C      1  0.5028560000000  0.5161450000000  0.4317860000000 1.0
C      1  0.5576470000000  0.4838550000000  0.4634200000000 1.0
C      1  0.4394970000000  0.4838550000000  0.4683660000000 1.0
C      1  0.5028560000000  0.4838550000000  0.5682140000000 1.0
C      1  0.5576470000000  0.5161450000000  0.4634200000000 1.0
C      1  0.4394970000000  0.5161450000000  0.4683660000000 1.0
C      1  0.5028560000000  0.5161450000000  0.5682140000000 1.0
C      1  0.5281660000000  0.4854240000000  0.5000000000000 1.0
C      1  0.4859170000000  0.4854240000000  0.5243930000000 1.0
C      1  0.4859170000000  0.4854240000000  0.4756070000000 1.0
C      1  0.5281660000000  0.5145760000000  0.5000000000000 1.0
C      1  0.4859170000000  0.5145760000000  0.5243930000000 1.0
C      1  0.4859170000000  0.5145760000000  0.4756070000000 1.0
END
