TITL C-862506-1665-170 9.98396582110868 125000 -939.894096506396 0 0 161 (C1) n - 1
REM
REM in /home/nfs/bkarasulu/CARBON/AIRSS/Generating-Clusters/TERSOFF/Higher-Symm/FIRE-HFTN
REM
REM
REM
REM
REM
REM ./C.cell (b20cbc046b6831c77cfcea5457e17084)
REM AIRSS Version 0.9.1 bugfix July 2018 build 013d7b7c2542+ Fri, 06 Jul 2018 19:26:36 +0100
REM compiler GCC version 9.2.1 20190827 (Red Hat 9.2.1-1)
REM options -cpp -mtune=generic -march=x86-64 -g -O0 -fpre-include=/usr/include/finclude/math-vector-fortran.h
REM seed -2072928388 1213861867 -1018734467 1206175363 123403743 266618438 -867044291 293783354 919691338 1316058916 1726245891 1504375532 -2082230339 1764141026 -1022064038 -357639374 159445220 -363923707 -1661086930 289809161 -2038399091 316768086 361233310 1893656379 1432845361 944662722 25180212 -2060996599 74946640 410866128 911839681 -1222170620 1999533332
REM
CELL 1.54180   50.00000   50.00000   50.00000   90.00000   90.00000   90.00000
LATT -1
SFAC C  
C      1  0.5789590000000  0.5195740000000  0.4854400000000 1.0
C      1  0.4192940000000  0.4907440000000  0.5174160000000 1.0
C      1  0.5252740000000  0.4642770000000  0.5492890000000 1.0
C      1  0.4258940000000  0.4696150000000  0.5619920000000 1.0
C      1  0.5276380000000  0.4233810000000  0.5658530000000 1.0
C      1  0.4926210000000  0.5646250000000  0.5062040000000 1.0
C      1  0.5233960000000  0.5308100000000  0.4242860000000 1.0
C      1  0.4122310000000  0.5548130000000  0.5461450000000 1.0
C      1  0.5265110000000  0.4919070000000  0.6105300000000 1.0
C      1  0.4893390000000  0.4543580000000  0.4161550000000 1.0
C      1  0.5591540000000  0.4385230000000  0.4471140000000 1.0
C      1  0.4611960000000  0.4217530000000  0.4485910000000 1.0
C      1  0.4794190000000  0.5796990000000  0.4429520000000 1.0
C      1  0.5484190000000  0.5290420000000  0.5891150000000 1.0
C      1  0.5454710000000  0.5032020000000  0.5045860000000 1.0
C      1  0.4894910000000  0.6058130000000  0.5377940000000 1.0
C      1  0.5356660000000  0.5600730000000  0.4855130000000 1.0
C      1  0.4597230000000  0.4863950000000  0.4044520000000 1.0
C      1  0.6126680000000  0.4872410000000  0.5260870000000 1.0
C      1  0.5159570000000  0.5438240000000  0.5956420000000 1.0
C      1  0.4196040000000  0.5689870000000  0.4792670000000 1.0
C      1  0.4597760000000  0.5659880000000  0.5478140000000 1.0
C      1  0.5200760000000  0.5597900000000  0.5680410000000 1.0
C      1  0.5561430000000  0.4196240000000  0.5570170000000 1.0
C      1  0.4388980000000  0.5350670000000  0.3916860000000 1.0
C      1  0.4511160000000  0.4167880000000  0.5482070000000 1.0
C      1  0.5891890000000  0.5114700000000  0.4597560000000 1.0
C      1  0.4868630000000  0.4026820000000  0.4459970000000 1.0
C      1  0.4677120000000  0.4270980000000  0.4964470000000 1.0
C      1  0.5328800000000  0.5392910000000  0.5218880000000 1.0
C      1  0.4620730000000  0.5696880000000  0.5780160000000 1.0
C      1  0.6037090000000  0.4625520000000  0.5105800000000 1.0
C      1  0.4473680000000  0.4889700000000  0.5526820000000 1.0
C      1  0.5161410000000  0.4810250000000  0.4344320000000 1.0
C      1  0.4363850000000  0.4690700000000  0.4964110000000 1.0
C      1  0.4829560000000  0.4756550000000  0.5972310000000 1.0
C      1  0.4344230000000  0.5706870000000  0.5882340000000 1.0
C      1  0.5518860000000  0.5016400000000  0.5997480000000 1.0
C      1  0.5263430000000  0.5599940000000  0.4332060000000 1.0
C      1  0.4767500000000  0.4191220000000  0.5630620000000 1.0
C      1  0.5170510000000  0.5688730000000  0.4626170000000 1.0
C      1  0.5420040000000  0.4078480000000  0.4809790000000 1.0
C      1  0.4799470000000  0.5489070000000  0.5923880000000 1.0
C      1  0.5411280000000  0.4143020000000  0.4508710000000 1.0
C      1  0.4648290000000  0.4497310000000  0.4362340000000 1.0
C      1  0.4245110000000  0.4585880000000  0.4703800000000 1.0
C      1  0.5877480000000  0.5333940000000  0.5527940000000 1.0
C      1  0.5731350000000  0.4837010000000  0.5889800000000 1.0
C      1  0.4578970000000  0.5349080000000  0.5409650000000 1.0
C      1  0.5912110000000  0.5614940000000  0.4774490000000 1.0
C      1  0.4536310000000  0.5307420000000  0.5123120000000 1.0
C      1  0.4328990000000  0.5628970000000  0.4534250000000 1.0
C      1  0.5068890000000  0.4364090000000  0.4609820000000 1.0
C      1  0.5002000000000  0.5729920000000  0.4226450000000 1.0
C      1  0.3956590000000  0.5365350000000  0.5302150000000 1.0
C      1  0.4029520000000  0.4970640000000  0.4650680000000 1.0
C      1  0.4284010000000  0.5108070000000  0.4741610000000 1.0
C      1  0.5587310000000  0.5289350000000  0.5612720000000 1.0
C      1  0.4941160000000  0.4877880000000  0.5010420000000 1.0
C      1  0.5827690000000  0.5557670000000  0.5062310000000 1.0
C      1  0.4828220000000  0.6072090000000  0.4887390000000 1.0
C      1  0.4535960000000  0.6045170000000  0.4945630000000 1.0
C      1  0.5975700000000  0.5358100000000  0.5233300000000 1.0
C      1  0.5964870000000  0.4742130000000  0.4337590000000 1.0
C      1  0.4412940000000  0.4361800000000  0.5282270000000 1.0
C      1  0.5140690000000  0.4184140000000  0.4375770000000 1.0
C      1  0.4575020000000  0.5071010000000  0.4442010000000 1.0
C      1  0.4995270000000  0.5166540000000  0.4915220000000 1.0
C      1  0.5861440000000  0.4936920000000  0.5391890000000 1.0
C      1  0.5532380000000  0.5605870000000  0.5126100000000 1.0
C      1  0.4176010000000  0.5493460000000  0.5764540000000 1.0
C      1  0.4194830000000  0.4209030000000  0.4881970000000 1.0
C      1  0.3827420000000  0.5461230000000  0.5063360000000 1.0
C      1  0.5545350000000  0.4460640000000  0.5896090000000 1.0
C      1  0.5037190000000  0.4121670000000  0.5521390000000 1.0
C      1  0.5060600000000  0.4645750000000  0.4588750000000 1.0
C      1  0.5725020000000  0.4467260000000  0.5489520000000 1.0
C      1  0.5466320000000  0.5287110000000  0.4836520000000 1.0
C      1  0.4107130000000  0.4378540000000  0.5169590000000 1.0
C      1  0.5541350000000  0.4781710000000  0.4720950000000 1.0
C      1  0.4134100000000  0.5464320000000  0.4374950000000 1.0
C      1  0.4625910000000  0.4795420000000  0.4565250000000 1.0
C      1  0.5455090000000  0.4657620000000  0.4445180000000 1.0
C      1  0.5398170000000  0.5792230000000  0.5577950000000 1.0
C      1  0.4470690000000  0.5065310000000  0.3856350000000 1.0
C      1  0.4946450000000  0.5027990000000  0.5525690000000 1.0
C      1  0.4357990000000  0.5125270000000  0.4269750000000 1.0
C      1  0.4850150000000  0.5765110000000  0.5354170000000 1.0
C      1  0.4475770000000  0.4201870000000  0.4766690000000 1.0
C      1  0.5227260000000  0.4850870000000  0.5129030000000 1.0
C      1  0.4421130000000  0.4662090000000  0.4223930000000 1.0
C      1  0.5758710000000  0.4419060000000  0.4726220000000 1.0
C      1  0.5533300000000  0.5841920000000  0.4771400000000 1.0
C      1  0.4145000000000  0.5430810000000  0.4075730000000 1.0
C      1  0.3963030000000  0.5500980000000  0.4813800000000 1.0
C      1  0.5220330000000  0.4955920000000  0.5448480000000 1.0
C      1  0.5600280000000  0.4273750000000  0.4942660000000 1.0
C      1  0.5644000000000  0.4008310000000  0.5357670000000 1.0
C      1  0.5728760000000  0.5761950000000  0.4572350000000 1.0
C      1  0.4741300000000  0.5291870000000  0.4521220000000 1.0
C      1  0.4659990000000  0.5647840000000  0.4889670000000 1.0
C      1  0.4988550000000  0.5209540000000  0.4632490000000 1.0
C      1  0.3907650000000  0.4536280000000  0.4948810000000 1.0
C      1  0.5877120000000  0.4708470000000  0.4830220000000 1.0
C      1  0.5585150000000  0.5629350000000  0.4334040000000 1.0
C      1  0.4954900000000  0.3901980000000  0.4753380000000 1.0
C      1  0.4141820000000  0.4731080000000  0.4435340000000 1.0
C      1  0.5122240000000  0.4681530000000  0.5985780000000 1.0
C      1  0.4918250000000  0.4830870000000  0.4078780000000 1.0
C      1  0.4808380000000  0.4679530000000  0.5221860000000 1.0
C      1  0.4322360000000  0.5221410000000  0.5836510000000 1.0
C      1  0.6168530000000  0.5124360000000  0.5109660000000 1.0
C      1  0.5404320000000  0.4483040000000  0.4053760000000 1.0
C      1  0.5694810000000  0.5132720000000  0.4372690000000 1.0
C      1  0.4940430000000  0.4220060000000  0.4825420000000 1.0
C      1  0.4854080000000  0.5299270000000  0.5493000000000 1.0
C      1  0.3989220000000  0.5079750000000  0.5332170000000 1.0
C      1  0.6243270000000  0.5068270000000  0.4822460000000 1.0
C      1  0.4614990000000  0.5252220000000  0.5980920000000 1.0
C      1  0.4864510000000  0.4766550000000  0.4741120000000 1.0
C      1  0.5394320000000  0.5208650000000  0.5421610000000 1.0
C      1  0.5270070000000  0.4524730000000  0.5778850000000 1.0
C      1  0.5449480000000  0.4589210000000  0.5013250000000 1.0
C      1  0.5703760000000  0.5386630000000  0.4230100000000 1.0
C      1  0.3893930000000  0.4831640000000  0.4889180000000 1.0
C      1  0.5464470000000  0.5088570000000  0.4595020000000 1.0
C      1  0.3947790000000  0.5293660000000  0.4571890000000 1.0
C      1  0.4952410000000  0.5926410000000  0.4651350000000 1.0
C      1  0.4592200000000  0.4525830000000  0.5104240000000 1.0
C      1  0.5068580000000  0.5143670000000  0.6120030000000 1.0
C      1  0.5203180000000  0.3920810000000  0.4956530000000 1.0
C      1  0.5067840000000  0.5386000000000  0.5089440000000 1.0
C      1  0.5727320000000  0.4879420000000  0.4214820000000 1.0
C      1  0.5419650000000  0.5838310000000  0.5280310000000 1.0
C      1  0.6067570000000  0.4859420000000  0.4621700000000 1.0
C      1  0.5749060000000  0.4940420000000  0.5081490000000 1.0
C      1  0.5165830000000  0.5891020000000  0.5104400000000 1.0
C      1  0.5269880000000  0.5228190000000  0.3965620000000 1.0
C      1  0.5348610000000  0.4961900000000  0.3878860000000 1.0
C      1  0.4391960000000  0.5773190000000  0.5019300000000 1.0
C      1  0.5778840000000  0.4167320000000  0.5147960000000 1.0
C      1  0.5027090000000  0.4519250000000  0.5340720000000 1.0
C      1  0.4786910000000  0.5035960000000  0.6082080000000 1.0
C      1  0.5012360000000  0.6156880000000  0.5115300000000 1.0
C      1  0.4123310000000  0.4658500000000  0.5346630000000 1.0
C      1  0.4634600000000  0.5574250000000  0.4569630000000 1.0
C      1  0.5497070000000  0.4769960000000  0.4042840000000 1.0
C      1  0.5137570000000  0.4380300000000  0.4160970000000 1.0
C      1  0.5036420000000  0.3996850000000  0.5236230000000 1.0
C      1  0.4130870000000  0.4964680000000  0.4243480000000 1.0
C      1  0.4418160000000  0.5161950000000  0.5562780000000 1.0
C      1  0.5202470000000  0.5103340000000  0.4452700000000 1.0
C      1  0.5761850000000  0.4757390000000  0.5601570000000 1.0
C      1  0.4182230000000  0.4928410000000  0.5834590000000 1.0
C      1  0.4750380000000  0.4048470000000  0.5158200000000 1.0
C      1  0.4743540000000  0.4828000000000  0.5463940000000 1.0
C      1  0.4342040000000  0.5716020000000  0.5324340000000 1.0
C      1  0.5929660000000  0.4398420000000  0.5269890000000 1.0
C      1  0.4361280000000  0.5108140000000  0.5010240000000 1.0
C      1  0.5007580000000  0.5540980000000  0.5488410000000 1.0
C      1  0.5482900000000  0.4574870000000  0.5334200000000 1.0
END
