TITL C-862134-6730-120 -448177.252039719 125000 -887.854203177814 0 0 156 (C2) n - 1
REM
REM in /home/nfs/bkarasulu/CARBON/AIRSS/Generating-Clusters/TERSOFF/Higher-Symm/FIRE-HFTN
REM
REM
REM
REM
REM
REM ./C.cell (b20cbc046b6831c77cfcea5457e17084)
REM AIRSS Version 0.9.1 bugfix July 2018 build 013d7b7c2542+ Fri, 06 Jul 2018 19:26:36 +0100
REM compiler GCC version 9.2.1 20190827 (Red Hat 9.2.1-1)
REM options -cpp -mtune=generic -march=x86-64 -g -O0 -fpre-include=/usr/include/finclude/math-vector-fortran.h
REM seed 1019027376 1113791168 1471196285 -1002981294 769388959 -1504393894 1787984132 358628576 -790131701 1277463983 -992001829 -569855157 -2016425857 372739663 1322959721 -407443936 1813512957 2009602116 -678013295 879767893 -936553562 -1048433711 352994638 -1747869543 -551837884 593090293 1872296961 -1478933006 -926517057 2036835784 -1519535800 1019530160 -1066586168
REM
CELL 1.54180   50.00000   50.00000   50.00000   90.00000   90.00000   90.00000
LATT -1
SFAC C  
C      1  0.5257100000000  0.5558120000000  0.4443520000000 1.0
C      1  0.4742900000000  0.4441880000000  0.4443520000000 1.0
C      1  0.5223540000000  0.4212050000000  0.5197030000000 1.0
C      1  0.4776460000000  0.5787940000000  0.5197030000000 1.0
C      1  0.4248870000000  0.5742270000000  0.5015910000000 1.0
C      1  0.5751130000000  0.4257730000000  0.5015910000000 1.0
C      1  0.5779770000000  0.4623200000000  0.4352510000000 1.0
C      1  0.4220230000000  0.5376800000000  0.4352510000000 1.0
C      1  0.5680220000000  0.4764260000000  0.5798160000000 1.0
C      1  0.4319780000000  0.5235740000000  0.5798160000000 1.0
C      1  0.5951400000000  0.4464360000000  0.5160830000000 1.0
C      1  0.4048600000000  0.5535640000000  0.5160830000000 1.0
C      1  0.4940510000000  0.4634360000000  0.5154690000000 1.0
C      1  0.5059490000000  0.5365640000000  0.5154690000000 1.0
C      1  0.4941000000000  0.5379940000000  0.5425580000000 1.0
C      1  0.5059000000000  0.4620060000000  0.5425580000000 1.0
C      1  0.4327540000000  0.4746920000000  0.4281740000000 1.0
C      1  0.5672460000000  0.5253080000000  0.4281740000000 1.0
C      1  0.3816260000000  0.5031270000000  0.5132500000000 1.0
C      1  0.6183740000000  0.4968730000000  0.5132500000000 1.0
C      1  0.4728170000000  0.4051970000000  0.5041190000000 1.0
C      1  0.5271830000000  0.5948040000000  0.5041190000000 1.0
C      1  0.5752430000000  0.5651790000000  0.5539090000000 1.0
C      1  0.4247570000000  0.4348210000000  0.5539090000000 1.0
C      1  0.6099650000000  0.5213010000000  0.5383880000000 1.0
C      1  0.3900350000000  0.4786990000000  0.5383880000000 1.0
C      1  0.5641010000000  0.4962030000000  0.6005280000000 1.0
C      1  0.4358990000000  0.5037970000000  0.6005280000000 1.0
C      1  0.4216390000000  0.4943020000000  0.5042950000000 1.0
C      1  0.5783610000000  0.5056980000000  0.5042950000000 1.0
C      1  0.4065770000000  0.4280910000000  0.5317150000000 1.0
C      1  0.5934230000000  0.5719090000000  0.5317150000000 1.0
C      1  0.4744170000000  0.3950890000000  0.4527340000000 1.0
C      1  0.5255830000000  0.6049110000000  0.4527340000000 1.0
C      1  0.5409460000000  0.5148960000000  0.6019590000000 1.0
C      1  0.4590530000000  0.4851040000000  0.6019590000000 1.0
C      1  0.5949820000000  0.4783470000000  0.5433660000000 1.0
C      1  0.4050180000000  0.5216530000000  0.5433660000000 1.0
C      1  0.6036550000000  0.4721460000000  0.5027480000000 1.0
C      1  0.3963460000000  0.5278540000000  0.5027480000000 1.0
C      1  0.5026830000000  0.4503060000000  0.5913210000000 1.0
C      1  0.4973170000000  0.5496940000000  0.5913220000000 1.0
C      1  0.5968930000000  0.4843450000000  0.4285300000000 1.0
C      1  0.4031070000000  0.5156550000000  0.4285300000000 1.0
C      1  0.5390650000000  0.4754230000000  0.4699960000000 1.0
C      1  0.4609350000000  0.5245770000000  0.4699960000000 1.0
C      1  0.4480560000000  0.4628130000000  0.4521620000000 1.0
C      1  0.5519440000000  0.5371870000000  0.4521620000000 1.0
C      1  0.5582380000000  0.5783320000000  0.4184140000000 1.0
C      1  0.4417620000000  0.4216680000000  0.4184140000000 1.0
C      1  0.5342150000000  0.5686800000000  0.5849250000000 1.0
C      1  0.4657850000000  0.4313210000000  0.5849250000000 1.0
C      1  0.4282500000000  0.5099340000000  0.5279970000000 1.0
C      1  0.5717500000000  0.4900660000000  0.5279970000000 1.0
C      1  0.4197950000000  0.4550420000000  0.5757000000000 1.0
C      1  0.5802050000000  0.5449580000000  0.5757000000000 1.0
C      1  0.5689990000000  0.5509940000000  0.4104120000000 1.0
C      1  0.4310010000000  0.4490060000000  0.4104130000000 1.0
C      1  0.5380350000000  0.4227960000000  0.4686510000000 1.0
C      1  0.4619650000000  0.5772040000000  0.4686510000000 1.0
C      1  0.5430550000000  0.5300140000000  0.5419160000000 1.0
C      1  0.4569450000000  0.4699860000000  0.5419170000000 1.0
C      1  0.4477840000000  0.4847910000000  0.4728350000000 1.0
C      1  0.5522160000000  0.5152090000000  0.4728340000000 1.0
C      1  0.4628790000000  0.5067330000000  0.3981420000000 1.0
C      1  0.5371210000000  0.4932670000000  0.3981410000000 1.0
C      1  0.5545070000000  0.5820960000000  0.4989310000000 1.0
C      1  0.4454930000000  0.4179040000000  0.4989310000000 1.0
C      1  0.4380390000000  0.4167560000000  0.4707280000000 1.0
C      1  0.5619610000000  0.5832440000000  0.4707280000000 1.0
C      1  0.5791860000000  0.5349300000000  0.5066690000000 1.0
C      1  0.4208140000000  0.4650700000000  0.5066690000000 1.0
C      1  0.5089410000000  0.5407120000000  0.5664390000000 1.0
C      1  0.4910590000000  0.4592870000000  0.5664390000000 1.0
C      1  0.4790900000000  0.6016710000000  0.4790320000000 1.0
C      1  0.5209100000000  0.3983290000000  0.4790320000000 1.0
C      1  0.4473550000000  0.5784840000000  0.5241650000000 1.0
C      1  0.5526450000000  0.4215160000000  0.5241650000000 1.0
C      1  0.4820040000000  0.5329020000000  0.6082700000000 1.0
C      1  0.5179960000000  0.4670980000000  0.6082700000000 1.0
C      1  0.4529970000000  0.4994390000000  0.3719300000000 1.0
C      1  0.5470030000000  0.5005610000000  0.3719300000000 1.0
C      1  0.5763200000000  0.4933180000000  0.4769690000000 1.0
C      1  0.4236800000000  0.5066820000000  0.4769690000000 1.0
C      1  0.6101200000000  0.5266320000000  0.4621970000000 1.0
C      1  0.3898800000000  0.4733680000000  0.4621970000000 1.0
C      1  0.5143050000000  0.4954980000000  0.6080200000000 1.0
C      1  0.4856950000000  0.5045020000000  0.6080210000000 1.0
C      1  0.5534190000000  0.4553830000000  0.4183880000000 1.0
C      1  0.4465810000000  0.5446170000000  0.4183880000000 1.0
C      1  0.4670620000000  0.5174520000000  0.4972660000000 1.0
C      1  0.5329380000000  0.4825480000000  0.4972660000000 1.0
C      1  0.5546690000000  0.5516580000000  0.5043530000000 1.0
C      1  0.4453310000000  0.4483420000000  0.5043540000000 1.0
C      1  0.5411060000000  0.4343030000000  0.5857060000000 1.0
C      1  0.4588940000000  0.5656970000000  0.5857060000000 1.0
C      1  0.3939810000000  0.4533570000000  0.5176550000000 1.0
C      1  0.6060190000000  0.5466430000000  0.5176550000000 1.0
C      1  0.4686330000000  0.5096900000000  0.4462500000000 1.0
C      1  0.5313670000000  0.4903100000000  0.4462500000000 1.0
C      1  0.4897360000000  0.3974450000000  0.4791700000000 1.0
C      1  0.5102640000000  0.6025550000000  0.4791700000000 1.0
C      1  0.4211950000000  0.4091280000000  0.5144570000000 1.0
C      1  0.5788050000000  0.5908720000000  0.5144570000000 1.0
C      1  0.5071110000000  0.4773120000000  0.4343630000000 1.0
C      1  0.4928890000000  0.5226880000000  0.4343630000000 1.0
C      1  0.5475300000000  0.4581080000000  0.5702680000000 1.0
C      1  0.4524700000000  0.5418920000000  0.5702680000000 1.0
C      1  0.5045770000000  0.4493370000000  0.4448580000000 1.0
C      1  0.4954230000000  0.5506630000000  0.4448580000000 1.0
C      1  0.5479810000000  0.5586810000000  0.5452170000000 1.0
C      1  0.4520190000000  0.4413180000000  0.5452170000000 1.0
C      1  0.4913550000000  0.5121960000000  0.4045990000000 1.0
C      1  0.5086450000000  0.4878040000000  0.4045990000000 1.0
C      1  0.4655250000000  0.5373830000000  0.5441770000000 1.0
C      1  0.5344760000000  0.4626170000000  0.5441770000000 1.0
C      1  0.5636250000000  0.5100320000000  0.5479900000000 1.0
C      1  0.4363750000000  0.4899680000000  0.5479900000000 1.0
C      1  0.4936820000000  0.5603050000000  0.5014750000000 1.0
C      1  0.5063180000000  0.4396940000000  0.5014750000000 1.0
C      1  0.5719470000000  0.4434510000000  0.5394670000000 1.0
C      1  0.4280530000000  0.5565490000000  0.5394670000000 1.0
C      1  0.4845870000000  0.5591090000000  0.4722730000000 1.0
C      1  0.5154130000000  0.4408910000000  0.4722730000000 1.0
C      1  0.4227410000000  0.5403690000000  0.4642060000000 1.0
C      1  0.5772590000000  0.4596310000000  0.4642060000000 1.0
C      1  0.5506740000000  0.4994630000000  0.4235090000000 1.0
C      1  0.4493260000000  0.5005370000000  0.4235090000000 1.0
C      1  0.5289610000000  0.4386640000000  0.4268170000000 1.0
C      1  0.4710390000000  0.5613360000000  0.4268170000000 1.0
C      1  0.5491240000000  0.4736190000000  0.5212270000000 1.0
C      1  0.4508760000000  0.5263810000000  0.5212270000000 1.0
C      1  0.4833600000000  0.4047470000000  0.5322380000000 1.0
C      1  0.5166400000000  0.5952530000000  0.5322380000000 1.0
C      1  0.4835570000000  0.4852010000000  0.4508370000000 1.0
C      1  0.5164430000000  0.5147990000000  0.4508370000000 1.0
C      1  0.4656200000000  0.4183490000000  0.4360500000000 1.0
C      1  0.5343800000000  0.5816510000000  0.4360500000000 1.0
C      1  0.5652370000000  0.4338530000000  0.4763840000000 1.0
C      1  0.4347630000000  0.5661470000000  0.4763840000000 1.0
C      1  0.5934420000000  0.5122440000000  0.4380210000000 1.0
C      1  0.4065580000000  0.4877560000000  0.4380210000000 1.0
C      1  0.6175220000000  0.5237530000000  0.4936660000000 1.0
C      1  0.3824780000000  0.4762470000000  0.4936660000000 1.0
C      1  0.4001370000000  0.4459280000000  0.4578030000000 1.0
C      1  0.5998640000000  0.5540720000000  0.4578030000000 1.0
C      1  0.4479410000000  0.4557600000000  0.5911140000000 1.0
C      1  0.5520590000000  0.5442400000000  0.5911140000000 1.0
C      1  0.4283100000000  0.4399750000000  0.4576220000000 1.0
C      1  0.5716900000000  0.5600250000000  0.4576220000000 1.0
C      1  0.5267650000000  0.5768540000000  0.5547180000000 1.0
C      1  0.4732350000000  0.4231460000000  0.5547180000000 1.0
C      1  0.4118300000000  0.4799210000000  0.5605340000000 1.0
C      1  0.5881700000000  0.5200790000000  0.5605340000000 1.0
C      1  0.4942080000000  0.5129140000000  0.5029580000000 1.0
C      1  0.5057920000000  0.4870860000000  0.5029580000000 1.0
END
