TITL C-862133-5440-944 4215.86208460067 125000 -1088.84828339824 0 0 189 (C1) n - 1
REM
REM in /home/nfs/bkarasulu/CARBON/AIRSS/Generating-Clusters/TERSOFF/Higher-Symm/FIRE-HFTN
REM
REM
REM
REM
REM
REM ./C.cell (b20cbc046b6831c77cfcea5457e17084)
REM AIRSS Version 0.9.1 bugfix July 2018 build 013d7b7c2542+ Fri, 06 Jul 2018 19:26:36 +0100
REM compiler GCC version 9.2.1 20190827 (Red Hat 9.2.1-1)
REM options -cpp -mtune=generic -march=x86-64 -g -O0 -fpre-include=/usr/include/finclude/math-vector-fortran.h
REM seed -1830712743 1473298056 1797230576 -760824836 -1690874342 1093420141 -402133964 1344174848 -968706377 -1363878600 496347541 1593305988 1054994132 -1070632924 882424135 -410236997 -1923096115 -79814696 -1736728469 -538449042 -212031545 -1865820690 592516031 -927176099 -1253876166 1435758851 -1640523608 1471495558 2020898440 -1212374006 1831901556 -162902205 -191268605
REM
CELL 1.54180   50.00000   50.00000   50.00000   90.00000   90.00000   90.00000
LATT -1
SFAC C  
C      1  0.5249990000000  0.4846480000000  0.6153460000000 1.0
C      1  0.5763660000000  0.4768080000000  0.5942040000000 1.0
C      1  0.4866620000000  0.4558230000000  0.5530210000000 1.0
C      1  0.4497830000000  0.4902880000000  0.4826510000000 1.0
C      1  0.4903820000000  0.4556200000000  0.4587380000000 1.0
C      1  0.4716120000000  0.3831050000000  0.5811470000000 1.0
C      1  0.5590730000000  0.5453340000000  0.3994310000000 1.0
C      1  0.5461120000000  0.4154490000000  0.4586870000000 1.0
C      1  0.5255350000000  0.5221980000000  0.4300600000000 1.0
C      1  0.4967000000000  0.6225520000000  0.5427280000000 1.0
C      1  0.4643570000000  0.5869680000000  0.5467580000000 1.0
C      1  0.5182920000000  0.4048300000000  0.4499600000000 1.0
C      1  0.4650180000000  0.4998530000000  0.4098740000000 1.0
C      1  0.4178680000000  0.4087390000000  0.4760690000000 1.0
C      1  0.4866650000000  0.5560630000000  0.5853560000000 1.0
C      1  0.5462780000000  0.4259620000000  0.4113050000000 1.0
C      1  0.5376400000000  0.5436090000000  0.5153380000000 1.0
C      1  0.6170150000000  0.5108160000000  0.5288470000000 1.0
C      1  0.4041790000000  0.4482190000000  0.5001220000000 1.0
C      1  0.4870630000000  0.3806450000000  0.5328970000000 1.0
C      1  0.5945500000000  0.5297730000000  0.5780670000000 1.0
C      1  0.5554190000000  0.4656630000000  0.4467070000000 1.0
C      1  0.5983710000000  0.5283730000000  0.5475810000000 1.0
C      1  0.4833510000000  0.5172800000000  0.4654400000000 1.0
C      1  0.5360130000000  0.6024070000000  0.5208600000000 1.0
C      1  0.4070540000000  0.5066050000000  0.5684410000000 1.0
C      1  0.4935930000000  0.4088640000000  0.4698500000000 1.0
C      1  0.5202900000000  0.5624150000000  0.5296010000000 1.0
C      1  0.5426060000000  0.4872700000000  0.5460200000000 1.0
C      1  0.5402420000000  0.4446800000000  0.4615750000000 1.0
C      1  0.5184320000000  0.4925190000000  0.5594080000000 1.0
C      1  0.4866220000000  0.5266850000000  0.4938390000000 1.0
C      1  0.4953250000000  0.4839000000000  0.5447490000000 1.0
C      1  0.5364090000000  0.4685060000000  0.5228590000000 1.0
C      1  0.3867190000000  0.5397050000000  0.5354390000000 1.0
C      1  0.4276780000000  0.5069120000000  0.4932570000000 1.0
C      1  0.5853750000000  0.4734230000000  0.4386830000000 1.0
C      1  0.4219840000000  0.5026520000000  0.5924670000000 1.0
C      1  0.5442720000000  0.5446590000000  0.5906310000000 1.0
C      1  0.4474380000000  0.6098570000000  0.4728950000000 1.0
C      1  0.4396520000000  0.4867860000000  0.4127650000000 1.0
C      1  0.4585090000000  0.4678440000000  0.6088890000000 1.0
C      1  0.5750690000000  0.5537600000000  0.4749790000000 1.0
C      1  0.6044710000000  0.4821560000000  0.5858400000000 1.0
C      1  0.5525960000000  0.5146510000000  0.5490900000000 1.0
C      1  0.5423140000000  0.3997760000000  0.5059440000000 1.0
C      1  0.3805830000000  0.5165750000000  0.4732640000000 1.0
C      1  0.3920790000000  0.4744700000000  0.4983740000000 1.0
C      1  0.5510840000000  0.4257160000000  0.5393880000000 1.0
C      1  0.5589820000000  0.5289660000000  0.5265760000000 1.0
C      1  0.5544470000000  0.5154490000000  0.4419120000000 1.0
C      1  0.4422350000000  0.5312940000000  0.5241570000000 1.0
C      1  0.4511670000000  0.5540460000000  0.5912150000000 1.0
C      1  0.4911040000000  0.6159730000000  0.5139870000000 1.0
C      1  0.5107110000000  0.5672600000000  0.4542330000000 1.0
C      1  0.4569020000000  0.3947510000000  0.4550710000000 1.0
C      1  0.4333110000000  0.4142030000000  0.5245200000000 1.0
C      1  0.4910590000000  0.4872030000000  0.5907570000000 1.0
C      1  0.4506310000000  0.5520030000000  0.4510240000000 1.0
C      1  0.4466900000000  0.4393190000000  0.5655400000000 1.0
C      1  0.5532730000000  0.4496380000000  0.3939040000000 1.0
C      1  0.6172270000000  0.4700680000000  0.5627020000000 1.0
C      1  0.5506870000000  0.4796980000000  0.3987330000000 1.0
C      1  0.4257210000000  0.6113130000000  0.5259540000000 1.0
C      1  0.6204240000000  0.5162110000000  0.4974810000000 1.0
C      1  0.5807130000000  0.5207820000000  0.5103060000000 1.0
C      1  0.5629100000000  0.4172700000000  0.4337260000000 1.0
C      1  0.5547040000000  0.4472430000000  0.5205950000000 1.0
C      1  0.5159680000000  0.4544980000000  0.4754640000000 1.0
C      1  0.4668630000000  0.5424630000000  0.3887950000000 1.0
C      1  0.5128900000000  0.4001210000000  0.5061100000000 1.0
C      1  0.4199840000000  0.4964050000000  0.4332140000000 1.0
C      1  0.4885710000000  0.4873040000000  0.4204730000000 1.0
C      1  0.3932060000000  0.5532630000000  0.5092870000000 1.0
C      1  0.3880020000000  0.4871320000000  0.4717290000000 1.0
C      1  0.4284860000000  0.5364610000000  0.4731170000000 1.0
C      1  0.5764390000000  0.5722760000000  0.5597400000000 1.0
C      1  0.5152270000000  0.6036470000000  0.4982750000000 1.0
C      1  0.4825880000000  0.4350270000000  0.3888020000000 1.0
C      1  0.3933730000000  0.4236100000000  0.4857090000000 1.0
C      1  0.4562960000000  0.4538380000000  0.5051810000000 1.0
C      1  0.4383510000000  0.4010200000000  0.4970080000000 1.0
C      1  0.5925830000000  0.5474820000000  0.4974110000000 1.0
C      1  0.4099420000000  0.4861940000000  0.5470260000000 1.0
C      1  0.4986500000000  0.5221610000000  0.6256870000000 1.0
C      1  0.5268360000000  0.5225580000000  0.3827710000000 1.0
C      1  0.5184350000000  0.4157180000000  0.4197840000000 1.0
C      1  0.5975130000000  0.5967280000000  0.4904780000000 1.0
C      1  0.4671590000000  0.3915960000000  0.4853340000000 1.0
C      1  0.5724130000000  0.4918940000000  0.4991140000000 1.0
C      1  0.3987980000000  0.5384390000000  0.4835580000000 1.0
C      1  0.4732170000000  0.5986890000000  0.4592340000000 1.0
C      1  0.4959440000000  0.4213010000000  0.5180670000000 1.0
C      1  0.5467600000000  0.4914280000000  0.4571520000000 1.0
C      1  0.5005140000000  0.4925270000000  0.6313070000000 1.0
C      1  0.4305110000000  0.4331190000000  0.4625010000000 1.0
C      1  0.4031210000000  0.4951210000000  0.5169760000000 1.0
C      1  0.4319500000000  0.4506070000000  0.4873250000000 1.0
C      1  0.4038450000000  0.4770410000000  0.4478290000000 1.0
C      1  0.6042990000000  0.4510560000000  0.5247980000000 1.0
C      1  0.4805500000000  0.4796940000000  0.4469310000000 1.0
C      1  0.5102180000000  0.5353750000000  0.5987560000000 1.0
C      1  0.4415190000000  0.6014670000000  0.5011510000000 1.0
C      1  0.4765060000000  0.4743920000000  0.6321820000000 1.0
C      1  0.5277750000000  0.4278990000000  0.5569100000000 1.0
C      1  0.5860770000000  0.4148860000000  0.4846130000000 1.0
C      1  0.5237430000000  0.4766030000000  0.4971000000000 1.0
C      1  0.4632900000000  0.5288080000000  0.3631850000000 1.0
C      1  0.4709020000000  0.5908650000000  0.4279660000000 1.0
C      1  0.5024730000000  0.5756630000000  0.5109050000000 1.0
C      1  0.5906070000000  0.4434310000000  0.4858680000000 1.0
C      1  0.5205570000000  0.5796420000000  0.4115580000000 1.0
C      1  0.4825570000000  0.5041650000000  0.5217210000000 1.0
C      1  0.5302970000000  0.4461350000000  0.5819100000000 1.0
C      1  0.5590040000000  0.4045570000000  0.4822020000000 1.0
C      1  0.4281410000000  0.5525150000000  0.5674510000000 1.0
C      1  0.5413070000000  0.5594030000000  0.4186640000000 1.0
C      1  0.5455400000000  0.4927410000000  0.4852630000000 1.0
C      1  0.4853290000000  0.6028840000000  0.5618420000000 1.0
C      1  0.4663870000000  0.5272590000000  0.4132020000000 1.0
C      1  0.4618120000000  0.4549980000000  0.3830030000000 1.0
C      1  0.5144320000000  0.4991760000000  0.4153820000000 1.0
C      1  0.4912500000000  0.5750280000000  0.4125180000000 1.0
C      1  0.4695340000000  0.4270900000000  0.5075450000000 1.0
C      1  0.5353280000000  0.4951210000000  0.3791760000000 1.0
C      1  0.5690470000000  0.4954500000000  0.4184930000000 1.0
C      1  0.4750050000000  0.5361890000000  0.4407090000000 1.0
C      1  0.6155120000000  0.4590860000000  0.4789620000000 1.0
C      1  0.5794150000000  0.4581440000000  0.5095350000000 1.0
C      1  0.4700370000000  0.3929690000000  0.5538130000000 1.0
C      1  0.4797790000000  0.5588620000000  0.4953270000000 1.0
C      1  0.5716430000000  0.6107330000000  0.4802970000000 1.0
C      1  0.4672590000000  0.4762690000000  0.3627660000000 1.0
C      1  0.4780510000000  0.3726890000000  0.5060390000000 1.0
C      1  0.4441190000000  0.5777980000000  0.4373140000000 1.0
C      1  0.4288950000000  0.5978950000000  0.4525970000000 1.0
C      1  0.4710060000000  0.5048790000000  0.5785800000000 1.0
C      1  0.4450660000000  0.4725200000000  0.5285220000000 1.0
C      1  0.5551370000000  0.5817670000000  0.5164470000000 1.0
C      1  0.5777970000000  0.5230570000000  0.4064130000000 1.0
C      1  0.5623550000000  0.4994970000000  0.6037940000000 1.0
C      1  0.4104510000000  0.4481740000000  0.4435660000000 1.0
C      1  0.5538730000000  0.5710700000000  0.4880720000000 1.0
C      1  0.5354410000000  0.5304360000000  0.5654620000000 1.0
C      1  0.4360500000000  0.5978590000000  0.5502150000000 1.0
C      1  0.5430980000000  0.5969580000000  0.4761420000000 1.0
C      1  0.4601550000000  0.4431570000000  0.5921150000000 1.0
C      1  0.6268850000000  0.4843220000000  0.5369000000000 1.0
C      1  0.4310150000000  0.4382640000000  0.4208760000000 1.0
C      1  0.4485520000000  0.5438190000000  0.4983290000000 1.0
C      1  0.6009820000000  0.5080960000000  0.4729540000000 1.0
C      1  0.6046580000000  0.4813160000000  0.4607880000000 1.0
C      1  0.4519950000000  0.5015290000000  0.3600670000000 1.0
C      1  0.4199890000000  0.5247240000000  0.4421030000000 1.0
C      1  0.5054650000000  0.5437780000000  0.4385080000000 1.0
C      1  0.4972340000000  0.4596620000000  0.5813160000000 1.0
C      1  0.4122080000000  0.4346010000000  0.5252190000000 1.0
C      1  0.5170300000000  0.5021800000000  0.5904020000000 1.0
C      1  0.4943670000000  0.4304080000000  0.4151500000000 1.0
C      1  0.4301920000000  0.4620080000000  0.5514660000000 1.0
C      1  0.5681230000000  0.5258440000000  0.5938400000000 1.0
C      1  0.5255060000000  0.5741790000000  0.5574950000000 1.0
C      1  0.5332960000000  0.5846370000000  0.4512650000000 1.0
C      1  0.5503900000000  0.5690020000000  0.5726860000000 1.0
C      1  0.5019340000000  0.5814990000000  0.5733590000000 1.0
C      1  0.4402400000000  0.4594610000000  0.4028000000000 1.0
C      1  0.4547650000000  0.4882570000000  0.4552690000000 1.0
C      1  0.4515540000000  0.5023110000000  0.5274540000000 1.0
C      1  0.5023260000000  0.4330060000000  0.5431550000000 1.0
C      1  0.5805560000000  0.4353520000000  0.5676900000000 1.0
C      1  0.4241960000000  0.5777960000000  0.4951570000000 1.0
C      1  0.5770560000000  0.5269590000000  0.4616340000000 1.0
C      1  0.5987710000000  0.5735200000000  0.5111750000000 1.0
C      1  0.5623860000000  0.4521370000000  0.5837930000000 1.0
C      1  0.4038780000000  0.5350290000000  0.5606200000000 1.0
C      1  0.4516230000000  0.4149710000000  0.5474160000000 1.0
C      1  0.4802200000000  0.4349670000000  0.4398040000000 1.0
C      1  0.4472630000000  0.5486200000000  0.5463130000000 1.0
C      1  0.3811630000000  0.5139360000000  0.5230790000000 1.0
C      1  0.4486350000000  0.5123470000000  0.5955440000000 1.0
C      1  0.6039590000000  0.4456450000000  0.5535370000000 1.0
C      1  0.4735750000000  0.4809010000000  0.4988990000000 1.0
C      1  0.4671850000000  0.5974750000000  0.5172590000000 1.0
C      1  0.4759130000000  0.5536030000000  0.5539130000000 1.0
C      1  0.4887640000000  0.5762340000000  0.4707340000000 1.0
C      1  0.4537350000000  0.4227160000000  0.4428920000000 1.0
C      1  0.4785720000000  0.5214550000000  0.5531800000000 1.0
C      1  0.6293970000000  0.4637170000000  0.5108450000000 1.0
C      1  0.5787860000000  0.5796440000000  0.5318410000000 1.0
END
