TITL C-862129-6180-133 10.4917293525632 125000 -918.856091959393 0 0 157 (C2) n - 1
REM
REM in /home/nfs/bkarasulu/CARBON/AIRSS/Generating-Clusters/TERSOFF/Higher-Symm/FIRE-HFTN
REM
REM
REM
REM
REM
REM ./C.cell (b20cbc046b6831c77cfcea5457e17084)
REM AIRSS Version 0.9.1 bugfix July 2018 build 013d7b7c2542+ Fri, 06 Jul 2018 19:26:36 +0100
REM compiler GCC version 9.2.1 20190827 (Red Hat 9.2.1-1)
REM options -cpp -mtune=generic -march=x86-64 -g -O0 -fpre-include=/usr/include/finclude/math-vector-fortran.h
REM seed 475964064 840452065 -1901450995 705072238 815042331 223902171 -1085173228 -108984870 1656067357 -869761283 1319933665 547531929 1727875821 743290260 8701957 1669245753 -832483838 1788711937 1164834636 968329612 -1135949896 1847799885 -398768836 -112517216 1148373633 -1263181038 -1761141548 -618524995 1236880671 -543145827 1055596823 4084833 965351452
REM
CELL 1.54180   50.00000   50.00000   50.00000   90.00000   90.00000   90.00000
LATT -1
SFAC C  
C      1  0.5625250000000  0.4326210000000  0.5431230000000 1.0
C      1  0.4373200000000  0.5673800000000  0.5431250000000 1.0
C      1  0.4339820000000  0.4341790000000  0.5443930000000 1.0
C      1  0.5658630000000  0.5658220000000  0.5443920000000 1.0
C      1  0.5549260000000  0.4619590000000  0.4997330000000 1.0
C      1  0.4449180000000  0.5380440000000  0.4997360000000 1.0
C      1  0.4456780000000  0.4625490000000  0.4989160000000 1.0
C      1  0.5541660000000  0.5374530000000  0.4989150000000 1.0
C      1  0.5745520000000  0.5144670000000  0.4619560000000 1.0
C      1  0.4252910000000  0.4855360000000  0.4619580000000 1.0
C      1  0.4256220000000  0.5146650000000  0.4615990000000 1.0
C      1  0.5742200000000  0.4853370000000  0.4615970000000 1.0
C      1  0.4129660000000  0.5312490000000  0.5784160000000 1.0
C      1  0.5868800000000  0.4687520000000  0.5784130000000 1.0
C      1  0.5869630000000  0.5280440000000  0.5795080000000 1.0
C      1  0.4128830000000  0.4719570000000  0.5795100000000 1.0
C      1  0.5152980000000  0.5769400000000  0.4803600000000 1.0
C      1  0.4845450000000  0.4230620000000  0.4803590000000 1.0
C      1  0.4843710000000  0.5769690000000  0.4803160000000 1.0
C      1  0.5154720000000  0.4230330000000  0.4803140000000 1.0
C      1  0.5998700000000  0.4702530000000  0.4657860000000 1.0
C      1  0.3999720000000  0.5297500000000  0.4657890000000 1.0
C      1  0.3988620000000  0.4714850000000  0.4662140000000 1.0
C      1  0.6009800000000  0.5285170000000  0.4662120000000 1.0
C      1  0.5499370000000  0.4787280000000  0.5226500000000 1.0
C      1  0.4499080000000  0.5212740000000  0.5226520000000 1.0
C      1  0.4506600000000  0.4793400000000  0.5218090000000 1.0
C      1  0.5491850000000  0.5206620000000  0.5218070000000 1.0
C      1  0.5155990000000  0.5842610000000  0.4311530000000 1.0
C      1  0.4842430000000  0.4157430000000  0.4311530000000 1.0
C      1  0.4844660000000  0.5842390000000  0.4310800000000 1.0
C      1  0.5153760000000  0.4157640000000  0.4310790000000 1.0
C      1  0.5325270000000  0.5183100000000  0.4293290000000 1.0
C      1  0.4673140000000  0.4816930000000  0.4293300000000 1.0
C      1  0.4674590000000  0.5182180000000  0.4291930000000 1.0
C      1  0.5323830000000  0.4817850000000  0.4291920000000 1.0
C      1  0.5153040000000  0.5363910000000  0.4135070000000 1.0
C      1  0.4845370000000  0.4636120000000  0.4135070000000 1.0
C      1  0.4848160000000  0.5363370000000  0.4134420000000 1.0
C      1  0.5150250000000  0.4636670000000  0.4134410000000 1.0
C      1  0.5143820000000  0.3902040000000  0.5278290000000 1.0
C      1  0.4854620000000  0.6097980000000  0.5278310000000 1.0
C      1  0.4924580000000  0.4064470000000  0.5181120000000 1.0
C      1  0.5073860000000  0.5935550000000  0.5181130000000 1.0
C      1  0.4203490000000  0.4850420000000  0.4132690000000 1.0
C      1  0.5794920000000  0.5149610000000  0.4132670000000 1.0
C      1  0.5793600000000  0.4851090000000  0.4130970000000 1.0
C      1  0.4204810000000  0.5148950000000  0.4131000000000 1.0
C      1  0.4710390000000  0.5144690000000  0.4597760000000 1.0
C      1  0.5288040000000  0.4855330000000  0.4597750000000 1.0
C      1  0.5286610000000  0.5145850000000  0.4598540000000 1.0
C      1  0.4711810000000  0.4854180000000  0.4598550000000 1.0
C      1  0.4850040000000  0.4731500000000  0.6265260000000 1.0
C      1  0.5148430000000  0.5268500000000  0.6265260000000 1.0
C      1  0.5141370000000  0.4727950000000  0.6266300000000 1.0
C      1  0.4857100000000  0.5272060000000  0.6266310000000 1.0
C      1  0.5622830000000  0.5273150000000  0.4348000000000 1.0
C      1  0.4375590000000  0.4726880000000  0.4348010000000 1.0
C      1  0.4378620000000  0.5272740000000  0.4344260000000 1.0
C      1  0.5619800000000  0.4727290000000  0.4344240000000 1.0
C      1  0.4394300000000  0.5785790000000  0.4589260000000 1.0
C      1  0.5604130000000  0.4214240000000  0.4589230000000 1.0
C      1  0.5605690000000  0.5784760000000  0.4593170000000 1.0
C      1  0.4392730000000  0.4215270000000  0.4593180000000 1.0
C      1  0.4210840000000  0.4493930000000  0.4941650000000 1.0
C      1  0.5787590000000  0.5506090000000  0.4941640000000 1.0
C      1  0.5794670000000  0.4484010000000  0.4952050000000 1.0
C      1  0.4203760000000  0.5516010000000  0.4952080000000 1.0
C      1  0.4858950000000  0.5579420000000  0.5856900000000 1.0
C      1  0.5139510000000  0.4420590000000  0.5856890000000 1.0
C      1  0.5157230000000  0.5574760000000  0.5855270000000 1.0
C      1  0.4841240000000  0.4425250000000  0.5855270000000 1.0
C      1  0.6069740000000  0.4837690000000  0.5632230000000 1.0
C      1  0.3928710000000  0.5162320000000  0.5632260000000 1.0
C      1  0.3919490000000  0.4863430000000  0.5649690000000 1.0
C      1  0.6078970000000  0.5136580000000  0.5649660000000 1.0
C      1  0.4266270000000  0.5790410000000  0.4879800000000 1.0
C      1  0.5732170000000  0.4209620000000  0.4879770000000 1.0
C      1  0.5732200000000  0.5786830000000  0.4886530000000 1.0
C      1  0.4266230000000  0.4213190000000  0.4886540000000 1.0
C      1  0.3828600000000  0.4839480000000  0.5142410000000 1.0
C      1  0.6169840000000  0.5160540000000  0.5142380000000 1.0
C      1  0.6162240000000  0.4871450000000  0.5121180000000 1.0
C      1  0.3836200000000  0.5128570000000  0.5121220000000 1.0
C      1  0.4748040000000  0.5640260000000  0.4120860000000 1.0
C      1  0.5250370000000  0.4359780000000  0.4120850000000 1.0
C      1  0.5253200000000  0.5640670000000  0.4121760000000 1.0
C      1  0.4745210000000  0.4359360000000  0.4121760000000 1.0
C      1  0.3795770000000  0.5261290000000  0.4865410000000 1.0
C      1  0.6202660000000  0.4738740000000  0.4865370000000 1.0
C      1  0.6168010000000  0.5331710000000  0.4906960000000 1.0
C      1  0.3830420000000  0.4668320000000  0.4906990000000 1.0
C      1  0.3947830000000  0.4570100000000  0.4402800000000 1.0
C      1  0.6050590000000  0.5429930000000  0.4402780000000 1.0
C      1  0.6045480000000  0.4561940000000  0.4397680000000 1.0
C      1  0.3952940000000  0.5438090000000  0.4397720000000 1.0
C      1  0.4855010000000  0.5481260000000  0.5194780000000 1.0
C      1  0.5143440000000  0.4518760000000  0.5194770000000 1.0
C      1  0.5139180000000  0.5481870000000  0.5194680000000 1.0
C      1  0.4859260000000  0.4518150000000  0.5194680000000 1.0
C      1  0.4694170000000  0.5858220000000  0.4569160000000 1.0
C      1  0.5304250000000  0.4141810000000  0.4569140000000 1.0
C      1  0.5304970000000  0.5857700000000  0.4570900000000 1.0
C      1  0.4693450000000  0.4142330000000  0.4570890000000 1.0
C      1  0.6102000000000  0.4814840000000  0.4186390000000 1.0
C      1  0.3896410000000  0.5185190000000  0.4186430000000 1.0
C      1  0.3894560000000  0.4819770000000  0.4187840000000 1.0
C      1  0.6103850000000  0.5180260000000  0.4187810000000 1.0
C      1  0.5411820000000  0.3902910000000  0.5168000000000 1.0
C      1  0.4586620000000  0.6097110000000  0.5168030000000 1.0
C      1  0.4645850000000  0.3985040000000  0.5184170000000 1.0
C      1  0.5352600000000  0.6014980000000  0.5184180000000 1.0
C      1  0.6157420000000  0.4722640000000  0.5374080000000 1.0
C      1  0.3841020000000  0.5277370000000  0.5374120000000 1.0
C      1  0.3810110000000  0.4729420000000  0.5412140000000 1.0
C      1  0.6188340000000  0.5270600000000  0.5412110000000 1.0
C      1  0.5725590000000  0.4416730000000  0.4381080000000 1.0
C      1  0.4272830000000  0.5583310000000  0.4381110000000 1.0
C      1  0.4269070000000  0.4417610000000  0.4385300000000 1.0
C      1  0.5729340000000  0.5582420000000  0.4385280000000 1.0
C      1  0.4420260000000  0.4169300000000  0.5171760000000 1.0
C      1  0.5578180000000  0.5830720000000  0.5171760000000 1.0
C      1  0.5585690000000  0.4136420000000  0.5155380000000 1.0
C      1  0.4412750000000  0.5863600000000  0.5155410000000 1.0
C      1  0.4782050000000  0.4784340000000  0.5302810000000 1.0
C      1  0.5216400000000  0.5215680000000  0.5302810000000 1.0
C      1  0.5220720000000  0.4784230000000  0.5306870000000 1.0
C      1  0.4777720000000  0.5215790000000  0.5306880000000 1.0
C      1  0.5318680000000  0.4665310000000  0.5798570000000 1.0
C      1  0.4679780000000  0.5334700000000  0.5798590000000 1.0
C      1  0.4670520000000  0.4675910000000  0.5796170000000 1.0
C      1  0.5327940000000  0.5324110000000  0.5796170000000 1.0
C      1  0.5270230000000  0.5518260000000  0.4932150000000 1.0
C      1  0.4728210000000  0.4481770000000  0.4932150000000 1.0
C      1  0.4723070000000  0.5517890000000  0.4931970000000 1.0
C      1  0.5275360000000  0.4482130000000  0.4931950000000 1.0
C      1  0.4848670000000  0.4791690000000  0.5590160000000 1.0
C      1  0.5149780000000  0.5208330000000  0.5590160000000 1.0
C      1  0.5147550000000  0.4789450000000  0.5592860000000 1.0
C      1  0.4850900000000  0.5210560000000  0.5592870000000 1.0
C      1  0.5602980000000  0.4610220000000  0.5651660000000 1.0
C      1  0.4395480000000  0.5389800000000  0.5651680000000 1.0
C      1  0.4381710000000  0.4632210000000  0.5652640000000 1.0
C      1  0.5616750000000  0.5367800000000  0.5652630000000 1.0
C      1  0.5691860000000  0.4843790000000  0.5436820000000 1.0
C      1  0.4306590000000  0.5156230000000  0.5436840000000 1.0
C      1  0.4318580000000  0.4848260000000  0.5426960000000 1.0
C      1  0.5679870000000  0.5151760000000  0.5426940000000 1.0
C      1  0.4860770000000  0.4685960000000  0.4765960000000 1.0
C      1  0.5137650000000  0.5314070000000  0.4765960000000 1.0
C      1  0.5141390000000  0.4686650000000  0.4765850000000 1.0
C      1  0.4857040000000  0.5313370000000  0.4765860000000 1.0
C      1  0.5310910000000  0.5148760000000  0.6049660000000 1.0
C      1  0.4687560000000  0.4851250000000  0.6049660000000 1.0
C      1  0.4690460000000  0.5158010000000  0.6050870000000 1.0
C      1  0.5308010000000  0.4842000000000  0.6050860000000 1.0
C      1  0.4999220000000  0.5000010000000  0.5170540000000 1.0
END
