TITL C-862130-1496-429 13.1849951114172 125000 -913.303759165293 0 0 173 (C1) n - 1
REM
REM in /home/nfs/bkarasulu/CARBON/AIRSS/Generating-Clusters/TERSOFF/Higher-Symm/FIRE-HFTN
REM
REM
REM
REM
REM
REM ./C.cell (b20cbc046b6831c77cfcea5457e17084)
REM AIRSS Version 0.9.1 bugfix July 2018 build 013d7b7c2542+ Fri, 06 Jul 2018 19:26:36 +0100
REM compiler GCC version 9.2.1 20190827 (Red Hat 9.2.1-1)
REM options -cpp -mtune=generic -march=x86-64 -g -O0 -fpre-include=/usr/include/finclude/math-vector-fortran.h
REM seed 1151741762 1678942577 1764519951 2055270150 2019092174 -1424191515 1706173441 2139281529 -1011988417 865070208 735794868 292172292 973026685 53500486 -599545310 -1744661702 -447037937 -2027061448 952533391 -1742297045 -2047361737 1616777652 849816742 1286196956 -1694480480 705360709 -124590927 -1031615473 -1792640377 1516994473 1453196176 380499543 -290511511
REM
CELL 1.54180   50.00000   50.00000   50.00000   90.00000   90.00000   90.00000
LATT -1
SFAC C  
C      1  0.4101570000000  0.5184790000000  0.5716810000000 1.0
C      1  0.4117600000000  0.4269510000000  0.5128710000000 1.0
C      1  0.4144530000000  0.4842630000000  0.4250060000000 1.0
C      1  0.4133240000000  0.5746800000000  0.4869230000000 1.0
C      1  0.4160430000000  0.5173850000000  0.4242780000000 1.0
C      1  0.4153550000000  0.4248100000000  0.4799630000000 1.0
C      1  0.4108480000000  0.4836740000000  0.5727950000000 1.0
C      1  0.4133930000000  0.5738480000000  0.5217780000000 1.0
C      1  0.4836440000000  0.5670080000000  0.5907940000000 1.0
C      1  0.4776140000000  0.4158650000000  0.5675210000000 1.0
C      1  0.4827150000000  0.4320560000000  0.4110560000000 1.0
C      1  0.4787010000000  0.5903670000000  0.4322290000000 1.0
C      1  0.4742550000000  0.5737400000000  0.4073940000000 1.0
C      1  0.4823400000000  0.4112610000000  0.4314380000000 1.0
C      1  0.4752020000000  0.4311200000000  0.5936530000000 1.0
C      1  0.4823480000000  0.5891520000000  0.5720320000000 1.0
C      1  0.5596320000000  0.5128260000000  0.4669530000000 1.0
C      1  0.5610260000000  0.5320640000000  0.5113270000000 1.0
C      1  0.5583860000000  0.4875010000000  0.5311750000000 1.0
C      1  0.5585640000000  0.4691850000000  0.4859280000000 1.0
C      1  0.5721230000000  0.5127430000000  0.5293180000000 1.0
C      1  0.5729970000000  0.5298530000000  0.4866440000000 1.0
C      1  0.5718730000000  0.4880050000000  0.4688630000000 1.0
C      1  0.5708360000000  0.4705760000000  0.5113480000000 1.0
C      1  0.5720680000000  0.4619070000000  0.4361440000000 1.0
C      1  0.5690390000000  0.5635240000000  0.4621390000000 1.0
C      1  0.5710780000000  0.5361680000000  0.5640400000000 1.0
C      1  0.5709910000000  0.4378480000000  0.5374590000000 1.0
C      1  0.5732920000000  0.4639500000000  0.5624090000000 1.0
C      1  0.5710630000000  0.5619370000000  0.5387110000000 1.0
C      1  0.5729050000000  0.5382070000000  0.4364750000000 1.0
C      1  0.5740370000000  0.4377340000000  0.4630260000000 1.0
C      1  0.5077520000000  0.5887060000000  0.5053230000000 1.0
C      1  0.5020910000000  0.4867890000000  0.5961930000000 1.0
C      1  0.5063970000000  0.4087300000000  0.4976450000000 1.0
C      1  0.4993840000000  0.5113170000000  0.4057340000000 1.0
C      1  0.4951070000000  0.5961090000000  0.4780640000000 1.0
C      1  0.4885430000000  0.4833990000000  0.3983920000000 1.0
C      1  0.4913600000000  0.3996930000000  0.5237180000000 1.0
C      1  0.4924690000000  0.5154530000000  0.6032200000000 1.0
C      1  0.4442140000000  0.5151290000000  0.4619170000000 1.0
C      1  0.4446780000000  0.5375760000000  0.5148400000000 1.0
C      1  0.4427700000000  0.4846250000000  0.5371860000000 1.0
C      1  0.4440990000000  0.4620870000000  0.4842130000000 1.0
C      1  0.4377370000000  0.5161280000000  0.5390290000000 1.0
C      1  0.4379000000000  0.5387560000000  0.4834420000000 1.0
C      1  0.4376650000000  0.4835980000000  0.4602600000000 1.0
C      1  0.4358790000000  0.4612500000000  0.5150800000000 1.0
C      1  0.6032350000000  0.5350120000000  0.4859810000000 1.0
C      1  0.6024600000000  0.5135520000000  0.5339960000000 1.0
C      1  0.6015920000000  0.4665930000000  0.5128500000000 1.0
C      1  0.6026490000000  0.4872040000000  0.4654940000000 1.0
C      1  0.6126260000000  0.5351080000000  0.5164560000000 1.0
C      1  0.6135470000000  0.5171190000000  0.4651550000000 1.0
C      1  0.6130760000000  0.4665100000000  0.4834390000000 1.0
C      1  0.6128240000000  0.4838550000000  0.5336180000000 1.0
C      1  0.4385320000000  0.5881160000000  0.4695130000000 1.0
C      1  0.4349650000000  0.5399010000000  0.5864460000000 1.0
C      1  0.4339010000000  0.4130460000000  0.5333800000000 1.0
C      1  0.4385060000000  0.4655850000000  0.4122190000000 1.0
C      1  0.4383180000000  0.5854850000000  0.5412300000000 1.0
C      1  0.4412200000000  0.5319720000000  0.4129260000000 1.0
C      1  0.4416910000000  0.4124520000000  0.4671080000000 1.0
C      1  0.4355240000000  0.4671520000000  0.5855080000000 1.0
C      1  0.4858920000000  0.4633960000000  0.4880490000000 1.0
C      1  0.4864730000000  0.5119400000000  0.4663650000000 1.0
C      1  0.4865420000000  0.5342750000000  0.5153650000000 1.0
C      1  0.4852360000000  0.4854040000000  0.5365740000000 1.0
C      1  0.4775450000000  0.4650850000000  0.5168110000000 1.0
C      1  0.4795150000000  0.5148180000000  0.5360970000000 1.0
C      1  0.4792450000000  0.5322460000000  0.4865410000000 1.0
C      1  0.4789570000000  0.4825180000000  0.4672470000000 1.0
C      1  0.4535290000000  0.4616410000000  0.4403460000000 1.0
C      1  0.4525980000000  0.5597170000000  0.4637820000000 1.0
C      1  0.4532650000000  0.5363110000000  0.5608300000000 1.0
C      1  0.4497910000000  0.4402910000000  0.5362630000000 1.0
C      1  0.4537380000000  0.4616790000000  0.5594260000000 1.0
C      1  0.4564470000000  0.5595080000000  0.5381960000000 1.0
C      1  0.4569910000000  0.5391960000000  0.4397070000000 1.0
C      1  0.4578840000000  0.4395520000000  0.4630220000000 1.0
C      1  0.5294040000000  0.5135410000000  0.4598090000000 1.0
C      1  0.5303370000000  0.5309240000000  0.5087850000000 1.0
C      1  0.5272260000000  0.4859970000000  0.5367060000000 1.0
C      1  0.5281690000000  0.4639660000000  0.4834350000000 1.0
C      1  0.5213310000000  0.5172720000000  0.5354540000000 1.0
C      1  0.5202610000000  0.5347170000000  0.4784720000000 1.0
C      1  0.5203120000000  0.4846180000000  0.4613990000000 1.0
C      1  0.5192440000000  0.4653680000000  0.5134870000000 1.0
C      1  0.4504630000000  0.3919350000000  0.4874990000000 1.0
C      1  0.4540660000000  0.5130090000000  0.3933240000000 1.0
C      1  0.4411500000000  0.6052090000000  0.5186520000000 1.0
C      1  0.4493120000000  0.4928940000000  0.5930840000000 1.0
C      1  0.4394370000000  0.3893680000000  0.5141620000000 1.0
C      1  0.4360400000000  0.5151320000000  0.6045690000000 1.0
C      1  0.4534090000000  0.5940610000000  0.4959070000000 1.0
C      1  0.4462570000000  0.4852460000000  0.3894920000000 1.0
C      1  0.4049080000000  0.4808600000000  0.4574510000000 1.0
C      1  0.4048900000000  0.5413700000000  0.4809840000000 1.0
C      1  0.4044070000000  0.5196930000000  0.5388210000000 1.0
C      1  0.4028420000000  0.4596390000000  0.5166840000000 1.0
C      1  0.4089360000000  0.4840670000000  0.5396600000000 1.0
C      1  0.4117010000000  0.5420610000000  0.5160990000000 1.0
C      1  0.4106240000000  0.5165690000000  0.4572550000000 1.0
C      1  0.4108250000000  0.4579020000000  0.4815400000000 1.0
C      1  0.5456670000000  0.5175560000000  0.5696630000000 1.0
C      1  0.5451050000000  0.4324260000000  0.5166450000000 1.0
C      1  0.5458750000000  0.4834650000000  0.4281140000000 1.0
C      1  0.5426160000000  0.5693820000000  0.4860700000000 1.0
C      1  0.5475320000000  0.5193270000000  0.4228950000000 1.0
C      1  0.5481500000000  0.4274550000000  0.4809080000000 1.0
C      1  0.5474010000000  0.4815610000000  0.5729440000000 1.0
C      1  0.5433540000000  0.5684620000000  0.5223140000000 1.0
C      1  0.4484870000000  0.5596290000000  0.4019420000000 1.0
C      1  0.4556770000000  0.5988950000000  0.5634290000000 1.0
C      1  0.4499000000000  0.4452380000000  0.6021180000000 1.0
C      1  0.4558230000000  0.4017540000000  0.4413260000000 1.0
C      1  0.4580840000000  0.5563690000000  0.6028010000000 1.0
C      1  0.4563300000000  0.6030950000000  0.4479320000000 1.0
C      1  0.4565900000000  0.4417270000000  0.3996470000000 1.0
C      1  0.4549710000000  0.4008650000000  0.5551020000000 1.0
C      1  0.5197620000000  0.5132160000000  0.6235990000000 1.0
C      1  0.5169320000000  0.3776160000000  0.5237860000000 1.0
C      1  0.5136830000000  0.4867040000000  0.3748930000000 1.0
C      1  0.5176530000000  0.6209000000000  0.4788730000000 1.0
C      1  0.5232600000000  0.5191030000000  0.3874820000000 1.0
C      1  0.5259110000000  0.3855790000000  0.4898220000000 1.0
C      1  0.5284960000000  0.4802170000000  0.6119900000000 1.0
C      1  0.5252260000000  0.6136360000000  0.5131770000000 1.0
C      1  0.5163660000000  0.5357080000000  0.5615580000000 1.0
C      1  0.5152320000000  0.4399580000000  0.5331800000000 1.0
C      1  0.5167320000000  0.4639840000000  0.4363310000000 1.0
C      1  0.5149180000000  0.5617380000000  0.4642910000000 1.0
C      1  0.5191170000000  0.5378270000000  0.4360150000000 1.0
C      1  0.5196740000000  0.4375230000000  0.4611140000000 1.0
C      1  0.5186430000000  0.4631740000000  0.5611710000000 1.0
C      1  0.5172680000000  0.5645450000000  0.5412520000000 1.0
C      1  0.5211530000000  0.5491540000000  0.3884510000000 1.0
C      1  0.5149880000000  0.6156980000000  0.5414450000000 1.0
C      1  0.5256300000000  0.4501120000000  0.6087430000000 1.0
C      1  0.5164820000000  0.3848090000000  0.4610280000000 1.0
C      1  0.5233700000000  0.5419270000000  0.6136080000000 1.0
C      1  0.5242390000000  0.6095450000000  0.4505180000000 1.0
C      1  0.5188990000000  0.4580040000000  0.3843380000000 1.0
C      1  0.5224210000000  0.3919060000000  0.5508930000000 1.0
C      1  0.5974680000000  0.5184370000000  0.4379000000000 1.0
C      1  0.5953680000000  0.5620080000000  0.5183000000000 1.0
C      1  0.5979330000000  0.4822570000000  0.5616130000000 1.0
C      1  0.5983200000000  0.4385270000000  0.4818130000000 1.0
C      1  0.5962000000000  0.5181270000000  0.5650710000000 1.0
C      1  0.5937110000000  0.5661220000000  0.4824090000000 1.0
C      1  0.5960720000000  0.4824950000000  0.4343220000000 1.0
C      1  0.5958440000000  0.4353030000000  0.5177250000000 1.0
C      1  0.4826970000000  0.4723610000000  0.4325110000000 1.0
C      1  0.4826700000000  0.5623350000000  0.4736580000000 1.0
C      1  0.4827030000000  0.5258730000000  0.5697940000000 1.0
C      1  0.4801000000000  0.4329660000000  0.5292540000000 1.0
C      1  0.4873410000000  0.4731670000000  0.5662790000000 1.0
C      1  0.4890320000000  0.5651210000000  0.5252260000000 1.0
C      1  0.4878280000000  0.5251930000000  0.4351790000000 1.0
C      1  0.4898870000000  0.4335890000000  0.4774290000000 1.0
C      1  0.5073380000000  0.5622620000000  0.4121670000000 1.0
C      1  0.5065590000000  0.5910850000000  0.5546140000000 1.0
C      1  0.5085460000000  0.4393570000000  0.5863060000000 1.0
C      1  0.5075390000000  0.4094300000000  0.4480170000000 1.0
C      1  0.5095830000000  0.5512790000000  0.5896400000000 1.0
C      1  0.5101510000000  0.5846330000000  0.4407360000000 1.0
C      1  0.5081910000000  0.4480740000000  0.4096280000000 1.0
C      1  0.5089320000000  0.4177270000000  0.5572560000000 1.0
C      1  0.4690070000000  0.4981830000000  0.5731410000000 1.0
C      1  0.4688820000000  0.4270490000000  0.5013410000000 1.0
C      1  0.4701540000000  0.5708640000000  0.5002360000000 1.0
C      1  0.4677870000000  0.4998530000000  0.4307720000000 1.0
C      1  0.5351980000000  0.5014470000000  0.4991440000000 1.0
END
