TITL C-862133-5440-489 -0.00984631740495868 125000 -476.183555785531 0 0 85 (C1) n - 1
REM
REM in /home/nfs/bkarasulu/CARBON/AIRSS/Generating-Clusters/TERSOFF/Higher-Symm/FIRE-HFTN
REM
REM
REM
REM
REM
REM ./C.cell (b20cbc046b6831c77cfcea5457e17084)
REM AIRSS Version 0.9.1 bugfix July 2018 build 013d7b7c2542+ Fri, 06 Jul 2018 19:26:36 +0100
REM compiler GCC version 9.2.1 20190827 (Red Hat 9.2.1-1)
REM options -cpp -mtune=generic -march=x86-64 -g -O0 -fpre-include=/usr/include/finclude/math-vector-fortran.h
REM seed 1260194600 333346215 1117873629 -171140179 2033828577 2006516258 -293653638 -1200904091 -1962375058 1771325858 -920903025 -1614474860 -1775880638 -72096729 -1579958773 -30753191 -468473502 -364782430 -399973070 -214630128 2085729491 2016506442 1843935991 -1864017673 719659428 1581630563 -1137974190 -1596987014 1860003264 -916472130 321694411 -1257538180 -1811457121
REM
CELL 1.54180   50.00000   50.00000   50.00000   90.00000   90.00000   90.00000
LATT -1
SFAC C  
C      1  0.4793350000000  0.4217700000000  0.4705770000000 1.0
C      1  0.4607610000000  0.5801480000000  0.5199210000000 1.0
C      1  0.5407520000000  0.5725780000000  0.4828450000000 1.0
C      1  0.5528400000000  0.4324660000000  0.4635520000000 1.0
C      1  0.5139740000000  0.4843820000000  0.5572320000000 1.0
C      1  0.5181990000000  0.4554970000000  0.5678580000000 1.0
C      1  0.4498200000000  0.5434440000000  0.4869370000000 1.0
C      1  0.4559440000000  0.5510210000000  0.5160490000000 1.0
C      1  0.4258240000000  0.4716400000000  0.5550580000000 1.0
C      1  0.4226750000000  0.5076300000000  0.4980510000000 1.0
C      1  0.5261700000000  0.5122110000000  0.5687310000000 1.0
C      1  0.5139890000000  0.4947840000000  0.4411990000000 1.0
C      1  0.4247190000000  0.5291530000000  0.4776120000000 1.0
C      1  0.5423090000000  0.5082370000000  0.4742860000000 1.0
C      1  0.5434120000000  0.4394620000000  0.5642320000000 1.0
C      1  0.4941830000000  0.5412580000000  0.5471280000000 1.0
C      1  0.4318760000000  0.4989480000000  0.4355470000000 1.0
C      1  0.4762740000000  0.5001620000000  0.4801020000000 1.0
C      1  0.5698580000000  0.5471530000000  0.4543430000000 1.0
C      1  0.5702080000000  0.5413540000000  0.5042600000000 1.0
C      1  0.4332960000000  0.5256860000000  0.4477480000000 1.0
C      1  0.5445600000000  0.4791620000000  0.4823180000000 1.0
C      1  0.5674690000000  0.4557540000000  0.5695710000000 1.0
C      1  0.5226300000000  0.5714690000000  0.4579150000000 1.0
C      1  0.5902720000000  0.4458280000000  0.5844390000000 1.0
C      1  0.4602120000000  0.5452460000000  0.4421950000000 1.0
C      1  0.4841950000000  0.5093060000000  0.5094170000000 1.0
C      1  0.4658710000000  0.4637460000000  0.4178450000000 1.0
C      1  0.4817900000000  0.4935330000000  0.5542420000000 1.0
C      1  0.5508110000000  0.4158340000000  0.4890540000000 1.0
C      1  0.5631060000000  0.4606800000000  0.4670690000000 1.0
C      1  0.4848220000000  0.5904520000000  0.5068850000000 1.0
C      1  0.5329030000000  0.5728430000000  0.5123950000000 1.0
C      1  0.5594360000000  0.5194140000000  0.4486420000000 1.0
C      1  0.5388070000000  0.4263300000000  0.5145450000000 1.0
C      1  0.4529150000000  0.4900270000000  0.4170650000000 1.0
C      1  0.5124910000000  0.5441830000000  0.4424480000000 1.0
C      1  0.5085030000000  0.4668560000000  0.5194920000000 1.0
C      1  0.4364130000000  0.4579360000000  0.4851990000000 1.0
C      1  0.5137820000000  0.4620800000000  0.4781150000000 1.0
C      1  0.4316980000000  0.4686690000000  0.5255180000000 1.0
C      1  0.4662950000000  0.5717720000000  0.4606690000000 1.0
C      1  0.4373160000000  0.4954850000000  0.5718360000000 1.0
C      1  0.5662030000000  0.4827110000000  0.5585380000000 1.0
C      1  0.4367590000000  0.5362470000000  0.5364920000000 1.0
C      1  0.5467600000000  0.5477030000000  0.5311980000000 1.0
C      1  0.5262640000000  0.4456750000000  0.4536110000000 1.0
C      1  0.5061150000000  0.5469650000000  0.4931200000000 1.0
C      1  0.5444510000000  0.4893000000000  0.5386780000000 1.0
C      1  0.4758080000000  0.4277840000000  0.5309620000000 1.0
C      1  0.4475150000000  0.5236540000000  0.5619210000000 1.0
C      1  0.4699780000000  0.5283740000000  0.4679250000000 1.0
C      1  0.5830700000000  0.5147950000000  0.4963230000000 1.0
C      1  0.4981030000000  0.5358720000000  0.4675990000000 1.0
C      1  0.4462410000000  0.4281010000000  0.5323950000000 1.0
C      1  0.4884550000000  0.4567380000000  0.4351170000000 1.0
C      1  0.5655500000000  0.5587450000000  0.4803650000000 1.0
C      1  0.4843440000000  0.4502770000000  0.4648700000000 1.0
C      1  0.4854830000000  0.5389640000000  0.5174830000000 1.0
C      1  0.4338380000000  0.4411040000000  0.5570950000000 1.0
C      1  0.5104010000000  0.5893420000000  0.5215370000000 1.0
C      1  0.4374180000000  0.5102010000000  0.5234360000000 1.0
C      1  0.4125070000000  0.4679990000000  0.4718620000000 1.0
C      1  0.5553510000000  0.4747740000000  0.5122390000000 1.0
C      1  0.4336530000000  0.4325700000000  0.5041740000000 1.0
C      1  0.5445450000000  0.4186740000000  0.5425280000000 1.0
C      1  0.4864810000000  0.5453130000000  0.4263750000000 1.0
C      1  0.5363450000000  0.5151460000000  0.5224270000000 1.0
C      1  0.4121360000000  0.4799590000000  0.4454400000000 1.0
C      1  0.5676440000000  0.5561740000000  0.5519720000000 1.0
C      1  0.5806110000000  0.4915000000000  0.5129240000000 1.0
C      1  0.5033170000000  0.4897120000000  0.4686200000000 1.0
C      1  0.4743510000000  0.5335470000000  0.5678540000000 1.0
C      1  0.4595660000000  0.4715230000000  0.5174560000000 1.0
C      1  0.4823680000000  0.4532790000000  0.5188790000000 1.0
C      1  0.4654950000000  0.4972630000000  0.5276690000000 1.0
C      1  0.5177860000000  0.4659130000000  0.4287640000000 1.0
C      1  0.4636280000000  0.4690420000000  0.4757860000000 1.0
C      1  0.5223160000000  0.5380830000000  0.5545030000000 1.0
C      1  0.5319010000000  0.5269700000000  0.4948390000000 1.0
C      1  0.5299210000000  0.5196760000000  0.4358480000000 1.0
C      1  0.4883860000000  0.5740540000000  0.4820830000000 1.0
C      1  0.5836700000000  0.5096350000000  0.4672040000000 1.0
C      1  0.5090220000000  0.4966870000000  0.5173830000000 1.0
C      1  0.5335270000000  0.4543620000000  0.5143610000000 1.0
END
