TITL C-862130-1496-1372 0.00392908873044446 125000 -868.939415115677 0 0 179 (C1) n - 1
REM
REM in /home/nfs/bkarasulu/CARBON/AIRSS/Generating-Clusters/TERSOFF/Higher-Symm/FIRE-HFTN
REM
REM
REM
REM
REM
REM ./C.cell (b20cbc046b6831c77cfcea5457e17084)
REM AIRSS Version 0.9.1 bugfix July 2018 build 013d7b7c2542+ Fri, 06 Jul 2018 19:26:36 +0100
REM compiler GCC version 9.2.1 20190827 (Red Hat 9.2.1-1)
REM options -cpp -mtune=generic -march=x86-64 -g -O0 -fpre-include=/usr/include/finclude/math-vector-fortran.h
REM seed 1955623078 519247498 -229906793 557878844 -932037974 1813894057 1730314340 353356496 1037393938 1246324453 -875369799 505195836 402240992 -734498654 1657926048 -1257958014 1574240301 -284745770 -55472499 256519158 -821897167 506941100 1629513089 -2042124336 688643962 -837600514 -646965415 789629821 755547275 1866530656 274620427 -1918212883 -1511112824
REM
CELL 1.54180   50.00000   50.00000   50.00000   90.00000   90.00000   90.00000
LATT -1
SFAC C  
C      1  0.5217400000000  0.5193250000000  0.4039340000000 1.0
C      1  0.5201520000000  0.4062640000000  0.5220990000000 1.0
C      1  0.4049360000000  0.5219700000000  0.5202280000000 1.0
C      1  0.4771620000000  0.4796680000000  0.4031540000000 1.0
C      1  0.5222040000000  0.4801240000000  0.5949710000000 1.0
C      1  0.4788060000000  0.5197660000000  0.5931780000000 1.0
C      1  0.4796360000000  0.5930520000000  0.5219520000000 1.0
C      1  0.5192540000000  0.5950490000000  0.4776610000000 1.0
C      1  0.4796880000000  0.4035190000000  0.4771630000000 1.0
C      1  0.5979000000000  0.4773950000000  0.5212270000000 1.0
C      1  0.4008220000000  0.4773260000000  0.4789730000000 1.0
C      1  0.5947430000000  0.5218790000000  0.4798960000000 1.0
C      1  0.4671070000000  0.5198810000000  0.5431710000000 1.0
C      1  0.5128400000000  0.5380620000000  0.4696210000000 1.0
C      1  0.5446560000000  0.4635660000000  0.5185170000000 1.0
C      1  0.5353280000000  0.4788680000000  0.5474080000000 1.0
C      1  0.4621140000000  0.4816220000000  0.4507890000000 1.0
C      1  0.5369180000000  0.5182720000000  0.4536000000000 1.0
C      1  0.4821510000000  0.4543160000000  0.4635530000000 1.0
C      1  0.5171840000000  0.4511320000000  0.5357150000000 1.0
C      1  0.4835690000000  0.5486930000000  0.5353220000000 1.0
C      1  0.4546750000000  0.5382000000000  0.5164450000000 1.0
C      1  0.5456720000000  0.5371080000000  0.4812200000000 1.0
C      1  0.4549390000000  0.4659350000000  0.4802840000000 1.0
C      1  0.5759750000000  0.4992180000000  0.5159760000000 1.0
C      1  0.5015740000000  0.5150050000000  0.5716630000000 1.0
C      1  0.5152780000000  0.5733120000000  0.5000330000000 1.0
C      1  0.4254820000000  0.4992370000000  0.5129490000000 1.0
C      1  0.5743100000000  0.4988550000000  0.4862390000000 1.0
C      1  0.4224190000000  0.4997610000000  0.4832190000000 1.0
C      1  0.5011200000000  0.4850130000000  0.5718880000000 1.0
C      1  0.4986830000000  0.4852450000000  0.4256300000000 1.0
C      1  0.4984380000000  0.5149710000000  0.4247960000000 1.0
C      1  0.4841910000000  0.4251170000000  0.4995580000000 1.0
C      1  0.5139690000000  0.4269910000000  0.4993230000000 1.0
C      1  0.4852580000000  0.5711820000000  0.4999030000000 1.0
C      1  0.4752520000000  0.4234870000000  0.4358820000000 1.0
C      1  0.4237590000000  0.4367850000000  0.4747870000000 1.0
C      1  0.4336530000000  0.4751500000000  0.4206080000000 1.0
C      1  0.5235340000000  0.5743340000000  0.4368880000000 1.0
C      1  0.4751360000000  0.5771240000000  0.5650380000000 1.0
C      1  0.5251440000000  0.4225460000000  0.5653960000000 1.0
C      1  0.5768820000000  0.5645590000000  0.4753260000000 1.0
C      1  0.4225660000000  0.5643490000000  0.5248220000000 1.0
C      1  0.5763390000000  0.4367880000000  0.5250690000000 1.0
C      1  0.5644040000000  0.5246370000000  0.4225210000000 1.0
C      1  0.4362650000000  0.5246900000000  0.5764490000000 1.0
C      1  0.5654160000000  0.4754110000000  0.5788830000000 1.0
C      1  0.5846620000000  0.4728450000000  0.4739510000000 1.0
C      1  0.4738390000000  0.4739840000000  0.5816130000000 1.0
C      1  0.4724990000000  0.5832160000000  0.4743510000000 1.0
C      1  0.4133170000000  0.5275880000000  0.4728500000000 1.0
C      1  0.5840910000000  0.5269660000000  0.5269440000000 1.0
C      1  0.4151330000000  0.4734020000000  0.5259720000000 1.0
C      1  0.5273460000000  0.5264950000000  0.5840970000000 1.0
C      1  0.4717560000000  0.5264310000000  0.4144640000000 1.0
C      1  0.5263150000000  0.4737220000000  0.4174010000000 1.0
C      1  0.5264070000000  0.4161070000000  0.4733790000000 1.0
C      1  0.4733100000000  0.4154040000000  0.5269750000000 1.0
C      1  0.5263700000000  0.5834800000000  0.5271990000000 1.0
C      1  0.4151710000000  0.5530070000000  0.5504990000000 1.0
C      1  0.5523110000000  0.5502930000000  0.4155440000000 1.0
C      1  0.5507900000000  0.4151150000000  0.5536060000000 1.0
C      1  0.5832270000000  0.4479000000000  0.5510350000000 1.0
C      1  0.4174160000000  0.4482180000000  0.4487320000000 1.0
C      1  0.5842230000000  0.5531620000000  0.4494910000000 1.0
C      1  0.4459970000000  0.4491660000000  0.4150570000000 1.0
C      1  0.5537940000000  0.4495730000000  0.5858460000000 1.0
C      1  0.4471510000000  0.5502970000000  0.5849130000000 1.0
C      1  0.4492520000000  0.5846770000000  0.5536940000000 1.0
C      1  0.5493400000000  0.5824410000000  0.4475430000000 1.0
C      1  0.4496250000000  0.4158730000000  0.4471730000000 1.0
C      1  0.4606840000000  0.5768370000000  0.4197090000000 1.0
C      1  0.5771880000000  0.4187030000000  0.4620500000000 1.0
C      1  0.4195260000000  0.4620210000000  0.5766850000000 1.0
C      1  0.5383040000000  0.4229660000000  0.4187190000000 1.0
C      1  0.4620990000000  0.4232450000000  0.5819430000000 1.0
C      1  0.5381380000000  0.5772890000000  0.5822370000000 1.0
C      1  0.4219960000000  0.5826010000000  0.4621020000000 1.0
C      1  0.5772990000000  0.5819720000000  0.5380840000000 1.0
C      1  0.4224770000000  0.4189370000000  0.5379400000000 1.0
C      1  0.5810970000000  0.5389980000000  0.5775390000000 1.0
C      1  0.4173050000000  0.5387260000000  0.4221960000000 1.0
C      1  0.5814880000000  0.4619030000000  0.4230940000000 1.0
C      1  0.4120190000000  0.5216620000000  0.5556680000000 1.0
C      1  0.5204250000000  0.5546270000000  0.4117130000000 1.0
C      1  0.5557000000000  0.4126140000000  0.5217890000000 1.0
C      1  0.5891560000000  0.4790720000000  0.5564340000000 1.0
C      1  0.4096270000000  0.4794110000000  0.4437670000000 1.0
C      1  0.5883840000000  0.5215090000000  0.4443150000000 1.0
C      1  0.4779840000000  0.4445000000000  0.4116260000000 1.0
C      1  0.5220810000000  0.4444120000000  0.5891180000000 1.0
C      1  0.4786340000000  0.5556440000000  0.5890340000000 1.0
C      1  0.4438490000000  0.5883260000000  0.5218860000000 1.0
C      1  0.5548790000000  0.5883850000000  0.4787480000000 1.0
C      1  0.4444460000000  0.4121380000000  0.4785520000000 1.0
C      1  0.4220160000000  0.4500390000000  0.5463620000000 1.0
C      1  0.4487350000000  0.5467690000000  0.4224250000000 1.0
C      1  0.5470900000000  0.4217740000000  0.4501160000000 1.0
C      1  0.5781210000000  0.5506340000000  0.5472290000000 1.0
C      1  0.4193020000000  0.5508940000000  0.4523130000000 1.0
C      1  0.5781510000000  0.4500000000000  0.4533760000000 1.0
C      1  0.5500160000000  0.4531450000000  0.4223630000000 1.0
C      1  0.4507690000000  0.4531800000000  0.5768060000000 1.0
C      1  0.5497660000000  0.5473650000000  0.5780330000000 1.0
C      1  0.4519030000000  0.5773290000000  0.4510600000000 1.0
C      1  0.5473110000000  0.5789780000000  0.5505040000000 1.0
C      1  0.4526010000000  0.4205610000000  0.5504350000000 1.0
C      1  0.5547680000000  0.4488530000000  0.4910220000000 1.0
C      1  0.4498840000000  0.4928780000000  0.5522770000000 1.0
C      1  0.4915170000000  0.5515490000000  0.4544990000000 1.0
C      1  0.4433710000000  0.5538720000000  0.4865870000000 1.0
C      1  0.5538900000000  0.5521180000000  0.5122600000000 1.0
C      1  0.4458040000000  0.4519470000000  0.5071510000000 1.0
C      1  0.5516870000000  0.5075640000000  0.5556270000000 1.0
C      1  0.4452810000000  0.5093040000000  0.4420900000000 1.0
C      1  0.5529060000000  0.4889730000000  0.4460380000000 1.0
C      1  0.5101320000000  0.4463540000000  0.4493520000000 1.0
C      1  0.4857030000000  0.4463300000000  0.5524230000000 1.0
C      1  0.5138510000000  0.5538840000000  0.5541790000000 1.0
C      1  0.5981030000000  0.4280390000000  0.4831010000000 1.0
C      1  0.4296840000000  0.4834700000000  0.5968390000000 1.0
C      1  0.4828540000000  0.5958990000000  0.4295930000000 1.0
C      1  0.4015300000000  0.5727900000000  0.4834300000000 1.0
C      1  0.5975310000000  0.5718420000000  0.5166200000000 1.0
C      1  0.4020960000000  0.4283510000000  0.5164190000000 1.0
C      1  0.5718000000000  0.5181530000000  0.5986440000000 1.0
C      1  0.4267190000000  0.5184540000000  0.4005740000000 1.0
C      1  0.5716700000000  0.4829370000000  0.4021910000000 1.0
C      1  0.5171360000000  0.4022160000000  0.4281160000000 1.0
C      1  0.4838650000000  0.4030750000000  0.5723440000000 1.0
C      1  0.5163820000000  0.5973100000000  0.5721990000000 1.0
C      1  0.5933570000000  0.5125570000000  0.5559780000000 1.0
C      1  0.5126620000000  0.5553150000000  0.5959270000000 1.0
C      1  0.5549860000000  0.5940140000000  0.5121160000000 1.0
C      1  0.4070950000000  0.4882680000000  0.5550100000000 1.0
C      1  0.5947320000000  0.4876010000000  0.4449420000000 1.0
C      1  0.4036360000000  0.5129540000000  0.4436850000000 1.0
C      1  0.4881290000000  0.4454190000000  0.5942170000000 1.0
C      1  0.5117100000000  0.4449210000000  0.4074140000000 1.0
C      1  0.4866440000000  0.5552250000000  0.4065770000000 1.0
C      1  0.4443910000000  0.4071830000000  0.5115550000000 1.0
C      1  0.5552970000000  0.4069520000000  0.4884760000000 1.0
C      1  0.4439500000000  0.5956110000000  0.4879760000000 1.0
C      1  0.5490460000000  0.5004280000000  0.5886950000000 1.0
C      1  0.4996980000000  0.5865610000000  0.5486400000000 1.0
C      1  0.5867640000000  0.5483430000000  0.5001180000000 1.0
C      1  0.4525630000000  0.4998330000000  0.5853050000000 1.0
C      1  0.5483270000000  0.4996610000000  0.4127890000000 1.0
C      1  0.4497930000000  0.5001110000000  0.4093350000000 1.0
C      1  0.5004210000000  0.4136560000000  0.5486690000000 1.0
C      1  0.5005640000000  0.4129430000000  0.4511550000000 1.0
C      1  0.4984370000000  0.5842410000000  0.4524930000000 1.0
C      1  0.4120400000000  0.4517130000000  0.4999180000000 1.0
C      1  0.5882330000000  0.4513640000000  0.4999370000000 1.0
C      1  0.4116390000000  0.5488760000000  0.4998700000000 1.0
C      1  0.5362770000000  0.4857320000000  0.4982420000000 1.0
C      1  0.4874060000000  0.4980380000000  0.5344150000000 1.0
C      1  0.5001000000000  0.5256200000000  0.4923230000000 1.0
C      1  0.4593040000000  0.5160770000000  0.4946470000000 1.0
C      1  0.5389850000000  0.5141470000000  0.5030090000000 1.0
C      1  0.4668810000000  0.4873940000000  0.4995760000000 1.0
C      1  0.5159410000000  0.5000590000000  0.5351430000000 1.0
C      1  0.4818850000000  0.5036400000000  0.4615170000000 1.0
C      1  0.5152300000000  0.4968260000000  0.4622900000000 1.0
C      1  0.5020910000000  0.4649510000000  0.4860240000000 1.0
C      1  0.4969060000000  0.4619180000000  0.5152160000000 1.0
C      1  0.5051230000000  0.5364000000000  0.5171560000000 1.0
C      1  0.4975280000000  0.6113370000000  0.4998000000000 1.0
C      1  0.6142950000000  0.5004020000000  0.4989180000000 1.0
C      1  0.5015300000000  0.3869110000000  0.5002160000000 1.0
C      1  0.3849420000000  0.4999490000000  0.5020780000000 1.0
C      1  0.5000550000000  0.4990250000000  0.3860060000000 1.0
C      1  0.4999010000000  0.5003150000000  0.6109600000000 1.0
C      1  0.4620170000000  0.5334680000000  0.4630910000000 1.0
C      1  0.4670330000000  0.4689610000000  0.5309930000000 1.0
C      1  0.5338330000000  0.4668210000000  0.4674400000000 1.0
C      1  0.5341860000000  0.5311500000000  0.5344080000000 1.0
C      1  0.4958900000000  0.4958910000000  0.4905570000000 1.0
END
