TITL C-862504-1170-48 0.000375777998312834 125000 -829.697604006435 0 0 150 (Td) n - 1
REM
REM in /home/nfs/bkarasulu/CARBON/AIRSS/Generating-Clusters/TERSOFF/Higher-Symm/FIRE-HFTN
REM
REM
REM
REM
REM
REM ./C.cell (b20cbc046b6831c77cfcea5457e17084)
REM AIRSS Version 0.9.1 bugfix July 2018 build 013d7b7c2542+ Fri, 06 Jul 2018 19:26:36 +0100
REM compiler GCC version 9.2.1 20190827 (Red Hat 9.2.1-1)
REM options -cpp -mtune=generic -march=x86-64 -g -O0 -fpre-include=/usr/include/finclude/math-vector-fortran.h
REM seed -1217673504 -147651206 -357396833 -1540123161 1393474425 1057446713 -2048062213 -121867808 -815766327 1543581937 159864735 1441562083 2126864722 -173933208 -843207921 1522391709 1618855170 -1644754162 1216508312 -17428520 1617808146 1477030883 1732369465 -1624368262 1710608177 -1346365060 -846152800 -924492295 -568810444 -767581910 563503053 -418770763 -2137460887
REM
CELL 1.54180   50.00000   50.00000   50.00000   90.00000   90.00000   90.00000
LATT -1
SFAC C  
C      1  0.5628050000000  0.5837450000000  0.5421120000000 1.0
C      1  0.5837410000000  0.5418820000000  0.5630400000000 1.0
C      1  0.5418770000000  0.5628100000000  0.5839760000000 1.0
C      1  0.5628050000000  0.4154230000000  0.4575170000000 1.0
C      1  0.4363550000000  0.5837450000000  0.4575180000000 1.0
C      1  0.4363550000000  0.4154230000000  0.5421120000000 1.0
C      1  0.5837410000000  0.4572870000000  0.4365890000000 1.0
C      1  0.4154190000000  0.5418810000000  0.4365890000000 1.0
C      1  0.4154190000000  0.4572870000000  0.5630400000000 1.0
C      1  0.5418770000000  0.4363590000000  0.4156540000000 1.0
C      1  0.4572830000000  0.5628100000000  0.4156540000000 1.0
C      1  0.4572830000000  0.4363590000000  0.5839750000000 1.0
C      1  0.5628050000000  0.5418810000000  0.5839760000000 1.0
C      1  0.5837410000000  0.5628100000000  0.5421120000000 1.0
C      1  0.5418770000000  0.5837450000000  0.5630400000000 1.0
C      1  0.5628050000000  0.4572870000000  0.4156540000000 1.0
C      1  0.4363550000000  0.4572870000000  0.5839760000000 1.0
C      1  0.4363550000000  0.5418820000000  0.4156540000000 1.0
C      1  0.5837410000000  0.4363590000000  0.4575170000000 1.0
C      1  0.4154190000000  0.4363590000000  0.5421120000000 1.0
C      1  0.4154190000000  0.5628090000000  0.4575180000000 1.0
C      1  0.5418770000000  0.4154230000000  0.4365890000000 1.0
C      1  0.4572830000000  0.4154230000000  0.5630400000000 1.0
C      1  0.4572830000000  0.5837450000000  0.4365890000000 1.0
C      1  0.5608160000000  0.4811210000000  0.3984290000000 1.0
C      1  0.4811170000000  0.3981980000000  0.5610510000000 1.0
C      1  0.3981940000000  0.5608210000000  0.4813510000000 1.0
C      1  0.5608160000000  0.5180480000000  0.6012010000000 1.0
C      1  0.4383430000000  0.4811210000000  0.6012010000000 1.0
C      1  0.4383430000000  0.5180480000000  0.3984290000000 1.0
C      1  0.4811160000000  0.6009700000000  0.4385780000000 1.0
C      1  0.5180440000000  0.3981980000000  0.4385780000000 1.0
C      1  0.5180430000000  0.6009700000000  0.5610510000000 1.0
C      1  0.3981940000000  0.4383480000000  0.5182780000000 1.0
C      1  0.6009660000000  0.5608210000000  0.5182780000000 1.0
C      1  0.6009660000000  0.4383480000000  0.4813510000000 1.0
C      1  0.5608170000000  0.3981980000000  0.4813510000000 1.0
C      1  0.4811160000000  0.5608210000000  0.3984290000000 1.0
C      1  0.3981940000000  0.4811210000000  0.5610510000000 1.0
C      1  0.5608160000000  0.6009700000000  0.5182780000000 1.0
C      1  0.4383430000000  0.6009700000000  0.4813510000000 1.0
C      1  0.4383440000000  0.3981980000000  0.5182780000000 1.0
C      1  0.4811160000000  0.4383480000000  0.6012010000000 1.0
C      1  0.5180430000000  0.4383480000000  0.3984290000000 1.0
C      1  0.5180430000000  0.5608210000000  0.6012010000000 1.0
C      1  0.3981940000000  0.5180480000000  0.4385780000000 1.0
C      1  0.6009660000000  0.5180480000000  0.5610510000000 1.0
C      1  0.6009660000000  0.4811210000000  0.4385780000000 1.0
C      1  0.5283450000000  0.4226750000000  0.5528170000000 1.0
C      1  0.4226710000000  0.5525870000000  0.5285800000000 1.0
C      1  0.5525830000000  0.5283490000000  0.4229060000000 1.0
C      1  0.5283450000000  0.5764940000000  0.4468120000000 1.0
C      1  0.4708150000000  0.4226750000000  0.4468120000000 1.0
C      1  0.4708150000000  0.5764930000000  0.5528170000000 1.0
C      1  0.4226710000000  0.4465820000000  0.4710500000000 1.0
C      1  0.5764890000000  0.5525870000000  0.4710500000000 1.0
C      1  0.5764890000000  0.4465820000000  0.5285800000000 1.0
C      1  0.5525830000000  0.4708190000000  0.5767240000000 1.0
C      1  0.4465770000000  0.5283490000000  0.5767240000000 1.0
C      1  0.4465770000000  0.4708190000000  0.4229050000000 1.0
C      1  0.5283450000000  0.5525870000000  0.4229060000000 1.0
C      1  0.4226710000000  0.5283490000000  0.5528170000000 1.0
C      1  0.5525830000000  0.4226750000000  0.5285800000000 1.0
C      1  0.5283450000000  0.4465820000000  0.5767240000000 1.0
C      1  0.4708150000000  0.4465820000000  0.4229050000000 1.0
C      1  0.4708150000000  0.5525870000000  0.5767240000000 1.0
C      1  0.4226710000000  0.4708190000000  0.4468120000000 1.0
C      1  0.5764890000000  0.4708190000000  0.5528170000000 1.0
C      1  0.5764890000000  0.5283490000000  0.4468120000000 1.0
C      1  0.5525830000000  0.5764940000000  0.4710500000000 1.0
C      1  0.4465770000000  0.5764930000000  0.5285800000000 1.0
C      1  0.4465770000000  0.4226750000000  0.4710500000000 1.0
C      1  0.4565260000000  0.4989790000000  0.5225830000000 1.0
C      1  0.4989750000000  0.5223520000000  0.4567610000000 1.0
C      1  0.5223480000000  0.4565300000000  0.4992090000000 1.0
C      1  0.4565260000000  0.5001900000000  0.4770460000000 1.0
C      1  0.5426340000000  0.4989790000000  0.4770460000000 1.0
C      1  0.5426340000000  0.5001900000000  0.5225830000000 1.0
C      1  0.4989750000000  0.4768160000000  0.5428690000000 1.0
C      1  0.5001850000000  0.5223520000000  0.5428690000000 1.0
C      1  0.5001850000000  0.4768160000000  0.4567600000000 1.0
C      1  0.5223480000000  0.5426380000000  0.5004200000000 1.0
C      1  0.4768120000000  0.4565300000000  0.5004200000000 1.0
C      1  0.4768120000000  0.5426380000000  0.4992090000000 1.0
C      1  0.4565260000000  0.5223520000000  0.4992090000000 1.0
C      1  0.4989750000000  0.4565300000000  0.5225830000000 1.0
C      1  0.5223480000000  0.4989790000000  0.4567600000000 1.0
C      1  0.4565260000000  0.4768160000000  0.5004200000000 1.0
C      1  0.5426340000000  0.4768160000000  0.4992090000000 1.0
C      1  0.5426340000000  0.5223520000000  0.5004200000000 1.0
C      1  0.4989750000000  0.5426380000000  0.4770470000000 1.0
C      1  0.5001850000000  0.5426380000000  0.5225830000000 1.0
C      1  0.5001850000000  0.4565300000000  0.4770460000000 1.0
C      1  0.5223480000000  0.5001900000000  0.5428690000000 1.0
C      1  0.4768120000000  0.5001900000000  0.4567610000000 1.0
C      1  0.4768120000000  0.4989790000000  0.5428690000000 1.0
C      1  0.5725990000000  0.4935790000000  0.5299950000000 1.0
C      1  0.4935740000000  0.5297650000000  0.5728340000000 1.0
C      1  0.5297610000000  0.5726040000000  0.4938090000000 1.0
C      1  0.5725990000000  0.5055900000000  0.4696340000000 1.0
C      1  0.4265610000000  0.4935790000000  0.4696340000000 1.0
C      1  0.4265610000000  0.5055900000000  0.5299960000000 1.0
C      1  0.4935750000000  0.4694030000000  0.4267950000000 1.0
C      1  0.5055850000000  0.5297650000000  0.4267950000000 1.0
C      1  0.5055850000000  0.4694030000000  0.5728340000000 1.0
C      1  0.5297610000000  0.4265650000000  0.5058200000000 1.0
C      1  0.4693990000000  0.5726040000000  0.5058200000000 1.0
C      1  0.4693990000000  0.4265650000000  0.4938090000000 1.0
C      1  0.5725990000000  0.5297650000000  0.4938090000000 1.0
C      1  0.4935740000000  0.5726040000000  0.5299960000000 1.0
C      1  0.5297610000000  0.4935790000000  0.5728340000000 1.0
C      1  0.5725990000000  0.4694030000000  0.5058200000000 1.0
C      1  0.4265610000000  0.4694030000000  0.4938090000000 1.0
C      1  0.4265610000000  0.5297650000000  0.5058200000000 1.0
C      1  0.4935750000000  0.4265650000000  0.4696340000000 1.0
C      1  0.5055850000000  0.4265650000000  0.5299950000000 1.0
C      1  0.5055850000000  0.5726040000000  0.4696340000000 1.0
C      1  0.5297610000000  0.5055900000000  0.4267950000000 1.0
C      1  0.4693990000000  0.5055900000000  0.5728340000000 1.0
C      1  0.4693990000000  0.4935790000000  0.4267950000000 1.0
C      1  0.5935110000000  0.4277810000000  0.5078450000000 1.0
C      1  0.4277770000000  0.5076150000000  0.5937450000000 1.0
C      1  0.5076110000000  0.5935150000000  0.4280120000000 1.0
C      1  0.5935100000000  0.5713870000000  0.4917840000000 1.0
C      1  0.4056490000000  0.4277810000000  0.4917840000000 1.0
C      1  0.4056490000000  0.5713870000000  0.5078460000000 1.0
C      1  0.4277770000000  0.4915530000000  0.4058840000000 1.0
C      1  0.5713830000000  0.5076150000000  0.4058840000000 1.0
C      1  0.5713830000000  0.4915530000000  0.5937450000000 1.0
C      1  0.5076110000000  0.4056540000000  0.5716180000000 1.0
C      1  0.4915490000000  0.5935150000000  0.5716180000000 1.0
C      1  0.4915490000000  0.4056540000000  0.4280120000000 1.0
C      1  0.5935110000000  0.5076150000000  0.4280120000000 1.0
C      1  0.4277770000000  0.5935150000000  0.5078460000000 1.0
C      1  0.5076110000000  0.4277810000000  0.5937450000000 1.0
C      1  0.5935110000000  0.4915530000000  0.5716180000000 1.0
C      1  0.4056490000000  0.4915530000000  0.4280120000000 1.0
C      1  0.4056490000000  0.5076150000000  0.5716180000000 1.0
C      1  0.4277770000000  0.4056540000000  0.4917840000000 1.0
C      1  0.5713830000000  0.4056540000000  0.5078450000000 1.0
C      1  0.5713830000000  0.5935150000000  0.4917840000000 1.0
C      1  0.5076110000000  0.5713870000000  0.4058840000000 1.0
C      1  0.4915490000000  0.5713870000000  0.5937450000000 1.0
C      1  0.4915490000000  0.4277810000000  0.4058840000000 1.0
C      1  0.4995800000000  0.4995840000000  0.4077670000000 1.0
C      1  0.4075320000000  0.4995840000000  0.4998150000000 1.0
C      1  0.4995800000000  0.4995840000000  0.5918630000000 1.0
C      1  0.4995800000000  0.5916320000000  0.4998150000000 1.0
C      1  0.4995800000000  0.4075360000000  0.4998150000000 1.0
C      1  0.5916280000000  0.4995840000000  0.4998150000000 1.0
END
