TITL C-862129-6180-599 0.030707951778609 125000 -447.493913034745 0 0 81 (C1) n - 1
REM
REM in /home/nfs/bkarasulu/CARBON/AIRSS/Generating-Clusters/TERSOFF/Higher-Symm/FIRE-HFTN
REM
REM
REM
REM
REM
REM ./C.cell (b20cbc046b6831c77cfcea5457e17084)
REM AIRSS Version 0.9.1 bugfix July 2018 build 013d7b7c2542+ Fri, 06 Jul 2018 19:26:36 +0100
REM compiler GCC version 9.2.1 20190827 (Red Hat 9.2.1-1)
REM options -cpp -mtune=generic -march=x86-64 -g -O0 -fpre-include=/usr/include/finclude/math-vector-fortran.h
REM seed 1818976288 -918000606 -94011809 95747816 1654432734 824554349 -1139074560 1204884392 1886305561 1637460760 -278207612 1966363467 1375116837 1347815263 1648656054 -1500721009 857287705 1550892458 2120409010 120214457 -761999391 -1579678628 -1778833481 1670200018 -988739222 -2067703667 370376959 -1234526363 -1606028397 972238525 -313136630 247268448 1104178925
REM
CELL 1.54180   50.00000   50.00000   50.00000   90.00000   90.00000   90.00000
LATT -1
SFAC C  
C      1  0.5421580000000  0.4703910000000  0.4160770000000 1.0
C      1  0.4630920000000  0.4703070000000  0.4172330000000 1.0
C      1  0.5246260000000  0.5188050000000  0.5298890000000 1.0
C      1  0.4783890000000  0.5187960000000  0.5301480000000 1.0
C      1  0.4682530000000  0.5381840000000  0.5512870000000 1.0
C      1  0.5351250000000  0.5381210000000  0.5509380000000 1.0
C      1  0.4382930000000  0.4758990000000  0.4605860000000 1.0
C      1  0.5642280000000  0.4760380000000  0.4607560000000 1.0
C      1  0.5498030000000  0.5488830000000  0.4631090000000 1.0
C      1  0.4529580000000  0.5487460000000  0.4633200000000 1.0
C      1  0.4438550000000  0.5253500000000  0.4435520000000 1.0
C      1  0.5594970000000  0.5255000000000  0.4436010000000 1.0
C      1  0.4275100000000  0.5026260000000  0.4534590000000 1.0
C      1  0.5753590000000  0.5027200000000  0.4541230000000 1.0
C      1  0.4760880000000  0.5454930000000  0.4907630000000 1.0
C      1  0.5267020000000  0.5454870000000  0.4905390000000 1.0
C      1  0.4296180000000  0.4778010000000  0.5163460000000 1.0
C      1  0.5729500000000  0.4774930000000  0.5151380000000 1.0
C      1  0.5171940000000  0.5385890000000  0.5753730000000 1.0
C      1  0.4864780000000  0.5383810000000  0.5755450000000 1.0
C      1  0.5455400000000  0.5202640000000  0.4188890000000 1.0
C      1  0.4586160000000  0.5200170000000  0.4193640000000 1.0
C      1  0.5390890000000  0.5171170000000  0.5023580000000 1.0
C      1  0.4635360000000  0.5171270000000  0.5027520000000 1.0
C      1  0.4534100000000  0.4434890000000  0.5436260000000 1.0
C      1  0.5495840000000  0.4431450000000  0.5426880000000 1.0
C      1  0.4755460000000  0.4966930000000  0.4170130000000 1.0
C      1  0.5289270000000  0.4966930000000  0.4158880000000 1.0
C      1  0.4427560000000  0.4544420000000  0.5715700000000 1.0
C      1  0.5608950000000  0.4540200000000  0.5704580000000 1.0
C      1  0.4779380000000  0.5680810000000  0.5097130000000 1.0
C      1  0.5251100000000  0.5680220000000  0.5095040000000 1.0
C      1  0.5662720000000  0.5322990000000  0.4874350000000 1.0
C      1  0.4364190000000  0.5325730000000  0.4878330000000 1.0
C      1  0.5511390000000  0.4575840000000  0.4408680000000 1.0
C      1  0.4535290000000  0.4577910000000  0.4417120000000 1.0
C      1  0.4875530000000  0.4475270000000  0.6021340000000 1.0
C      1  0.5165980000000  0.4474320000000  0.6018740000000 1.0
C      1  0.5313370000000  0.4414790000000  0.4585820000000 1.0
C      1  0.4731600000000  0.4424220000000  0.4597840000000 1.0
C      1  0.5277810000000  0.4929910000000  0.5873730000000 1.0
C      1  0.4763830000000  0.4931530000000  0.5878500000000 1.0
C      1  0.4406590000000  0.5198550000000  0.5484930000000 1.0
C      1  0.5625830000000  0.5194700000000  0.5477760000000 1.0
C      1  0.4761670000000  0.4952670000000  0.4862590000000 1.0
C      1  0.5260440000000  0.4954900000000  0.4859540000000 1.0
C      1  0.5226010000000  0.4528700000000  0.5533340000000 1.0
C      1  0.4806910000000  0.4530220000000  0.5536790000000 1.0
C      1  0.5632170000000  0.5052160000000  0.5204960000000 1.0
C      1  0.4395640000000  0.5055000000000  0.5213190000000 1.0
C      1  0.5363980000000  0.5641870000000  0.5362020000000 1.0
C      1  0.4669740000000  0.5642730000000  0.5365760000000 1.0
C      1  0.5559550000000  0.4528380000000  0.5164140000000 1.0
C      1  0.4465200000000  0.4530980000000  0.5174700000000 1.0
C      1  0.5442920000000  0.4738370000000  0.4819800000000 1.0
C      1  0.4574230000000  0.4738920000000  0.4826650000000 1.0
C      1  0.4717550000000  0.4645970000000  0.5833190000000 1.0
C      1  0.5321640000000  0.4643950000000  0.5827690000000 1.0
C      1  0.5335620000000  0.4454190000000  0.4921170000000 1.0
C      1  0.4683450000000  0.4453930000000  0.4927940000000 1.0
C      1  0.5350940000000  0.5735120000000  0.4484370000000 1.0
C      1  0.4676150000000  0.5736760000000  0.4488900000000 1.0
C      1  0.5011330000000  0.5014700000000  0.4647700000000 1.0
C      1  0.5015940000000  0.5796820000000  0.4496570000000 1.0
C      1  0.5011250000000  0.4330520000000  0.5011690000000 1.0
C      1  0.5015090000000  0.4748570000000  0.4971600000000 1.0
C      1  0.5012710000000  0.4075870000000  0.5155310000000 1.0
C      1  0.5015490000000  0.5870240000000  0.5049780000000 1.0
C      1  0.5015420000000  0.5033160000000  0.5350170000000 1.0
C      1  0.5013080000000  0.5486720000000  0.4507430000000 1.0
C      1  0.5015860000000  0.4561250000000  0.4661090000000 1.0
C      1  0.5067640000000  0.4690840000000  0.4386320000000 1.0
C      1  0.5061220000000  0.5303160000000  0.4293300000000 1.0
C      1  0.5015280000000  0.5975130000000  0.4758830000000 1.0
C      1  0.5016570000000  0.6094030000000  0.5245320000000 1.0
C      1  0.5016210000000  0.4303660000000  0.5592260000000 1.0
C      1  0.5013240000000  0.5411840000000  0.4774440000000 1.0
C      1  0.5015490000000  0.4728610000000  0.5319170000000 1.0
C      1  0.5017250000000  0.4990570000000  0.4315650000000 1.0
C      1  0.5014340000000  0.4062450000000  0.5439140000000 1.0
C      1  0.5021760000000  0.5045040000000  0.5947730000000 1.0
END
