TITL C-862501-1041-725 18.7092872191323 125000 -874.209690004417 0 0 148 (C1) n - 1
REM
REM in /home/nfs/bkarasulu/CARBON/AIRSS/Generating-Clusters/TERSOFF/Higher-Symm/FIRE-HFTN
REM
REM
REM
REM
REM
REM ./C.cell (b20cbc046b6831c77cfcea5457e17084)
REM AIRSS Version 0.9.1 bugfix July 2018 build 013d7b7c2542+ Fri, 06 Jul 2018 19:26:36 +0100
REM compiler GCC version 9.2.1 20190827 (Red Hat 9.2.1-1)
REM options -cpp -mtune=generic -march=x86-64 -g -O0 -fpre-include=/usr/include/finclude/math-vector-fortran.h
REM seed -69058403 1128324054 190637181 -933942133 57669346 -1980541301 -1910830304 -969103727 -1805881670 -1903690149 468589686 -539395199 -1406325331 -1356257832 -1859273080 885073452 -1593823658 -1217044048 -1345804901 1667257652 278023334 851865178 -494627723 -1129949798 -410052169 -1309409357 1381785842 281880224 -1198041773 2008887875 628986483 1537440793 -1037351018
REM
CELL 1.54180   50.00000   50.00000   50.00000   90.00000   90.00000   90.00000
LATT -1
SFAC C  
C      1  0.5310230000000  0.5043440000000  0.4448530000000 1.0
C      1  0.4928700000000  0.5353290000000  0.3954960000000 1.0
C      1  0.5827920000000  0.4498330000000  0.5280950000000 1.0
C      1  0.5855890000000  0.4135590000000  0.4930760000000 1.0
C      1  0.5549130000000  0.5758820000000  0.5215660000000 1.0
C      1  0.5264680000000  0.5277850000000  0.5348580000000 1.0
C      1  0.5385170000000  0.4172950000000  0.5803260000000 1.0
C      1  0.5856510000000  0.5119330000000  0.5484720000000 1.0
C      1  0.4599380000000  0.4651770000000  0.4809580000000 1.0
C      1  0.4247700000000  0.4561190000000  0.5233490000000 1.0
C      1  0.4293500000000  0.4987830000000  0.5839340000000 1.0
C      1  0.4741520000000  0.4944670000000  0.5106300000000 1.0
C      1  0.5383410000000  0.5249800000000  0.3532410000000 1.0
C      1  0.4200840000000  0.4484360000000  0.5691760000000 1.0
C      1  0.4447030000000  0.4738420000000  0.4071700000000 1.0
C      1  0.5102300000000  0.3842700000000  0.5319180000000 1.0
C      1  0.5239080000000  0.4552070000000  0.3986480000000 1.0
C      1  0.4159580000000  0.5848790000000  0.4557400000000 1.0
C      1  0.5578140000000  0.4215390000000  0.5588930000000 1.0
C      1  0.4850850000000  0.4176370000000  0.5277000000000 1.0
C      1  0.5082230000000  0.3893290000000  0.4850020000000 1.0
C      1  0.4259370000000  0.4984920000000  0.4997950000000 1.0
C      1  0.4732100000000  0.5316680000000  0.4702250000000 1.0
C      1  0.5006060000000  0.3948640000000  0.4577620000000 1.0
C      1  0.5538110000000  0.4116020000000  0.5314920000000 1.0
C      1  0.4991860000000  0.5877400000000  0.5021980000000 1.0
C      1  0.4680190000000  0.5191440000000  0.4014310000000 1.0
C      1  0.5735370000000  0.5476640000000  0.4193330000000 1.0
C      1  0.4675800000000  0.4915110000000  0.4134890000000 1.0
C      1  0.5452820000000  0.5076690000000  0.5873560000000 1.0
C      1  0.5240660000000  0.4448080000000  0.5497650000000 1.0
C      1  0.5566930000000  0.4715740000000  0.4893160000000 1.0
C      1  0.4833670000000  0.6081840000000  0.4614150000000 1.0
C      1  0.5014790000000  0.5310590000000  0.4745810000000 1.0
C      1  0.4772540000000  0.4628420000000  0.4569170000000 1.0
C      1  0.5229350000000  0.4694970000000  0.5652710000000 1.0
C      1  0.5427830000000  0.6059140000000  0.4484060000000 1.0
C      1  0.4104770000000  0.5141990000000  0.4390550000000 1.0
C      1  0.5216470000000  0.5937860000000  0.4866570000000 1.0
C      1  0.4145510000000  0.4454030000000  0.4720040000000 1.0
C      1  0.5147510000000  0.5993630000000  0.4579120000000 1.0
C      1  0.4062890000000  0.5336660000000  0.4879430000000 1.0
C      1  0.5452200000000  0.4943030000000  0.6137470000000 1.0
C      1  0.5763250000000  0.4449260000000  0.5569300000000 1.0
C      1  0.4083320000000  0.4849980000000  0.4429910000000 1.0
C      1  0.5021410000000  0.4208670000000  0.4453650000000 1.0
C      1  0.5465230000000  0.4299970000000  0.4658480000000 1.0
C      1  0.4751480000000  0.5747020000000  0.4259210000000 1.0
C      1  0.4475250000000  0.5801150000000  0.4930020000000 1.0
C      1  0.4603290000000  0.3913290000000  0.4984560000000 1.0
C      1  0.4733740000000  0.5950810000000  0.4892480000000 1.0
C      1  0.4515180000000  0.5671560000000  0.5436530000000 1.0
C      1  0.4603900000000  0.4611670000000  0.5602970000000 1.0
C      1  0.4114320000000  0.4748590000000  0.5798650000000 1.0
C      1  0.5197190000000  0.3947590000000  0.5817570000000 1.0
C      1  0.5235960000000  0.6005160000000  0.5585920000000 1.0
C      1  0.5234370000000  0.5476170000000  0.5584410000000 1.0
C      1  0.4997710000000  0.4732820000000  0.5828440000000 1.0
C      1  0.4194910000000  0.5227120000000  0.4127950000000 1.0
C      1  0.5181440000000  0.5074710000000  0.4701980000000 1.0
C      1  0.5201350000000  0.5247870000000  0.4007490000000 1.0
C      1  0.4693640000000  0.4855480000000  0.6188340000000 1.0
C      1  0.4733580000000  0.5440660000000  0.5782530000000 1.0
C      1  0.5483200000000  0.5591190000000  0.4636040000000 1.0
C      1  0.4473200000000  0.5460710000000  0.5658080000000 1.0
C      1  0.4194520000000  0.6086590000000  0.4400430000000 1.0
C      1  0.5174670000000  0.4865720000000  0.4894580000000 1.0
C      1  0.5819260000000  0.4634100000000  0.5784880000000 1.0
C      1  0.5322100000000  0.5751580000000  0.5421000000000 1.0
C      1  0.5435330000000  0.4904260000000  0.5642240000000 1.0
C      1  0.6099750000000  0.4990160000000  0.5577760000000 1.0
C      1  0.5537400000000  0.4944120000000  0.5118150000000 1.0
C      1  0.4576920000000  0.5018900000000  0.5323680000000 1.0
C      1  0.4522310000000  0.4247730000000  0.4410900000000 1.0
C      1  0.5689710000000  0.5339930000000  0.3933160000000 1.0
C      1  0.4589380000000  0.5085810000000  0.4609180000000 1.0
C      1  0.5884040000000  0.5482780000000  0.4698890000000 1.0
C      1  0.4942670000000  0.6047740000000  0.5613710000000 1.0
C      1  0.5836510000000  0.4104220000000  0.4643510000000 1.0
C      1  0.5145670000000  0.5016520000000  0.5359790000000 1.0
C      1  0.4000350000000  0.4715970000000  0.4678780000000 1.0
C      1  0.5003530000000  0.5735580000000  0.4447880000000 1.0
C      1  0.6043910000000  0.4683530000000  0.5182300000000 1.0
C      1  0.5279220000000  0.4341020000000  0.4442450000000 1.0
C      1  0.6007870000000  0.4236150000000  0.4450950000000 1.0
C      1  0.5952090000000  0.4492530000000  0.4328570000000 1.0
C      1  0.5616880000000  0.4955950000000  0.5417350000000 1.0
C      1  0.5770220000000  0.5551160000000  0.5209760000000 1.0
C      1  0.5867860000000  0.4729180000000  0.4472200000000 1.0
C      1  0.4800650000000  0.5805630000000  0.5479410000000 1.0
C      1  0.5336530000000  0.5536300000000  0.4893490000000 1.0
C      1  0.5168180000000  0.4461170000000  0.5007180000000 1.0
C      1  0.5454660000000  0.4442360000000  0.4921030000000 1.0
C      1  0.4882060000000  0.5644750000000  0.4001710000000 1.0
C      1  0.4961060000000  0.5251230000000  0.6159740000000 1.0
C      1  0.4182320000000  0.5189800000000  0.5356400000000 1.0
C      1  0.3790980000000  0.4809450000000  0.4849630000000 1.0
C      1  0.5449400000000  0.4802750000000  0.4370480000000 1.0
C      1  0.5022390000000  0.3860200000000  0.5598930000000 1.0
C      1  0.5613730000000  0.5855100000000  0.4582950000000 1.0
C      1  0.5845710000000  0.5412470000000  0.5456560000000 1.0
C      1  0.4805690000000  0.5215900000000  0.5921540000000 1.0
C      1  0.5020880000000  0.4891990000000  0.5133750000000 1.0
C      1  0.5815760000000  0.5375880000000  0.4966870000000 1.0
C      1  0.5321930000000  0.4565030000000  0.4264570000000 1.0
C      1  0.5827280000000  0.4742860000000  0.4758300000000 1.0
C      1  0.5297430000000  0.5267840000000  0.4277660000000 1.0
C      1  0.4406900000000  0.4450390000000  0.5468870000000 1.0
C      1  0.4451250000000  0.5355410000000  0.4096610000000 1.0
C      1  0.5666240000000  0.4294230000000  0.5098060000000 1.0
C      1  0.6012240000000  0.4878630000000  0.4951880000000 1.0
C      1  0.4818640000000  0.4972060000000  0.5769710000000 1.0
C      1  0.4900030000000  0.3919500000000  0.5088330000000 1.0
C      1  0.4690970000000  0.6030810000000  0.4359890000000 1.0
C      1  0.4449270000000  0.5012050000000  0.6099310000000 1.0
C      1  0.4801490000000  0.4506790000000  0.5793220000000 1.0
C      1  0.5419520000000  0.5346910000000  0.5102940000000 1.0
C      1  0.5486650000000  0.5919300000000  0.4977800000000 1.0
C      1  0.5024130000000  0.5780180000000  0.5284590000000 1.0
C      1  0.4044510000000  0.4765960000000  0.5284790000000 1.0
C      1  0.5384680000000  0.3876770000000  0.5256400000000 1.0
C      1  0.5351740000000  0.5359650000000  0.5856450000000 1.0
C      1  0.5791790000000  0.5085450000000  0.5009640000000 1.0
C      1  0.5211990000000  0.4843230000000  0.6273320000000 1.0
C      1  0.4937310000000  0.5588730000000  0.5648150000000 1.0
C      1  0.4305950000000  0.5218300000000  0.5621810000000 1.0
C      1  0.4403860000000  0.5622130000000  0.5163750000000 1.0
C      1  0.4282260000000  0.4403930000000  0.4443190000000 1.0
C      1  0.5068300000000  0.4386270000000  0.5267660000000 1.0
C      1  0.4446490000000  0.6166210000000  0.4294580000000 1.0
C      1  0.4543830000000  0.4214130000000  0.5328220000000 1.0
C      1  0.4301780000000  0.5596940000000  0.4512310000000 1.0
C      1  0.4781940000000  0.4369220000000  0.4439350000000 1.0
C      1  0.5828220000000  0.5344230000000  0.4441490000000 1.0
C      1  0.4740320000000  0.4897960000000  0.4420890000000 1.0
C      1  0.4608830000000  0.4897730000000  0.5577980000000 1.0
C      1  0.4501420000000  0.5571530000000  0.4289740000000 1.0
C      1  0.4453980000000  0.4904050000000  0.4803130000000 1.0
C      1  0.5202100000000  0.5406970000000  0.6106340000000 1.0
C      1  0.4219150000000  0.5381690000000  0.5129330000000 1.0
C      1  0.4251350000000  0.4377170000000  0.4992240000000 1.0
C      1  0.4172440000000  0.5346840000000  0.4607470000000 1.0
C      1  0.4955950000000  0.4982330000000  0.6272050000000 1.0
C      1  0.4394990000000  0.4110570000000  0.5080790000000 1.0
C      1  0.3802240000000  0.4798990000000  0.5133930000000 1.0
C      1  0.4245500000000  0.4652470000000  0.4270430000000 1.0
C      1  0.5422760000000  0.5278360000000  0.3818500000000 1.0
C      1  0.5360710000000  0.5526790000000  0.4376370000000 1.0
END
