TITL C-862501-1041-837 2.74931413889956e-07 125000 -311.885655762742 0 0 53 (C3) n - 1
REM
REM in /home/nfs/bkarasulu/CARBON/AIRSS/Generating-Clusters/TERSOFF/Higher-Symm/FIRE-HFTN
REM
REM
REM
REM
REM
REM ./C.cell (b20cbc046b6831c77cfcea5457e17084)
REM AIRSS Version 0.9.1 bugfix July 2018 build 013d7b7c2542+ Fri, 06 Jul 2018 19:26:36 +0100
REM compiler GCC version 9.2.1 20190827 (Red Hat 9.2.1-1)
REM options -cpp -mtune=generic -march=x86-64 -g -O0 -fpre-include=/usr/include/finclude/math-vector-fortran.h
REM seed 540970408 -167135538 1879243121 480935891 -1651503628 946754624 1494241677 2140641246 -343013787 -881213679 -302447663 1307433350 750376383 -378973404 -502785055 972114596 797325859 236920669 -1056723828 -694949149 1720931224 707492209 1739783275 -611303370 701043694 559419144 72623020 226249153 -344460176 1615738047 505922395 40150223 1472852725
REM
CELL 1.54180   50.00000   50.00000   50.00000   90.00000   90.00000   90.00000
LATT -1
SFAC C  
C      1  0.5311780000000  0.5624390000000  0.5030500000000 1.0
C      1  0.4809790000000  0.5624370000000  0.5257400000000 1.0
C      1  0.4864280000000  0.5624370000000  0.4709210000000 1.0
C      1  0.4766120000000  0.4506850000000  0.5831380000000 1.0
C      1  0.4389110000000  0.4506830000000  0.4384360000000 1.0
C      1  0.5830770000000  0.4506890000000  0.4781370000000 1.0
C      1  0.4593900000000  0.5024760000000  0.5588350000000 1.0
C      1  0.4685650000000  0.5024760000000  0.4356750000000 1.0
C      1  0.5706380000000  0.5024800000000  0.5052010000000 1.0
C      1  0.4588640000000  0.4717360000000  0.4471830000000 1.0
C      1  0.5655230000000  0.4717410000000  0.4910440000000 1.0
C      1  0.4742090000000  0.4717370000000  0.5614830000000 1.0
C      1  0.4673120000000  0.5392810000000  0.4714910000000 1.0
C      1  0.5402440000000  0.5392840000000  0.4862080000000 1.0
C      1  0.4910330000000  0.5392820000000  0.5420110000000 1.0
C      1  0.5742680000000  0.4360010000000  0.4543900000000 1.0
C      1  0.5015820000000  0.4359980000000  0.5873820000000 1.0
C      1  0.4227510000000  0.4359950000000  0.4579380000000 1.0
C      1  0.5364100000000  0.5253430000000  0.5346850000000 1.0
C      1  0.4509680000000  0.5253400000000  0.5144520000000 1.0
C      1  0.5112120000000  0.5253420000000  0.4505730000000 1.0
C      1  0.5082990000000  0.5213290000000  0.5278580000000 1.0
C      1  0.4709370000000  0.5213280000000  0.4935200000000 1.0
C      1  0.5193550000000  0.5213300000000  0.4783320000000 1.0
C      1  0.5495790000000  0.4597900000000  0.5141380000000 1.0
C      1  0.4621820000000  0.4597860000000  0.5361270000000 1.0
C      1  0.4868370000000  0.4597870000000  0.4494450000000 1.0
C      1  0.4215510000000  0.4442610000000  0.4858950000000 1.0
C      1  0.5506570000000  0.4442660000000  0.4393730000000 1.0
C      1  0.5263930000000  0.4442650000000  0.5744430000000 1.0
C      1  0.5531950000000  0.4849410000000  0.4657040000000 1.0
C      1  0.5023180000000  0.4849390000000  0.5634770000000 1.0
C      1  0.4430820000000  0.4849370000000  0.4705290000000 1.0
C      1  0.4989060000000  0.5035560000000  0.4357700000000 1.0
C      1  0.5553840000000  0.5035590000000  0.5314290000000 1.0
C      1  0.4443030000000  0.5035540000000  0.5325110000000 1.0
C      1  0.5031260000000  0.5535050000000  0.4478170000000 1.0
C      1  0.5428390000000  0.5535070000000  0.5290620000000 1.0
C      1  0.4526220000000  0.5535030000000  0.5228320000000 1.0
C      1  0.5642490000000  0.5112870000000  0.4602870000000 1.0
C      1  0.5014810000000  0.5112850000000  0.5757600000000 1.0
C      1  0.4328620000000  0.5112820000000  0.4636640000000 1.0
C      1  0.4533050000000  0.5268000000000  0.4481990000000 1.0
C      1  0.5674200000000  0.5268050000000  0.4857240000000 1.0
C      1  0.4778650000000  0.5268010000000  0.5657880000000 1.0
C      1  0.5268040000000  0.4695830000000  0.5598980000000 1.0
C      1  0.4339390000000  0.4695790000000  0.4935240000000 1.0
C      1  0.5378540000000  0.4695830000000  0.4462880000000 1.0
C      1  0.5461360000000  0.4758280000000  0.5384580000000 1.0
C      1  0.4428410000000  0.4758230000000  0.5209870000000 1.0
C      1  0.5096200000000  0.4758260000000  0.4402660000000 1.0
C      1  0.4995280000000  0.5678340000000  0.4999030000000 1.0
C      1  0.4995310000000  0.5151890000000  0.4999040000000 1.0
END
