TITL C-862133-5440-269 -8.88432935669915e-05 125000 -769.561003165056 0 0 144 (Td) n - 1
REM
REM in /home/nfs/bkarasulu/CARBON/AIRSS/Generating-Clusters/TERSOFF/Higher-Symm/FIRE-HFTN
REM
REM
REM
REM
REM
REM ./C.cell (b20cbc046b6831c77cfcea5457e17084)
REM AIRSS Version 0.9.1 bugfix July 2018 build 013d7b7c2542+ Fri, 06 Jul 2018 19:26:36 +0100
REM compiler GCC version 9.2.1 20190827 (Red Hat 9.2.1-1)
REM options -cpp -mtune=generic -march=x86-64 -g -O0 -fpre-include=/usr/include/finclude/math-vector-fortran.h
REM seed -1411552483 727888596 1416084509 -27291516 1129767421 -879401359 -2037709589 -1672675334 -622406320 -112434245 -805653544 -975365169 1995912011 -784391181 -314696835 1848514123 -182082481 -1164919118 493222603 2128836777 1172175384 -1580836094 1055401276 -367656209 -1211976509 -1874114771 -501984296 -1497169787 -1685966016 1542640223 2069766664 -570396318 -1326804178
REM
CELL 1.54180   50.00000   50.00000   50.00000   90.00000   90.00000   90.00000
LATT -1
SFAC C  
C      1  0.5658520000000  0.4104280000000  0.4820990000000 1.0
C      1  0.4820990000000  0.5658520000000  0.4104280000000 1.0
C      1  0.4104280000000  0.4820990000000  0.5658520000000 1.0
C      1  0.5658520000000  0.5895720000000  0.5179010000000 1.0
C      1  0.4341480000000  0.5895720000000  0.4820990000000 1.0
C      1  0.4341480000000  0.4104280000000  0.5179010000000 1.0
C      1  0.4820990000000  0.4341480000000  0.5895720000000 1.0
C      1  0.5179010000000  0.4341480000000  0.4104280000000 1.0
C      1  0.5179010000000  0.5658520000000  0.5895720000000 1.0
C      1  0.4104280000000  0.5179010000000  0.4341480000000 1.0
C      1  0.5895720000000  0.5179010000000  0.5658520000000 1.0
C      1  0.5895720000000  0.4820990000000  0.4341480000000 1.0
C      1  0.5658520000000  0.4820990000000  0.4104280000000 1.0
C      1  0.4820990000000  0.4104280000000  0.5658520000000 1.0
C      1  0.4104280000000  0.5658520000000  0.4820990000000 1.0
C      1  0.5658520000000  0.5179010000000  0.5895720000000 1.0
C      1  0.4341480000000  0.4820990000000  0.5895720000000 1.0
C      1  0.4341480000000  0.5179010000000  0.4104280000000 1.0
C      1  0.4820990000000  0.5895720000000  0.4341480000000 1.0
C      1  0.5179010000000  0.4104280000000  0.4341480000000 1.0
C      1  0.5179010000000  0.5895720000000  0.5658520000000 1.0
C      1  0.4104280000000  0.4341480000000  0.5179010000000 1.0
C      1  0.5895720000000  0.5658520000000  0.5179010000000 1.0
C      1  0.5895720000000  0.4341480000000  0.4820990000000 1.0
C      1  0.4759190000000  0.5445330000000  0.4340700000000 1.0
C      1  0.4340700000000  0.4759190000000  0.5445330000000 1.0
C      1  0.5445330000000  0.4340700000000  0.4759190000000 1.0
C      1  0.4759190000000  0.4554670000000  0.5659300000000 1.0
C      1  0.5240810000000  0.4554670000000  0.4340700000000 1.0
C      1  0.5240810000000  0.5445330000000  0.5659300000000 1.0
C      1  0.4340700000000  0.5240810000000  0.4554670000000 1.0
C      1  0.5659300000000  0.5240810000000  0.5445330000000 1.0
C      1  0.5659300000000  0.4759190000000  0.4554670000000 1.0
C      1  0.5445330000000  0.5659300000000  0.5240810000000 1.0
C      1  0.4554670000000  0.5659300000000  0.4759190000000 1.0
C      1  0.4554670000000  0.4340700000000  0.5240810000000 1.0
C      1  0.4759190000000  0.4340700000000  0.5445330000000 1.0
C      1  0.4340700000000  0.5445330000000  0.4759190000000 1.0
C      1  0.5445330000000  0.4759190000000  0.4340700000000 1.0
C      1  0.4759190000000  0.5659300000000  0.4554670000000 1.0
C      1  0.5240810000000  0.4340700000000  0.4554670000000 1.0
C      1  0.5240810000000  0.5659300000000  0.5445330000000 1.0
C      1  0.4340700000000  0.4554670000000  0.5240810000000 1.0
C      1  0.5659300000000  0.5445330000000  0.5240810000000 1.0
C      1  0.5659300000000  0.4554670000000  0.4759190000000 1.0
C      1  0.5445330000000  0.5240810000000  0.5659300000000 1.0
C      1  0.4554670000000  0.4759190000000  0.5659300000000 1.0
C      1  0.4554670000000  0.5240810000000  0.4340700000000 1.0
C      1  0.4941000000000  0.4048950000000  0.4522450000000 1.0
C      1  0.4522450000000  0.4941000000000  0.4048950000000 1.0
C      1  0.4048950000000  0.4522450000000  0.4941000000000 1.0
C      1  0.4941000000000  0.5951050000000  0.5477550000000 1.0
C      1  0.5059000000000  0.5951050000000  0.4522450000000 1.0
C      1  0.5059000000000  0.4048950000000  0.5477550000000 1.0
C      1  0.4522450000000  0.5059000000000  0.5951050000000 1.0
C      1  0.5477550000000  0.5059000000000  0.4048950000000 1.0
C      1  0.5477550000000  0.4941000000000  0.5951050000000 1.0
C      1  0.4048950000000  0.5477550000000  0.5059000000000 1.0
C      1  0.5951050000000  0.5477550000000  0.4941000000000 1.0
C      1  0.5951050000000  0.4522450000000  0.5059000000000 1.0
C      1  0.4941000000000  0.4522450000000  0.4048950000000 1.0
C      1  0.4522450000000  0.4048950000000  0.4941000000000 1.0
C      1  0.4048950000000  0.4941000000000  0.4522450000000 1.0
C      1  0.4941000000000  0.5477550000000  0.5951050000000 1.0
C      1  0.5059000000000  0.4522450000000  0.5951050000000 1.0
C      1  0.5059000000000  0.5477550000000  0.4048950000000 1.0
C      1  0.4522450000000  0.5951050000000  0.5059000000000 1.0
C      1  0.5477550000000  0.4048950000000  0.5059000000000 1.0
C      1  0.5477550000000  0.5951050000000  0.4941000000000 1.0
C      1  0.4048950000000  0.5059000000000  0.5477550000000 1.0
C      1  0.5951050000000  0.4941000000000  0.5477550000000 1.0
C      1  0.5951050000000  0.5059000000000  0.4522450000000 1.0
C      1  0.5012920000000  0.5234700000000  0.3875960000000 1.0
C      1  0.3875960000000  0.5012920000000  0.5234700000000 1.0
C      1  0.5234700000000  0.3875960000000  0.5012920000000 1.0
C      1  0.5012920000000  0.4765300000000  0.6124040000000 1.0
C      1  0.4987080000000  0.4765300000000  0.3875960000000 1.0
C      1  0.4987080000000  0.5234700000000  0.6124040000000 1.0
C      1  0.3875960000000  0.4987080000000  0.4765300000000 1.0
C      1  0.6124040000000  0.4987080000000  0.5234700000000 1.0
C      1  0.6124040000000  0.5012920000000  0.4765300000000 1.0
C      1  0.5234700000000  0.6124040000000  0.4987080000000 1.0
C      1  0.4765300000000  0.6124040000000  0.5012920000000 1.0
C      1  0.4765300000000  0.3875960000000  0.4987080000000 1.0
C      1  0.5012920000000  0.3875960000000  0.5234700000000 1.0
C      1  0.3875960000000  0.5234700000000  0.5012920000000 1.0
C      1  0.5234700000000  0.5012920000000  0.3875960000000 1.0
C      1  0.5012920000000  0.6124040000000  0.4765300000000 1.0
C      1  0.4987080000000  0.3875960000000  0.4765300000000 1.0
C      1  0.4987080000000  0.6124040000000  0.5234700000000 1.0
C      1  0.3875960000000  0.4765300000000  0.4987080000000 1.0
C      1  0.6124040000000  0.5234700000000  0.4987080000000 1.0
C      1  0.6124040000000  0.4765300000000  0.5012920000000 1.0
C      1  0.5234700000000  0.4987080000000  0.6124040000000 1.0
C      1  0.4765300000000  0.5012920000000  0.6124040000000 1.0
C      1  0.4765300000000  0.4987080000000  0.3875960000000 1.0
C      1  0.5441050000000  0.4310350000000  0.5218620000000 1.0
C      1  0.5218620000000  0.5441050000000  0.4310350000000 1.0
C      1  0.4310350000000  0.5218620000000  0.5441050000000 1.0
C      1  0.5441050000000  0.5689650000000  0.4781380000000 1.0
C      1  0.4558950000000  0.5689650000000  0.5218620000000 1.0
C      1  0.4558950000000  0.4310350000000  0.4781380000000 1.0
C      1  0.5218620000000  0.4558950000000  0.5689650000000 1.0
C      1  0.4781380000000  0.4558950000000  0.4310350000000 1.0
C      1  0.4781380000000  0.5441050000000  0.5689650000000 1.0
C      1  0.4310350000000  0.4781380000000  0.4558950000000 1.0
C      1  0.5689650000000  0.4781380000000  0.5441050000000 1.0
C      1  0.5689650000000  0.5218620000000  0.4558950000000 1.0
C      1  0.5441050000000  0.5218620000000  0.4310350000000 1.0
C      1  0.5218620000000  0.4310350000000  0.5441050000000 1.0
C      1  0.4310350000000  0.5441050000000  0.5218620000000 1.0
C      1  0.5441050000000  0.4781380000000  0.5689650000000 1.0
C      1  0.4558950000000  0.5218620000000  0.5689650000000 1.0
C      1  0.4558950000000  0.4781380000000  0.4310350000000 1.0
C      1  0.5218620000000  0.5689650000000  0.4558950000000 1.0
C      1  0.4781380000000  0.4310350000000  0.4558950000000 1.0
C      1  0.4781380000000  0.5689650000000  0.5441050000000 1.0
C      1  0.4310350000000  0.4558950000000  0.4781380000000 1.0
C      1  0.5689650000000  0.5441050000000  0.4781380000000 1.0
C      1  0.5689650000000  0.4558950000000  0.5218620000000 1.0
C      1  0.4504260000000  0.5254060000000  0.5002220000000 1.0
C      1  0.5002220000000  0.4504260000000  0.5254060000000 1.0
C      1  0.5254060000000  0.5002220000000  0.4504260000000 1.0
C      1  0.4504260000000  0.4745940000000  0.4997780000000 1.0
C      1  0.5495740000000  0.4745940000000  0.5002220000000 1.0
C      1  0.5495740000000  0.5254060000000  0.4997780000000 1.0
C      1  0.5002220000000  0.5495740000000  0.4745940000000 1.0
C      1  0.4997780000000  0.5495740000000  0.5254060000000 1.0
C      1  0.4997780000000  0.4504260000000  0.4745940000000 1.0
C      1  0.5254060000000  0.4997780000000  0.5495740000000 1.0
C      1  0.4745940000000  0.4997780000000  0.4504260000000 1.0
C      1  0.4745940000000  0.5002220000000  0.5495740000000 1.0
C      1  0.4504260000000  0.5002220000000  0.5254060000000 1.0
C      1  0.5002220000000  0.5254060000000  0.4504260000000 1.0
C      1  0.5254060000000  0.4504260000000  0.5002220000000 1.0
C      1  0.4504260000000  0.4997780000000  0.4745940000000 1.0
C      1  0.5495740000000  0.5002220000000  0.4745940000000 1.0
C      1  0.5495740000000  0.4997780000000  0.5254060000000 1.0
C      1  0.5002220000000  0.4745940000000  0.5495740000000 1.0
C      1  0.4997780000000  0.5254060000000  0.5495740000000 1.0
C      1  0.4997780000000  0.4745940000000  0.4504260000000 1.0
C      1  0.5254060000000  0.5495740000000  0.4997780000000 1.0
C      1  0.4745940000000  0.4504260000000  0.4997780000000 1.0
C      1  0.4745940000000  0.5495740000000  0.5002220000000 1.0
END
