TITL C-862129-6180-924 0.00219898930102652 125000 -801.3196832708 0 0 146 (S4) n - 1
REM
REM in /home/nfs/bkarasulu/CARBON/AIRSS/Generating-Clusters/TERSOFF/Higher-Symm/FIRE-HFTN
REM
REM
REM
REM
REM
REM ./C.cell (b20cbc046b6831c77cfcea5457e17084)
REM AIRSS Version 0.9.1 bugfix July 2018 build 013d7b7c2542+ Fri, 06 Jul 2018 19:26:36 +0100
REM compiler GCC version 9.2.1 20190827 (Red Hat 9.2.1-1)
REM options -cpp -mtune=generic -march=x86-64 -g -O0 -fpre-include=/usr/include/finclude/math-vector-fortran.h
REM seed 787161149 1084640605 -1053910002 1068667221 1204100347 -580779286 -614341321 2033059227 -922433493 -1635856773 -152825419 -1827128375 -1813779768 -142570902 1891826295 -920813048 1073216065 -2021369608 1302687764 -1514212037 1500511213 1452817438 1525744863 669677802 1685230584 2140792491 -562276908 -32830039 578599889 1305608045 2108239169 1618196985 -590727239
REM
CELL 1.54180   50.00000   50.00000   50.00000   90.00000   90.00000   90.00000
LATT -1
SFAC C  
C      1  0.4392360000000  0.5264340000000  0.5297510000000 1.0
C      1  0.5265020000000  0.5605760000000  0.4702490000000 1.0
C      1  0.5606440000000  0.4733090000000  0.5297510000000 1.0
C      1  0.4733780000000  0.4391670000000  0.4702490000000 1.0
C      1  0.5544400000000  0.5306830000000  0.5621480000000 1.0
C      1  0.5307510000000  0.4453720000000  0.4378510000000 1.0
C      1  0.4454410000000  0.4690600000000  0.5621490000000 1.0
C      1  0.4691280000000  0.5543710000000  0.4378510000000 1.0
C      1  0.4544210000000  0.5276860000000  0.4027350000000 1.0
C      1  0.5277550000000  0.5453900000000  0.5972650000000 1.0
C      1  0.5454580000000  0.4720570000000  0.4027350000000 1.0
C      1  0.4721260000000  0.4543530000000  0.5972660000000 1.0
C      1  0.5341910000000  0.4600230000000  0.5642770000000 1.0
C      1  0.4600910000000  0.4656200000000  0.4357230000000 1.0
C      1  0.4656890000000  0.5397200000000  0.5642770000000 1.0
C      1  0.5397880000000  0.5341230000000  0.4357220000000 1.0
C      1  0.4325820000000  0.5673690000000  0.5210550000000 1.0
C      1  0.5674370000000  0.5672300000000  0.4789450000000 1.0
C      1  0.5672980000000  0.4323740000000  0.5210550000000 1.0
C      1  0.4324430000000  0.4325130000000  0.4789450000000 1.0
C      1  0.4381810000000  0.5260740000000  0.4524800000000 1.0
C      1  0.5261420000000  0.5616310000000  0.5475200000000 1.0
C      1  0.5616990000000  0.4736690000000  0.4524790000000 1.0
C      1  0.4737380000000  0.4381130000000  0.5475210000000 1.0
C      1  0.5332280000000  0.5580140000000  0.4211880000000 1.0
C      1  0.5580820000000  0.4665830000000  0.5788110000000 1.0
C      1  0.4666510000000  0.4417290000000  0.4211890000000 1.0
C      1  0.4417980000000  0.5331600000000  0.5788120000000 1.0
C      1  0.5868400000000  0.5071820000000  0.4538080000000 1.0
C      1  0.5072510000000  0.4129720000000  0.5461920000000 1.0
C      1  0.4130400000000  0.4925610000000  0.4538080000000 1.0
C      1  0.4926290000000  0.5867720000000  0.5461920000000 1.0
C      1  0.4363030000000  0.4743040000000  0.5202350000000 1.0
C      1  0.4743720000000  0.5635090000000  0.4797650000000 1.0
C      1  0.5635770000000  0.5254400000000  0.5202350000000 1.0
C      1  0.5255080000000  0.4362350000000  0.4797650000000 1.0
C      1  0.6019750000000  0.4779120000000  0.5244320000000 1.0
C      1  0.4779800000000  0.3978360000000  0.4755680000000 1.0
C      1  0.3979050000000  0.5218310000000  0.5244330000000 1.0
C      1  0.5218990000000  0.6019070000000  0.4755670000000 1.0
C      1  0.4898110000000  0.5110410000000  0.4648910000000 1.0
C      1  0.5111100000000  0.5100010000000  0.5351090000000 1.0
C      1  0.5100690000000  0.4887020000000  0.4648910000000 1.0
C      1  0.4887700000000  0.4897430000000  0.5351090000000 1.0
C      1  0.4305480000000  0.4979370000000  0.5355700000000 1.0
C      1  0.4980050000000  0.5692640000000  0.4644310000000 1.0
C      1  0.5693320000000  0.5018060000000  0.5355690000000 1.0
C      1  0.5018740000000  0.4304790000000  0.4644310000000 1.0
C      1  0.4351580000000  0.5345840000000  0.4231090000000 1.0
C      1  0.5346530000000  0.5646530000000  0.5768910000000 1.0
C      1  0.5647210000000  0.4651590000000  0.4231090000000 1.0
C      1  0.4652280000000  0.4350900000000  0.5768910000000 1.0
C      1  0.4918680000000  0.4006720000000  0.5027130000000 1.0
C      1  0.4007400000000  0.5079440000000  0.4972870000000 1.0
C      1  0.5080120000000  0.5990710000000  0.5027130000000 1.0
C      1  0.5991390000000  0.4918000000000  0.4972860000000 1.0
C      1  0.4473260000000  0.4038590000000  0.4741410000000 1.0
C      1  0.4039270000000  0.5524860000000  0.5258590000000 1.0
C      1  0.5525540000000  0.5958840000000  0.4741410000000 1.0
C      1  0.5959530000000  0.4472580000000  0.5258590000000 1.0
C      1  0.4918420000000  0.4732730000000  0.5850840000000 1.0
C      1  0.4733410000000  0.5079690000000  0.4149160000000 1.0
C      1  0.5080380000000  0.5264710000000  0.5850840000000 1.0
C      1  0.5265390000000  0.4917740000000  0.4149160000000 1.0
C      1  0.4415340000000  0.5676840000000  0.4480860000000 1.0
C      1  0.5677530000000  0.5582780000000  0.5519140000000 1.0
C      1  0.5583460000000  0.4320590000000  0.4480860000000 1.0
C      1  0.4321280000000  0.4414660000000  0.5519140000000 1.0
C      1  0.4042480000000  0.5025550000000  0.5544380000000 1.0
C      1  0.5026230000000  0.5955630000000  0.4455620000000 1.0
C      1  0.5956320000000  0.4971880000000  0.5544380000000 1.0
C      1  0.4972560000000  0.4041800000000  0.4455620000000 1.0
C      1  0.4660070000000  0.5344820000000  0.5349590000000 1.0
C      1  0.5345500000000  0.5338050000000  0.4650410000000 1.0
C      1  0.5338730000000  0.4652610000000  0.5349590000000 1.0
C      1  0.4653300000000  0.4659380000000  0.4650410000000 1.0
C      1  0.4969200000000  0.4693190000000  0.3876290000000 1.0
C      1  0.4693880000000  0.5028920000000  0.6123710000000 1.0
C      1  0.5029600000000  0.5304240000000  0.3876290000000 1.0
C      1  0.5304920000000  0.4968520000000  0.6123710000000 1.0
C      1  0.4200560000000  0.5590530000000  0.4707670000000 1.0
C      1  0.5591210000000  0.5797550000000  0.5292330000000 1.0
C      1  0.5798240000000  0.4406900000000  0.4707670000000 1.0
C      1  0.4407590000000  0.4199880000000  0.5292330000000 1.0
C      1  0.5418190000000  0.4116320000000  0.4843070000000 1.0
C      1  0.4117000000000  0.4579930000000  0.5156930000000 1.0
C      1  0.4580610000000  0.5881110000000  0.4843070000000 1.0
C      1  0.5881800000000  0.5417510000000  0.5156920000000 1.0
C      1  0.5193260000000  0.5230320000000  0.5087630000000 1.0
C      1  0.5231000000000  0.4804860000000  0.4912370000000 1.0
C      1  0.4805540000000  0.4767110000000  0.5087630000000 1.0
C      1  0.4767800000000  0.5192580000000  0.4912370000000 1.0
C      1  0.4285400000000  0.4883880000000  0.5763980000000 1.0
C      1  0.4884560000000  0.5712720000000  0.4236020000000 1.0
C      1  0.5713410000000  0.5113560000000  0.5763980000000 1.0
C      1  0.5114240000000  0.4284710000000  0.4236020000000 1.0
C      1  0.5756940000000  0.5054980000000  0.4268870000000 1.0
C      1  0.5055670000000  0.4241170000000  0.5731130000000 1.0
C      1  0.4241850000000  0.4942450000000  0.4268870000000 1.0
C      1  0.4943140000000  0.5756260000000  0.5731130000000 1.0
C      1  0.4758150000000  0.4780770000000  0.5602390000000 1.0
C      1  0.4781450000000  0.5239970000000  0.4397610000000 1.0
C      1  0.5240650000000  0.5216670000000  0.5602390000000 1.0
C      1  0.5217350000000  0.4757460000000  0.4397610000000 1.0
C      1  0.5981650000000  0.5225450000000  0.4940240000000 1.0
C      1  0.5226130000000  0.4016460000000  0.5059760000000 1.0
C      1  0.4017140000000  0.4771980000000  0.4940240000000 1.0
C      1  0.4772670000000  0.5980970000000  0.5059760000000 1.0
C      1  0.4233950000000  0.4319480000000  0.5073860000000 1.0
C      1  0.4320170000000  0.5764160000000  0.4926140000000 1.0
C      1  0.5764850000000  0.5677950000000  0.5073860000000 1.0
C      1  0.5678630000000  0.4233270000000  0.4926140000000 1.0
C      1  0.4659200000000  0.5002850000000  0.6411760000000 1.0
C      1  0.5003530000000  0.5338910000000  0.3588240000000 1.0
C      1  0.5339600000000  0.4994580000000  0.6411760000000 1.0
C      1  0.4995260000000  0.4658510000000  0.3588240000000 1.0
C      1  0.4580100000000  0.5368110000000  0.4743030000000 1.0
C      1  0.5368790000000  0.5418010000000  0.5256970000000 1.0
C      1  0.5418700000000  0.4629320000000  0.4743030000000 1.0
C      1  0.4630010000000  0.4579420000000  0.5256970000000 1.0
C      1  0.5484740000000  0.5178290000000  0.4882740000000 1.0
C      1  0.5178980000000  0.4513380000000  0.5117260000000 1.0
C      1  0.4514060000000  0.4819140000000  0.4882740000000 1.0
C      1  0.4819820000000  0.5484050000000  0.5117260000000 1.0
C      1  0.4913570000000  0.4440680000000  0.4056670000000 1.0
C      1  0.4441370000000  0.5084540000000  0.5943340000000 1.0
C      1  0.5085220000000  0.5556750000000  0.4056660000000 1.0
C      1  0.5557440000000  0.4912890000000  0.5943330000000 1.0
C      1  0.4237730000000  0.4673040000000  0.4726690000000 1.0
C      1  0.4673730000000  0.5760390000000  0.5273310000000 1.0
C      1  0.5761070000000  0.5324390000000  0.4726690000000 1.0
C      1  0.5325070000000  0.4237040000000  0.5273310000000 1.0
C      1  0.5119520000000  0.4519250000000  0.5779650000000 1.0
C      1  0.4519930000000  0.4878600000000  0.4220360000000 1.0
C      1  0.4879290000000  0.5478180000000  0.5779640000000 1.0
C      1  0.5478860000000  0.5118830000000  0.4220350000000 1.0
C      1  0.4680040000000  0.4206000000000  0.4417230000000 1.0
C      1  0.4206690000000  0.5318070000000  0.5582780000000 1.0
C      1  0.5318750000000  0.5791430000000  0.4417220000000 1.0
C      1  0.5792120000000  0.4679360000000  0.5582770000000 1.0
C      1  0.5242210000000  0.5896530000000  0.5290470000000 1.0
C      1  0.5897210000000  0.4755910000000  0.4709530000000 1.0
C      1  0.4756590000000  0.4100910000000  0.5290470000000 1.0
C      1  0.4101590000000  0.5241530000000  0.4709530000000 1.0
C      1  0.4999400000000  0.4998720000000  0.4002380000000 1.0
C      1  0.4999400000000  0.4998720000000  0.5997620000000 1.0
END
