TITL C-862500-986-707 0.0556771617377545 125000 -407.501341983418 0 0 73 (C1) n - 1
REM
REM in /home/nfs/bkarasulu/CARBON/AIRSS/Generating-Clusters/TERSOFF/Higher-Symm/FIRE-HFTN
REM
REM
REM
REM
REM
REM ./C.cell (b20cbc046b6831c77cfcea5457e17084)
REM AIRSS Version 0.9.1 bugfix July 2018 build 013d7b7c2542+ Fri, 06 Jul 2018 19:26:36 +0100
REM compiler GCC version 9.2.1 20190827 (Red Hat 9.2.1-1)
REM options -cpp -mtune=generic -march=x86-64 -g -O0 -fpre-include=/usr/include/finclude/math-vector-fortran.h
REM seed -1214699148 1898079203 1758479887 1891990070 -332496159 1216152237 -1104546622 327150368 -510314315 -1178521257 185041991 603286204 1347531599 2012315398 -1172296433 -623750397 1903760991 -367793334 -727980028 712721634 198482111 -1491850286 1376486737 1323353145 1338054792 576239074 -1773595946 157968304 1951553495 1552813771 -642135787 -1538044429 -1055349127
REM
CELL 1.54180   50.00000   50.00000   50.00000   90.00000   90.00000   90.00000
LATT -1
SFAC C  
C      1  0.4955890000000  0.4846610000000  0.5261170000000 1.0
C      1  0.4452940000000  0.5124450000000  0.5089090000000 1.0
C      1  0.4677370000000  0.4584700000000  0.4638050000000 1.0
C      1  0.5233360000000  0.4336330000000  0.4640320000000 1.0
C      1  0.4598850000000  0.5586140000000  0.5123210000000 1.0
C      1  0.5827960000000  0.4926300000000  0.5158400000000 1.0
C      1  0.5057740000000  0.5116070000000  0.5352610000000 1.0
C      1  0.4780840000000  0.4157750000000  0.4835170000000 1.0
C      1  0.5413170000000  0.5084160000000  0.5408830000000 1.0
C      1  0.4474630000000  0.5371780000000  0.5260210000000 1.0
C      1  0.4722270000000  0.4362550000000  0.5065950000000 1.0
C      1  0.4411000000000  0.4668400000000  0.4721050000000 1.0
C      1  0.5036230000000  0.5141030000000  0.4603740000000 1.0
C      1  0.5395650000000  0.4310280000000  0.4898790000000 1.0
C      1  0.5342180000000  0.5073140000000  0.4552120000000 1.0
C      1  0.5182970000000  0.5736320000000  0.5248900000000 1.0
C      1  0.5198990000000  0.5810310000000  0.4960030000000 1.0
C      1  0.5649410000000  0.4512620000000  0.4928650000000 1.0
C      1  0.4860390000000  0.5065210000000  0.4370850000000 1.0
C      1  0.5078490000000  0.4594540000000  0.5664650000000 1.0
C      1  0.5439150000000  0.5623500000000  0.4836960000000 1.0
C      1  0.4753160000000  0.4437390000000  0.4382240000000 1.0
C      1  0.5676290000000  0.5178990000000  0.5249830000000 1.0
C      1  0.5034800000000  0.5419020000000  0.4226680000000 1.0
C      1  0.4334360000000  0.4946460000000  0.4641460000000 1.0
C      1  0.4955080000000  0.5693040000000  0.4785360000000 1.0
C      1  0.5283670000000  0.5290010000000  0.5038600000000 1.0
C      1  0.4053240000000  0.5012070000000  0.4730050000000 1.0
C      1  0.4930870000000  0.5730280000000  0.5407140000000 1.0
C      1  0.4860090000000  0.4300110000000  0.5316260000000 1.0
C      1  0.3934660000000  0.4928260000000  0.4982450000000 1.0
C      1  0.5227980000000  0.4825420000000  0.5796650000000 1.0
C      1  0.4550250000000  0.5138180000000  0.4783740000000 1.0
C      1  0.5159370000000  0.5476190000000  0.4658300000000 1.0
C      1  0.5341160000000  0.5361230000000  0.5541830000000 1.0
C      1  0.4514190000000  0.4821910000000  0.5485240000000 1.0
C      1  0.4860420000000  0.5537650000000  0.5024750000000 1.0
C      1  0.5092530000000  0.5351330000000  0.5708410000000 1.0
C      1  0.4587170000000  0.5350500000000  0.5530370000000 1.0
C      1  0.5259150000000  0.4823410000000  0.4965690000000 1.0
C      1  0.4873720000000  0.5071440000000  0.4849820000000 1.0
C      1  0.5700960000000  0.4731110000000  0.4730580000000 1.0
C      1  0.5480120000000  0.4791930000000  0.4541040000000 1.0
C      1  0.5851080000000  0.4958160000000  0.4861490000000 1.0
C      1  0.5290190000000  0.5255500000000  0.4285160000000 1.0
C      1  0.4683820000000  0.5657630000000  0.4651330000000 1.0
C      1  0.5046180000000  0.5070680000000  0.5864130000000 1.0
C      1  0.5686280000000  0.5452610000000  0.5036060000000 1.0
C      1  0.4845090000000  0.4571170000000  0.4868870000000 1.0
C      1  0.4732610000000  0.5315390000000  0.4281080000000 1.0
C      1  0.5420470000000  0.4837040000000  0.5204420000000 1.0
C      1  0.4598760000000  0.5395450000000  0.4553310000000 1.0
C      1  0.5118000000000  0.4418480000000  0.5401730000000 1.0
C      1  0.4964110000000  0.4804870000000  0.4968250000000 1.0
C      1  0.4936210000000  0.4249520000000  0.4598710000000 1.0
C      1  0.4383310000000  0.4841030000000  0.5217100000000 1.0
C      1  0.5751200000000  0.5234010000000  0.4802350000000 1.0
C      1  0.4085540000000  0.4850310000000  0.5215080000000 1.0
C      1  0.4813900000000  0.4692790000000  0.5494840000000 1.0
C      1  0.5050670000000  0.4711840000000  0.4493750000000 1.0
C      1  0.4560950000000  0.5087170000000  0.5655360000000 1.0
C      1  0.4455620000000  0.4602750000000  0.5022530000000 1.0
C      1  0.4858060000000  0.5010890000000  0.5634480000000 1.0
C      1  0.4848850000000  0.4754880000000  0.4264270000000 1.0
C      1  0.5654920000000  0.4632980000000  0.5234450000000 1.0
C      1  0.5367380000000  0.4416290000000  0.5224160000000 1.0
C      1  0.5297370000000  0.4572410000000  0.4471500000000 1.0
C      1  0.4852530000000  0.5500170000000  0.5583400000000 1.0
C      1  0.5341910000000  0.5491210000000  0.5272040000000 1.0
C      1  0.5454100000000  0.5206880000000  0.4787770000000 1.0
C      1  0.5459880000000  0.4915910000000  0.5654000000000 1.0
C      1  0.4358460000000  0.4979140000000  0.4345480000000 1.0
C      1  0.4979820000000  0.5264710000000  0.5057640000000 1.0
END
