TITL C-862127-1500-617 6.7037208362571e-06 125000 -773.633937592328 0 0 132 (C4v) n - 1
REM
REM in /home/nfs/bkarasulu/CARBON/AIRSS/Generating-Clusters/TERSOFF/Higher-Symm/FIRE-HFTN
REM
REM
REM
REM
REM
REM ./C.cell (b20cbc046b6831c77cfcea5457e17084)
REM AIRSS Version 0.9.1 bugfix July 2018 build 013d7b7c2542+ Fri, 06 Jul 2018 19:26:36 +0100
REM compiler GCC version 9.2.1 20190827 (Red Hat 9.2.1-1)
REM options -cpp -mtune=generic -march=x86-64 -g -O0 -fpre-include=/usr/include/finclude/math-vector-fortran.h
REM seed -956702543 -1134142202 1211361833 828808359 -2139281880 721516565 -1739456669 845128722 513367417 207061794 -570527597 1331097715 1567755241 -102294677 116254828 1026693244 -309383290 -941399304 -1395256182 -1832658437 1533282 345366852 277803525 1988598112 1455088232 1150749020 -1815413642 1232691029 -510555756 1991502223 386733195 280644997 -321792016
REM
CELL 1.54180   50.00000   50.00000   50.00000   90.00000   90.00000   90.00000
LATT -1
SFAC C  
C      1  0.4091830000000  0.5122120000000  0.4464770000000 1.0
C      1  0.4464770000000  0.5122120000000  0.5908170000000 1.0
C      1  0.5908170000000  0.5122120000000  0.5535230000000 1.0
C      1  0.5535230000000  0.5122120000000  0.4091830000000 1.0
C      1  0.5908170000000  0.5122120000000  0.4464770000000 1.0
C      1  0.5535230000000  0.5122120000000  0.5908170000000 1.0
C      1  0.4091830000000  0.5122120000000  0.5535230000000 1.0
C      1  0.4464770000000  0.5122120000000  0.4091830000000 1.0
C      1  0.5153550000000  0.5771060000000  0.5516540000000 1.0
C      1  0.5516540000000  0.5771060000000  0.4846450000000 1.0
C      1  0.4846450000000  0.5771060000000  0.4483460000000 1.0
C      1  0.4483460000000  0.5771060000000  0.5153550000000 1.0
C      1  0.4846450000000  0.5771060000000  0.5516540000000 1.0
C      1  0.4483460000000  0.5771060000000  0.4846450000000 1.0
C      1  0.5153550000000  0.5771060000000  0.4483460000000 1.0
C      1  0.5516540000000  0.5771060000000  0.5153550000000 1.0
C      1  0.4727150000000  0.5515760000000  0.4351740000000 1.0
C      1  0.4351740000000  0.5515760000000  0.5272850000000 1.0
C      1  0.5272850000000  0.5515760000000  0.5648260000000 1.0
C      1  0.5648260000000  0.5515760000000  0.4727150000000 1.0
C      1  0.5272850000000  0.5515760000000  0.4351740000000 1.0
C      1  0.5648260000000  0.5515760000000  0.5272850000000 1.0
C      1  0.4727150000000  0.5515760000000  0.5648260000000 1.0
C      1  0.4351740000000  0.5515760000000  0.4727150000000 1.0
C      1  0.5376570000000  0.4327270000000  0.4845740000000 1.0
C      1  0.4845740000000  0.4327270000000  0.4623430000000 1.0
C      1  0.4623430000000  0.4327270000000  0.5154260000000 1.0
C      1  0.5154260000000  0.4327270000000  0.5376570000000 1.0
C      1  0.4623430000000  0.4327270000000  0.4845740000000 1.0
C      1  0.5154260000000  0.4327270000000  0.4623430000000 1.0
C      1  0.5376570000000  0.4327270000000  0.5154260000000 1.0
C      1  0.4845740000000  0.4327270000000  0.5376570000000 1.0
C      1  0.5159090000000  0.5050750000000  0.5609250000000 1.0
C      1  0.5609250000000  0.5050750000000  0.4840910000000 1.0
C      1  0.4840910000000  0.5050750000000  0.4390750000000 1.0
C      1  0.4390750000000  0.5050750000000  0.5159090000000 1.0
C      1  0.4840910000000  0.5050750000000  0.5609250000000 1.0
C      1  0.4390750000000  0.5050750000000  0.4840910000000 1.0
C      1  0.5159090000000  0.5050750000000  0.4390750000000 1.0
C      1  0.5609250000000  0.5050750000000  0.5159090000000 1.0
C      1  0.5245530000000  0.5130320000000  0.5922420000000 1.0
C      1  0.5922420000000  0.5130320000000  0.4754470000000 1.0
C      1  0.4754470000000  0.5130320000000  0.4077580000000 1.0
C      1  0.4077580000000  0.5130320000000  0.5245530000000 1.0
C      1  0.4754470000000  0.5130320000000  0.5922420000000 1.0
C      1  0.4077580000000  0.5130320000000  0.4754470000000 1.0
C      1  0.5245530000000  0.5130320000000  0.4077580000000 1.0
C      1  0.5922420000000  0.5130320000000  0.5245530000000 1.0
C      1  0.5303720000000  0.4806830000000  0.4477960000000 1.0
C      1  0.4477960000000  0.4806830000000  0.4696280000000 1.0
C      1  0.4696280000000  0.4806830000000  0.5522040000000 1.0
C      1  0.5522040000000  0.4806830000000  0.5303720000000 1.0
C      1  0.4696280000000  0.4806830000000  0.4477960000000 1.0
C      1  0.5522040000000  0.4806830000000  0.4696280000000 1.0
C      1  0.5303720000000  0.4806830000000  0.5522040000000 1.0
C      1  0.4477960000000  0.4806830000000  0.5303720000000 1.0
C      1  0.5336410000000  0.4613390000000  0.4227900000000 1.0
C      1  0.4227900000000  0.4613390000000  0.4663590000000 1.0
C      1  0.4663590000000  0.4613390000000  0.5772100000000 1.0
C      1  0.5772100000000  0.4613390000000  0.5336410000000 1.0
C      1  0.4663590000000  0.4613390000000  0.4227900000000 1.0
C      1  0.5772100000000  0.4613390000000  0.4663590000000 1.0
C      1  0.5336410000000  0.4613390000000  0.5772100000000 1.0
C      1  0.4227900000000  0.4613390000000  0.5336410000000 1.0
C      1  0.5650140000000  0.4338710000000  0.5294540000000 1.0
C      1  0.5294540000000  0.4338710000000  0.4349860000000 1.0
C      1  0.4349860000000  0.4338710000000  0.4705460000000 1.0
C      1  0.4705460000000  0.4338710000000  0.5650140000000 1.0
C      1  0.4349860000000  0.4338710000000  0.5294540000000 1.0
C      1  0.4705460000000  0.4338710000000  0.4349860000000 1.0
C      1  0.5650140000000  0.4338710000000  0.4705460000000 1.0
C      1  0.5294540000000  0.4338710000000  0.5650140000000 1.0
C      1  0.5163500000000  0.4653810000000  0.6012980000000 1.0
C      1  0.6012980000000  0.4653810000000  0.4836500000000 1.0
C      1  0.4836500000000  0.4653810000000  0.3987020000000 1.0
C      1  0.3987020000000  0.4653810000000  0.5163500000000 1.0
C      1  0.4836500000000  0.4653810000000  0.6012980000000 1.0
C      1  0.3987020000000  0.4653810000000  0.4836500000000 1.0
C      1  0.5163500000000  0.4653810000000  0.3987020000000 1.0
C      1  0.6012980000000  0.4653810000000  0.5163500000000 1.0
C      1  0.5746460000000  0.5388740000000  0.5550320000000 1.0
C      1  0.5550320000000  0.5388740000000  0.4253540000000 1.0
C      1  0.4253540000000  0.5388740000000  0.4449680000000 1.0
C      1  0.4449680000000  0.5388740000000  0.5746460000000 1.0
C      1  0.4253540000000  0.5388740000000  0.5550320000000 1.0
C      1  0.4449680000000  0.5388740000000  0.4253540000000 1.0
C      1  0.5746460000000  0.5388740000000  0.4449680000000 1.0
C      1  0.5550320000000  0.5388740000000  0.5746460000000 1.0
C      1  0.4851260000000  0.4944410000000  0.6126610000000 1.0
C      1  0.6126610000000  0.4944410000000  0.5148740000000 1.0
C      1  0.5148740000000  0.4944410000000  0.3873390000000 1.0
C      1  0.3873390000000  0.4944410000000  0.4851260000000 1.0
C      1  0.5148740000000  0.4944410000000  0.6126610000000 1.0
C      1  0.3873390000000  0.4944410000000  0.5148740000000 1.0
C      1  0.4851260000000  0.4944410000000  0.3873390000000 1.0
C      1  0.6126610000000  0.4944410000000  0.4851260000000 1.0
C      1  0.5905350000000  0.5413690000000  0.4857840000000 1.0
C      1  0.4857840000000  0.5413690000000  0.4094650000000 1.0
C      1  0.4094650000000  0.5413690000000  0.5142160000000 1.0
C      1  0.5142160000000  0.5413690000000  0.5905350000000 1.0
C      1  0.4094650000000  0.5413690000000  0.4857840000000 1.0
C      1  0.5142160000000  0.5413690000000  0.4094650000000 1.0
C      1  0.5905350000000  0.5413690000000  0.5142160000000 1.0
C      1  0.4857840000000  0.5413690000000  0.5905350000000 1.0
C      1  0.4393260000000  0.4833990000000  0.4188780000000 1.0
C      1  0.4188780000000  0.4833990000000  0.5606740000000 1.0
C      1  0.5606740000000  0.4833990000000  0.5811220000000 1.0
C      1  0.5811220000000  0.4833990000000  0.4393260000000 1.0
C      1  0.5606740000000  0.4833990000000  0.4188780000000 1.0
C      1  0.5811220000000  0.4833990000000  0.5606740000000 1.0
C      1  0.4393260000000  0.4833990000000  0.5811220000000 1.0
C      1  0.4188780000000  0.4833990000000  0.4393260000000 1.0
C      1  0.5700010000000  0.4134460000000  0.4502920000000 1.0
C      1  0.4502920000000  0.4134460000000  0.4299990000000 1.0
C      1  0.4299990000000  0.4134460000000  0.5497080000000 1.0
C      1  0.5497080000000  0.4134460000000  0.5700010000000 1.0
C      1  0.4299990000000  0.4134460000000  0.4502920000000 1.0
C      1  0.5497080000000  0.4134460000000  0.4299990000000 1.0
C      1  0.5700010000000  0.4134460000000  0.5497080000000 1.0
C      1  0.4502920000000  0.4134460000000  0.5700010000000 1.0
C      1  0.5409250000000  0.5308580000000  0.5181180000000 1.0
C      1  0.5181180000000  0.5308580000000  0.4590750000000 1.0
C      1  0.4590750000000  0.5308580000000  0.4818820000000 1.0
C      1  0.4818820000000  0.5308580000000  0.5409250000000 1.0
C      1  0.4590750000000  0.5308580000000  0.5181180000000 1.0
C      1  0.4818820000000  0.5308580000000  0.4590750000000 1.0
C      1  0.5409250000000  0.5308580000000  0.4818820000000 1.0
C      1  0.5181180000000  0.5308580000000  0.5409250000000 1.0
C      1  0.4815690000000  0.5828220000000  0.5184310000000 1.0
C      1  0.5184310000000  0.5828220000000  0.5184310000000 1.0
C      1  0.4815690000000  0.5828220000000  0.4815690000000 1.0
C      1  0.5184310000000  0.5828220000000  0.4815690000000 1.0
END
