TITL C-862501-1041-40 -0.00920975521773446 125000 -436.882308568369 0 0 77 (C1) n - 1
REM
REM in /home/nfs/bkarasulu/CARBON/AIRSS/Generating-Clusters/TERSOFF/Higher-Symm/FIRE-HFTN
REM
REM
REM
REM
REM
REM ./C.cell (b20cbc046b6831c77cfcea5457e17084)
REM AIRSS Version 0.9.1 bugfix July 2018 build 013d7b7c2542+ Fri, 06 Jul 2018 19:26:36 +0100
REM compiler GCC version 9.2.1 20190827 (Red Hat 9.2.1-1)
REM options -cpp -mtune=generic -march=x86-64 -g -O0 -fpre-include=/usr/include/finclude/math-vector-fortran.h
REM seed 1296284773 327715904 -1653142234 475722284 -721854080 -529782242 1402281798 1263528861 1031885506 427512069 37519413 -337581859 -183391111 1484967534 -479201817 863406054 -248045191 -1846198150 58666168 1715887619 1071445712 261923412 2110539070 1289265162 756955562 2004303679 -71366906 -1749092283 -552537638 -1825110140 1833427954 612828927 341230229
REM
CELL 1.54180   50.00000   50.00000   50.00000   90.00000   90.00000   90.00000
LATT -1
SFAC C  
C      1  0.5458900000000  0.5241140000000  0.5057700000000 1.0
C      1  0.5471100000000  0.4926120000000  0.4773430000000 1.0
C      1  0.5457180000000  0.4808330000000  0.5176300000000 1.0
C      1  0.4762730000000  0.4800630000000  0.4140860000000 1.0
C      1  0.4770170000000  0.4350400000000  0.5614370000000 1.0
C      1  0.4760500000000  0.5868670000000  0.5261370000000 1.0
C      1  0.4603270000000  0.4693210000000  0.5238060000000 1.0
C      1  0.4568210000000  0.5378220000000  0.5148560000000 1.0
C      1  0.4565000000000  0.4958610000000  0.4611480000000 1.0
C      1  0.4600790000000  0.4819630000000  0.5754890000000 1.0
C      1  0.4588140000000  0.5781640000000  0.4758690000000 1.0
C      1  0.4587780000000  0.4426530000000  0.4460310000000 1.0
C      1  0.5624670000000  0.5215030000000  0.4790140000000 1.0
C      1  0.5622640000000  0.4689280000000  0.4929550000000 1.0
C      1  0.5577400000000  0.5067320000000  0.5291820000000 1.0
C      1  0.4839830000000  0.5354820000000  0.4971390000000 1.0
C      1  0.4838190000000  0.4828110000000  0.4733420000000 1.0
C      1  0.4874660000000  0.4872140000000  0.5284910000000 1.0
C      1  0.5104150000000  0.5417320000000  0.5508970000000 1.0
C      1  0.5104710000000  0.5243720000000  0.4399830000000 1.0
C      1  0.5130760000000  0.4284010000000  0.5117330000000 1.0
C      1  0.4918830000000  0.5289900000000  0.5863590000000 1.0
C      1  0.4920460000000  0.5612300000000  0.4318970000000 1.0
C      1  0.4912390000000  0.4112190000000  0.4802410000000 1.0
C      1  0.4810610000000  0.4190890000000  0.5085210000000 1.0
C      1  0.4799290000000  0.5472420000000  0.5638690000000 1.0
C      1  0.4799270000000  0.5326750000000  0.4281910000000 1.0
C      1  0.4393440000000  0.4756650000000  0.4761100000000 1.0
C      1  0.4404870000000  0.4908430000000  0.5323730000000 1.0
C      1  0.4378020000000  0.5344180000000  0.4914200000000 1.0
C      1  0.5253180000000  0.4477120000000  0.5552370000000 1.0
C      1  0.5238460000000  0.5735710000000  0.5161830000000 1.0
C      1  0.5233090000000  0.4779350000000  0.4321930000000 1.0
C      1  0.5030690000000  0.4691760000000  0.4135320000000 1.0
C      1  0.5037450000000  0.4384800000000  0.5721380000000 1.0
C      1  0.5031340000000  0.5936930000000  0.5179860000000 1.0
C      1  0.4698730000000  0.4401500000000  0.5333640000000 1.0
C      1  0.4677990000000  0.5601160000000  0.5352970000000 1.0
C      1  0.4678700000000  0.5016930000000  0.4319380000000 1.0
C      1  0.5153450000000  0.4985210000000  0.4505270000000 1.0
C      1  0.5180440000000  0.4508620000000  0.5276080000000 1.0
C      1  0.5156340000000  0.5472050000000  0.5235190000000 1.0
C      1  0.5519600000000  0.5109760000000  0.5586990000000 1.0
C      1  0.5533650000000  0.5458590000000  0.4610730000000 1.0
C      1  0.5539740000000  0.4410470000000  0.4801220000000 1.0
C      1  0.5494770000000  0.4396800000000  0.4509080000000 1.0
C      1  0.5491780000000  0.4873530000000  0.5765870000000 1.0
C      1  0.5495110000000  0.5731280000000  0.4726870000000 1.0
C      1  0.4543610000000  0.4302740000000  0.4927990000000 1.0
C      1  0.4532090000000  0.5284730000000  0.5635450000000 1.0
C      1  0.4525690000000  0.5420330000000  0.4437140000000 1.0
C      1  0.4843790000000  0.5647340000000  0.4815780000000 1.0
C      1  0.4843220000000  0.4546750000000  0.4550100000000 1.0
C      1  0.4859970000000  0.4853230000000  0.5618470000000 1.0
C      1  0.4474190000000  0.5192310000000  0.5367580000000 1.0
C      1  0.4456840000000  0.5237360000000  0.4651440000000 1.0
C      1  0.4492470000000  0.4583950000000  0.4978270000000 1.0
C      1  0.5260230000000  0.4927490000000  0.5928460000000 1.0
C      1  0.5264880000000  0.5848510000000  0.4597390000000 1.0
C      1  0.5253790000000  0.4245490000000  0.4463960000000 1.0
C      1  0.4483620000000  0.5073520000000  0.5830670000000 1.0
C      1  0.4473200000000  0.5698150000000  0.4507120000000 1.0
C      1  0.4483840000000  0.4233610000000  0.4650550000000 1.0
C      1  0.5015330000000  0.5705780000000  0.4575500000000 1.0
C      1  0.5011970000000  0.4302660000000  0.4609890000000 1.0
C      1  0.5018540000000  0.5024470000000  0.5806820000000 1.0
C      1  0.5149990000000  0.4781800000000  0.5154430000000 1.0
C      1  0.5147300000000  0.5243220000000  0.5019040000000 1.0
C      1  0.5159840000000  0.4938470000000  0.4828850000000 1.0
C      1  0.5359440000000  0.4210560000000  0.4945800000000 1.0
C      1  0.5333620000000  0.5328780000000  0.5667100000000 1.0
C      1  0.5340530000000  0.5416150000000  0.4385300000000 1.0
C      1  0.5483280000000  0.4640070000000  0.4357090000000 1.0
C      1  0.5492040000000  0.4605380000000  0.5657320000000 1.0
C      1  0.5483750000000  0.5772250000000  0.5012250000000 1.0
C      1  0.4789920000000  0.5022950000000  0.5007180000000 1.0
C      1  0.5799610000000  0.4997850000000  0.5024250000000 1.0
END
