TITL C-862127-1500-614 -6.50565685014074e-06 125000 -174.579168074309 0 0 39 (C5) n - 1
REM
REM in /home/nfs/bkarasulu/CARBON/AIRSS/Generating-Clusters/TERSOFF/Higher-Symm/FIRE-HFTN
REM
REM
REM
REM
REM
REM ./C.cell (b20cbc046b6831c77cfcea5457e17084)
REM AIRSS Version 0.9.1 bugfix July 2018 build 013d7b7c2542+ Fri, 06 Jul 2018 19:26:36 +0100
REM compiler GCC version 9.2.1 20190827 (Red Hat 9.2.1-1)
REM options -cpp -mtune=generic -march=x86-64 -g -O0 -fpre-include=/usr/include/finclude/math-vector-fortran.h
REM seed 1056563777 -112520908 1908734992 -582120493 1816421932 1400274964 65599407 -1622371219 1355147085 489747199 864260989 -403739917 -1437062164 913102583 653638013 -13462932 149986116 -505868709 -483476306 259055719 -1850260809 1621228225 -1508222133 408314945 618503730 919227558 -717463098 1299108829 426841742 -789767609 -1125706953 1103898287 349459826
REM
CELL 1.54180   50.00000   50.00000   50.00000   90.00000   90.00000   90.00000
LATT -1
SFAC C  
C      1  0.4655110000000  0.5370710000000  0.4928430000000 1.0
C      1  0.4829420000000  0.5370710000000  0.5315220000000 1.0
C      1  0.5251140000000  0.5370710000000  0.5268980000000 1.0
C      1  0.5337480000000  0.5370710000000  0.4853600000000 1.0
C      1  0.4969110000000  0.5370710000000  0.4643130000000 1.0
C      1  0.4655110000000  0.4600090000000  0.5075320000000 1.0
C      1  0.4829420000000  0.4600090000000  0.4688520000000 1.0
C      1  0.5251140000000  0.4600090000000  0.4734770000000 1.0
C      1  0.5337480000000  0.4600090000000  0.5150140000000 1.0
C      1  0.4969110000000  0.4600090000000  0.5360610000000 1.0
C      1  0.4569930000000  0.5168170000000  0.5330280000000 1.0
C      1  0.5185270000000  0.5168170000000  0.5520420000000 1.0
C      1  0.5556260000000  0.5168170000000  0.4993940000000 1.0
C      1  0.5170190000000  0.5168170000000  0.4478430000000 1.0
C      1  0.4560610000000  0.5168170000000  0.4686290000000 1.0
C      1  0.4569930000000  0.4802630000000  0.4673470000000 1.0
C      1  0.5185270000000  0.4802630000000  0.4483330000000 1.0
C      1  0.5556260000000  0.4802630000000  0.5009800000000 1.0
C      1  0.5170190000000  0.4802630000000  0.5525320000000 1.0
C      1  0.4560610000000  0.4802630000000  0.5317450000000 1.0
C      1  0.4704450000000  0.4602570000000  0.5492010000000 1.0
C      1  0.5380660000000  0.4602570000000  0.5442460000000 1.0
C      1  0.5542500000000  0.4602570000000  0.4784030000000 1.0
C      1  0.4966300000000  0.4602570000000  0.4426650000000 1.0
C      1  0.4448360000000  0.4602570000000  0.4864210000000 1.0
C      1  0.4704450000000  0.5368230000000  0.4511730000000 1.0
C      1  0.5380660000000  0.5368230000000  0.4561280000000 1.0
C      1  0.5542500000000  0.5368230000000  0.5219720000000 1.0
C      1  0.4966300000000  0.5368230000000  0.5577100000000 1.0
C      1  0.4448360000000  0.5368230000000  0.5139540000000 1.0
C      1  0.4803050000000  0.4985400000000  0.5151110000000 1.0
C      1  0.4803050000000  0.4985400000000  0.4852640000000 1.0
C      1  0.5262350000000  0.4985400000000  0.5001870000000 1.0
C      1  0.5086910000000  0.4985400000000  0.5243340000000 1.0
C      1  0.5086910000000  0.4985400000000  0.4760410000000 1.0
C      1  0.5008450000000  0.4233160000000  0.5001870000000 1.0
C      1  0.5008450000000  0.5737640000000  0.5001870000000 1.0
C      1  0.5008450000000  0.5423270000000  0.5001870000000 1.0
C      1  0.5008450000000  0.4547530000000  0.5001870000000 1.0
END
