TITL C-862502-1143-875 -0.000311746143887637 125000 -409.422065027529 0 0 71 (C3) n - 1
REM
REM in /home/nfs/bkarasulu/CARBON/AIRSS/Generating-Clusters/TERSOFF/Higher-Symm/FIRE-HFTN
REM
REM
REM
REM
REM
REM ./C.cell (b20cbc046b6831c77cfcea5457e17084)
REM AIRSS Version 0.9.1 bugfix July 2018 build 013d7b7c2542+ Fri, 06 Jul 2018 19:26:36 +0100
REM compiler GCC version 9.2.1 20190827 (Red Hat 9.2.1-1)
REM options -cpp -mtune=generic -march=x86-64 -g -O0 -fpre-include=/usr/include/finclude/math-vector-fortran.h
REM seed 355091994 1643642481 821158180 1229764087 1923984855 170325710 1814777002 1101846416 825853822 735189085 -1979362797 157149356 180004501 -1707008105 527258280 -1741232231 -467689020 1476732742 1156643568 433780151 1135833401 479873963 -1865715686 -657945842 458411282 1203855557 365734045 151846124 1586750471 -655742609 -937283565 1654498794 -1229694868
REM
CELL 1.54180   50.00000   50.00000   50.00000   90.00000   90.00000   90.00000
LATT -1
SFAC C  
C      1  0.5168140000000  0.4519270000000  0.4907860000000 1.0
C      1  0.4993330000000  0.4519270000000  0.5191250000000 1.0
C      1  0.4835310000000  0.4519270000000  0.4898160000000 1.0
C      1  0.4982280000000  0.5274230000000  0.4511900000000 1.0
C      1  0.5429170000000  0.5274230000000  0.5228280000000 1.0
C      1  0.4585330000000  0.5274230000000  0.5257100000000 1.0
C      1  0.4565170000000  0.4749730000000  0.4592890000000 1.0
C      1  0.5567580000000  0.4749730000000  0.4826550000000 1.0
C      1  0.4864030000000  0.4749730000000  0.5577840000000 1.0
C      1  0.4689070000000  0.4875750000000  0.5063220000000 1.0
C      1  0.5098320000000  0.4875750000000  0.4698680000000 1.0
C      1  0.5209390000000  0.4875750000000  0.5235380000000 1.0
C      1  0.4733150000000  0.5705240000000  0.4883140000000 1.0
C      1  0.5232230000000  0.5705240000000  0.4826910000000 1.0
C      1  0.5031390000000  0.5705240000000  0.5287240000000 1.0
C      1  0.4570160000000  0.4391050000000  0.4979900000000 1.0
C      1  0.5229930000000  0.4391050000000  0.4637370000000 1.0
C      1  0.5196690000000  0.4391050000000  0.5380010000000 1.0
C      1  0.4308070000000  0.5051690000000  0.4852540000000 1.0
C      1  0.5471270000000  0.5051700000000  0.4474070000000 1.0
C      1  0.5217440000000  0.5051690000000  0.5670670000000 1.0
C      1  0.5513020000000  0.4309200000000  0.4697330000000 1.0
C      1  0.5003210000000  0.4309200000000  0.5595190000000 1.0
C      1  0.4480550000000  0.4309200000000  0.4704750000000 1.0
C      1  0.4552440000000  0.5565980000000  0.5326240000000 1.0
C      1  0.4938850000000  0.5565980000000  0.4448850000000 1.0
C      1  0.5505480000000  0.5565980000000  0.5222190000000 1.0
C      1  0.4416160000000  0.4876420000000  0.5596010000000 1.0
C      1  0.4773360000000  0.4876430000000  0.4195940000000 1.0
C      1  0.5807260000000  0.4876430000000  0.5205330000000 1.0
C      1  0.5697080000000  0.4582370000000  0.5194970000000 1.0
C      1  0.4480210000000  0.4582370000000  0.5505780000000 1.0
C      1  0.4819480000000  0.4582370000000  0.4296530000000 1.0
C      1  0.4812070000000  0.5175230000000  0.4776640000000 1.0
C      1  0.5285010000000  0.5175240000000  0.4948500000000 1.0
C      1  0.4899700000000  0.5175230000000  0.5272150000000 1.0
C      1  0.4540670000000  0.5244350000000  0.4927710000000 1.0
C      1  0.5289880000000  0.5244350000000  0.4637920000000 1.0
C      1  0.5166230000000  0.5244350000000  0.5431650000000 1.0
C      1  0.4769210000000  0.5039580000000  0.5936870000000 1.0
C      1  0.4301650000000  0.5039580000000  0.4331270000000 1.0
C      1  0.5925920000000  0.5039590000000  0.4729150000000 1.0
C      1  0.4706540000000  0.5677960000000  0.4593750000000 1.0
C      1  0.5496150000000  0.5677960000000  0.4948550000000 1.0
C      1  0.4794080000000  0.5677960000000  0.5454980000000 1.0
C      1  0.5996540000000  0.4985700000000  0.5006440000000 1.0
C      1  0.4493750000000  0.4985700000000  0.5859380000000 1.0
C      1  0.4506480000000  0.4985700000000  0.4131460000000 1.0
C      1  0.4901550000000  0.4833280000000  0.5292850000000 1.0
C      1  0.4793210000000  0.4833280000000  0.4767890000000 1.0
C      1  0.5302020000000  0.4833280000000  0.4936540000000 1.0
C      1  0.4331630000000  0.4915960000000  0.4591490000000 1.0
C      1  0.5685560000000  0.4915970000000  0.4625000000000 1.0
C      1  0.4979580000000  0.4915960000000  0.5780790000000 1.0
C      1  0.5406840000000  0.4875590000000  0.5478400000000 1.0
C      1  0.4379880000000  0.4875590000000  0.5112700000000 1.0
C      1  0.5210060000000  0.4875590000000  0.4406180000000 1.0
C      1  0.5619260000000  0.5054060000000  0.5352650000000 1.0
C      1  0.4382570000000  0.5054060000000  0.5359540000000 1.0
C      1  0.4994950000000  0.5054070000000  0.4285090000000 1.0
C      1  0.5129960000000  0.4561140000000  0.4397830000000 1.0
C      1  0.5454110000000  0.4561140000000  0.5413200000000 1.0
C      1  0.4412710000000  0.4561140000000  0.5186240000000 1.0
C      1  0.5183880000000  0.5707670000000  0.4538960000000 1.0
C      1  0.5304940000000  0.5707670000000  0.5389340000000 1.0
C      1  0.4507960000000  0.5707670000000  0.5068990000000 1.0
C      1  0.5676830000000  0.4477740000000  0.4893460000000 1.0
C      1  0.4751460000000  0.4477740000000  0.5638990000000 1.0
C      1  0.4568490000000  0.4477740000000  0.4464830000000 1.0
C      1  0.4998930000000  0.5287700000000  0.4999090000000 1.0
C      1  0.4998920000000  0.5612900000000  0.4999090000000 1.0
END
