TITL C-862132-7359-207 -0.00015212332129855 125000 -189.140844831486 0 0 38 (C1) n - 1
REM
REM in /home/nfs/bkarasulu/CARBON/AIRSS/Generating-Clusters/TERSOFF/Higher-Symm/FIRE-HFTN
REM
REM
REM
REM
REM
REM ./C.cell (b20cbc046b6831c77cfcea5457e17084)
REM AIRSS Version 0.9.1 bugfix July 2018 build 013d7b7c2542+ Fri, 06 Jul 2018 19:26:36 +0100
REM compiler GCC version 9.2.1 20190827 (Red Hat 9.2.1-1)
REM options -cpp -mtune=generic -march=x86-64 -g -O0 -fpre-include=/usr/include/finclude/math-vector-fortran.h
REM seed -347051466 1080133503 -35359578 1018577449 -1354733970 -1515529195 1188078700 1265505621 1294340466 -1644963507 -1453402378 -1225514048 -1066280682 970320404 -319399077 37709070 -664979124 532318140 -1612301992 -1870686116 -1904427793 459127175 1224240761 1020951134 -221411035 -1476491202 1865955805 1496587530 -190496420 2125192014 1810449586 -2002379009 463962018
REM
CELL 1.54180   50.00000   50.00000   50.00000   90.00000   90.00000   90.00000
LATT -1
SFAC C  
C      1  0.5187670000000  0.4587360000000  0.5036140000000 1.0
C      1  0.4685890000000  0.4698510000000  0.5053810000000 1.0
C      1  0.4621780000000  0.5220840000000  0.5046820000000 1.0
C      1  0.5114890000000  0.5398490000000  0.5032720000000 1.0
C      1  0.5495210000000  0.5026990000000  0.5010680000000 1.0
C      1  0.4631110000000  0.5202370000000  0.5345210000000 1.0
C      1  0.5123570000000  0.5387710000000  0.5320690000000 1.0
C      1  0.5495280000000  0.5008020000000  0.5312800000000 1.0
C      1  0.5208300000000  0.4614140000000  0.5329950000000 1.0
C      1  0.4705350000000  0.4726880000000  0.5349990000000 1.0
C      1  0.5142080000000  0.5310130000000  0.4623190000000 1.0
C      1  0.5353570000000  0.4947940000000  0.4623270000000 1.0
C      1  0.5073240000000  0.4636210000000  0.4635120000000 1.0
C      1  0.4688830000000  0.4804240000000  0.4635070000000 1.0
C      1  0.4732010000000  0.5221640000000  0.4627530000000 1.0
C      1  0.4897970000000  0.4524960000000  0.4894550000000 1.0
C      1  0.4528960000000  0.4950020000000  0.4888260000000 1.0
C      1  0.4831950000000  0.5416340000000  0.4885700000000 1.0
C      1  0.5378050000000  0.5296680000000  0.4863450000000 1.0
C      1  0.5417380000000  0.4735070000000  0.4859480000000 1.0
C      1  0.4889140000000  0.5260210000000  0.5476730000000 1.0
C      1  0.5299830000000  0.5173210000000  0.5464750000000 1.0
C      1  0.5467330000000  0.4729890000000  0.5401870000000 1.0
C      1  0.4979570000000  0.4743880000000  0.5470320000000 1.0
C      1  0.4531100000000  0.4944120000000  0.5440160000000 1.0
C      1  0.5360350000000  0.4529030000000  0.4607620000000 1.0
C      1  0.4678670000000  0.4496190000000  0.4643010000000 1.0
C      1  0.4437110000000  0.5139060000000  0.4630910000000 1.0
C      1  0.4968700000000  0.5566940000000  0.4620750000000 1.0
C      1  0.5541760000000  0.5187130000000  0.4596160000000 1.0
C      1  0.4982260000000  0.4978530000000  0.4246690000000 1.0
C      1  0.5101290000000  0.4982950000000  0.5147550000000 1.0
C      1  0.4998550000000  0.4982560000000  0.4560680000000 1.0
C      1  0.5047980000000  0.5009390000000  0.5619840000000 1.0
C      1  0.4945640000000  0.4993740000000  0.4907150000000 1.0
C      1  0.5052830000000  0.5000300000000  0.5912420000000 1.0
C      1  0.4836780000000  0.5087850000000  0.6083980000000 1.0
C      1  0.5161440000000  0.5121750000000  0.4070180000000 1.0
END
