TITL C-862501-1041-174 -0.0102941699903264 125000 -480.55323952314 0 0 87 (C3) n - 1
REM
REM in /home/nfs/bkarasulu/CARBON/AIRSS/Generating-Clusters/TERSOFF/Higher-Symm/FIRE-HFTN
REM
REM
REM
REM
REM
REM ./C.cell (b20cbc046b6831c77cfcea5457e17084)
REM AIRSS Version 0.9.1 bugfix July 2018 build 013d7b7c2542+ Fri, 06 Jul 2018 19:26:36 +0100
REM compiler GCC version 9.2.1 20190827 (Red Hat 9.2.1-1)
REM options -cpp -mtune=generic -march=x86-64 -g -O0 -fpre-include=/usr/include/finclude/math-vector-fortran.h
REM seed -783204780 1993522482 -843952352 2020163959 1448226826 -1323322414 -710685233 1912170809 809809478 1753150992 -1046832095 -392973996 -1008427206 185526853 290245504 1612786288 -249398351 -971763010 650682669 -1762790432 1553944599 -753837324 -415494715 1652668643 -1413933914 1016820682 1534919365 -929419546 -550696328 239930400 -239860482 842943575 626406393
REM
CELL 1.54180   50.00000   50.00000   50.00000   90.00000   90.00000   90.00000
LATT -1
SFAC C  
C      1  0.4963490000000  0.4792370000000  0.5700390000000 1.0
C      1  0.4838430000000  0.5135440000000  0.5700390000000 1.0
C      1  0.5198070000000  0.5072200000000  0.5700390000000 1.0
C      1  0.4961910000000  0.5272150000000  0.5210530000000 1.0
C      1  0.5254730000000  0.4896910000000  0.5210530000000 1.0
C      1  0.4783350000000  0.4830940000000  0.5210530000000 1.0
C      1  0.4542030000000  0.5233350000000  0.5781120000000 1.0
C      1  0.5431070000000  0.5279940000000  0.5781120000000 1.0
C      1  0.5026900000000  0.4486720000000  0.5781120000000 1.0
C      1  0.4458100000000  0.4410410000000  0.4633910000000 1.0
C      1  0.4760350000000  0.5764090000000  0.4633900000000 1.0
C      1  0.5781550000000  0.4825500000000  0.4633910000000 1.0
C      1  0.4735450000000  0.5561360000000  0.5413970000000 1.0
C      1  0.5618420000000  0.4948430000000  0.5413970000000 1.0
C      1  0.4646130000000  0.4490220000000  0.5413970000000 1.0
C      1  0.4310300000000  0.5519670000000  0.4804810000000 1.0
C      1  0.5794900000000  0.5337460000000  0.4804810000000 1.0
C      1  0.4894800000000  0.4142870000000  0.4804820000000 1.0
C      1  0.5427190000000  0.4596430000000  0.4363650000000 1.0
C      1  0.4436910000000  0.4831820000000  0.4363640000000 1.0
C      1  0.5135900000000  0.5571740000000  0.4363640000000 1.0
C      1  0.5546180000000  0.5184000000000  0.4371280000000 1.0
C      1  0.4886270000000  0.4434990000000  0.4371280000000 1.0
C      1  0.4567560000000  0.5381000000000  0.4371280000000 1.0
C      1  0.5621740000000  0.4703840000000  0.5566970000000 1.0
C      1  0.4432640000000  0.4609640000000  0.5566970000000 1.0
C      1  0.4945620000000  0.5686520000000  0.5566970000000 1.0
C      1  0.5215660000000  0.5598550000000  0.5518220000000 1.0
C      1  0.5410530000000  0.4513960000000  0.5518230000000 1.0
C      1  0.4373810000000  0.4887490000000  0.5518220000000 1.0
C      1  0.5695520000000  0.4707660000000  0.4385430000000 1.0
C      1  0.4399070000000  0.4543830000000  0.4385430000000 1.0
C      1  0.4905410000000  0.5748510000000  0.4385420000000 1.0
C      1  0.5265150000000  0.4093050000000  0.4996250000000 1.0
C      1  0.4081980000000  0.5223840000000  0.4996250000000 1.0
C      1  0.5652860000000  0.5683100000000  0.4996250000000 1.0
C      1  0.4798430000000  0.4981500000000  0.4650370000000 1.0
C      1  0.5084760000000  0.5183810000000  0.4650370000000 1.0
C      1  0.5116810000000  0.4834690000000  0.4650370000000 1.0
C      1  0.4949650000000  0.4244730000000  0.5613480000000 1.0
C      1  0.4371090000000  0.5421240000000  0.5613470000000 1.0
C      1  0.5679260000000  0.5334040000000  0.5613480000000 1.0
C      1  0.4625530000000  0.5175140000000  0.4834550000000 1.0
C      1  0.5338910000000  0.5236730000000  0.4834560000000 1.0
C      1  0.5035560000000  0.4588130000000  0.4834560000000 1.0
C      1  0.4496960000000  0.4562300000000  0.4886560000000 1.0
C      1  0.4872460000000  0.5654490000000  0.4886560000000 1.0
C      1  0.5630580000000  0.4783210000000  0.4886560000000 1.0
C      1  0.5328980000000  0.5595950000000  0.4589680000000 1.0
C      1  0.5351620000000  0.4417120000000  0.4589680000000 1.0
C      1  0.4319400000000  0.4986930000000  0.4589680000000 1.0
C      1  0.5026550000000  0.4349280000000  0.4619320000000 1.0
C      1  0.4423180000000  0.5302370000000  0.4619310000000 1.0
C      1  0.5550270000000  0.5348350000000  0.4619320000000 1.0
C      1  0.5383550000000  0.5522270000000  0.5053800000000 1.0
C      1  0.5260530000000  0.4406700000000  0.5053810000000 1.0
C      1  0.4355920000000  0.5071030000000  0.5053800000000 1.0
C      1  0.4818140000000  0.4196720000000  0.5090970000000 1.0
C      1  0.4395270000000  0.5559140000000  0.5090960000000 1.0
C      1  0.5786590000000  0.5244140000000  0.5090970000000 1.0
C      1  0.5290200000000  0.5084500000000  0.4265240000000 1.0
C      1  0.4928080000000  0.4706430000000  0.4265250000000 1.0
C      1  0.4781720000000  0.5209070000000  0.4265240000000 1.0
C      1  0.4721760000000  0.4916180000000  0.4341240000000 1.0
C      1  0.5066530000000  0.5282870000000  0.4341240000000 1.0
C      1  0.5211710000000  0.4800940000000  0.4341240000000 1.0
C      1  0.5379470000000  0.4957120000000  0.4954360000000 1.0
C      1  0.4773130000000  0.4692810000000  0.4954360000000 1.0
C      1  0.4847400000000  0.5350070000000  0.4954360000000 1.0
C      1  0.5337040000000  0.5087190000000  0.5420080000000 1.0
C      1  0.4906990000000  0.4664520000000  0.5420080000000 1.0
C      1  0.4755970000000  0.5248300000000  0.5420080000000 1.0
C      1  0.5184280000000  0.4619760000000  0.5301500000000 1.0
C      1  0.4578560000000  0.5030540000000  0.5301500000000 1.0
C      1  0.5237160000000  0.5349710000000  0.5301500000000 1.0
C      1  0.4290840000000  0.5388410000000  0.5321340000000 1.0
C      1  0.5690950000000  0.5419950000000  0.5321340000000 1.0
C      1  0.5018210000000  0.4191640000000  0.5321340000000 1.0
C      1  0.5753400000000  0.4956380000000  0.5145240000000 1.0
C      1  0.4585530000000  0.4369350000000  0.5145240000000 1.0
C      1  0.4661070000000  0.5674270000000  0.5145230000000 1.0
C      1  0.5381700000000  0.5743420000000  0.5311190000000 1.0
C      1  0.5452970000000  0.4297730000000  0.5311190000000 1.0
C      1  0.4165330000000  0.4958850000000  0.5311190000000 1.0
C      1  0.5192050000000  0.5661620000000  0.4854540000000 1.0
C      1  0.5476960000000  0.4502870000000  0.4854550000000 1.0
C      1  0.4330990000000  0.4835510000000  0.4854540000000 1.0
END
