TITL C-862134-6730-284 6.03033870221535e-07 125000 -606.574425046468 0 0 106 (D2h) n - 1
REM
REM in /home/nfs/bkarasulu/CARBON/AIRSS/Generating-Clusters/TERSOFF/Higher-Symm/FIRE-HFTN
REM
REM
REM
REM
REM
REM ./C.cell (b20cbc046b6831c77cfcea5457e17084)
REM AIRSS Version 0.9.1 bugfix July 2018 build 013d7b7c2542+ Fri, 06 Jul 2018 19:26:36 +0100
REM compiler GCC version 9.2.1 20190827 (Red Hat 9.2.1-1)
REM options -cpp -mtune=generic -march=x86-64 -g -O0 -fpre-include=/usr/include/finclude/math-vector-fortran.h
REM seed 289111632 81152826 -1016254920 91056078 431035041 -1334430812 1125887701 -1807011574 -1084167779 -763832904 73062044 -1474810521 -1039222124 -1841899555 134213921 -826963782 -1282903654 1553417592 1835954355 -1182927697 -1962576070 -1900283711 1424183883 139734732 1865794466 1768814465 355519849 2069563493 -73164995 -734712295 1455130005 -434345303 -865169474
REM
CELL 1.54180   50.00000   50.00000   50.00000   90.00000   90.00000   90.00000
LATT -1
SFAC C  
C      1  0.4829880000000  0.5913030000000  0.5155580000000 1.0
C      1  0.5170120000000  0.5913030000000  0.4844420000000 1.0
C      1  0.4829880000000  0.4091480000000  0.5155580000000 1.0
C      1  0.5170120000000  0.4091480000000  0.4844420000000 1.0
C      1  0.4829880000000  0.5913030000000  0.4844420000000 1.0
C      1  0.5170120000000  0.5913030000000  0.5155580000000 1.0
C      1  0.4829880000000  0.4091480000000  0.4844420000000 1.0
C      1  0.5170120000000  0.4091480000000  0.5155580000000 1.0
C      1  0.4630650000000  0.3954020000000  0.5327490000000 1.0
C      1  0.5369350000000  0.3954020000000  0.4672510000000 1.0
C      1  0.4630650000000  0.6050490000000  0.5327490000000 1.0
C      1  0.5369350000000  0.6050490000000  0.4672510000000 1.0
C      1  0.4630650000000  0.3954020000000  0.4672510000000 1.0
C      1  0.5369350000000  0.3954020000000  0.5327490000000 1.0
C      1  0.4630650000000  0.6050490000000  0.4672510000000 1.0
C      1  0.5369350000000  0.6050490000000  0.5327490000000 1.0
C      1  0.5757500000000  0.5515120000000  0.5153780000000 1.0
C      1  0.4242500000000  0.5515120000000  0.4846220000000 1.0
C      1  0.5757500000000  0.4489390000000  0.5153780000000 1.0
C      1  0.4242500000000  0.4489390000000  0.4846220000000 1.0
C      1  0.5757500000000  0.5515120000000  0.4846220000000 1.0
C      1  0.4242500000000  0.5515120000000  0.5153780000000 1.0
C      1  0.5757500000000  0.4489390000000  0.4846220000000 1.0
C      1  0.4242500000000  0.4489390000000  0.5153780000000 1.0
C      1  0.4712350000000  0.5357820000000  0.4850080000000 1.0
C      1  0.5287650000000  0.5357820000000  0.5149920000000 1.0
C      1  0.4712350000000  0.4646690000000  0.4850080000000 1.0
C      1  0.5287650000000  0.4646690000000  0.5149920000000 1.0
C      1  0.4712350000000  0.5357820000000  0.5149920000000 1.0
C      1  0.5287650000000  0.5357820000000  0.4850080000000 1.0
C      1  0.4712350000000  0.4646690000000  0.5149920000000 1.0
C      1  0.5287650000000  0.4646690000000  0.4850080000000 1.0
C      1  0.4841550000000  0.5612700000000  0.4722650000000 1.0
C      1  0.5158450000000  0.5612700000000  0.5277350000000 1.0
C      1  0.4841550000000  0.4391810000000  0.4722650000000 1.0
C      1  0.5158450000000  0.4391810000000  0.5277350000000 1.0
C      1  0.4841550000000  0.5612700000000  0.5277350000000 1.0
C      1  0.5158450000000  0.5612700000000  0.4722650000000 1.0
C      1  0.4841550000000  0.4391810000000  0.5277350000000 1.0
C      1  0.5158450000000  0.4391810000000  0.4722650000000 1.0
C      1  0.4845600000000  0.5161270000000  0.5340660000000 1.0
C      1  0.5154400000000  0.5161270000000  0.4659340000000 1.0
C      1  0.4845600000000  0.4843240000000  0.5340660000000 1.0
C      1  0.5154400000000  0.4843240000000  0.4659340000000 1.0
C      1  0.4845600000000  0.5161270000000  0.4659340000000 1.0
C      1  0.5154400000000  0.5161270000000  0.5340660000000 1.0
C      1  0.4845600000000  0.4843240000000  0.4659340000000 1.0
C      1  0.5154400000000  0.4843240000000  0.5340660000000 1.0
C      1  0.4720550000000  0.5650760000000  0.5553870000000 1.0
C      1  0.5279450000000  0.5650760000000  0.4446130000000 1.0
C      1  0.4720550000000  0.4353740000000  0.5553870000000 1.0
C      1  0.5279450000000  0.4353740000000  0.4446130000000 1.0
C      1  0.4720550000000  0.5650760000000  0.4446130000000 1.0
C      1  0.5279450000000  0.5650760000000  0.5553870000000 1.0
C      1  0.4720550000000  0.4353740000000  0.4446130000000 1.0
C      1  0.5279450000000  0.4353740000000  0.5553870000000 1.0
C      1  0.5292960000000  0.5168340000000  0.5642450000000 1.0
C      1  0.4707040000000  0.5168340000000  0.4357550000000 1.0
C      1  0.5292960000000  0.4836160000000  0.5642450000000 1.0
C      1  0.4707040000000  0.4836160000000  0.4357550000000 1.0
C      1  0.5292960000000  0.5168340000000  0.4357550000000 1.0
C      1  0.4707040000000  0.5168340000000  0.5642450000000 1.0
C      1  0.5292960000000  0.4836160000000  0.4357550000000 1.0
C      1  0.4707040000000  0.4836160000000  0.5642450000000 1.0
C      1  0.5524650000000  0.4154510000000  0.4511040000000 1.0
C      1  0.4475350000000  0.4154510000000  0.5488960000000 1.0
C      1  0.5524650000000  0.5850000000000  0.4511040000000 1.0
C      1  0.4475350000000  0.5850000000000  0.5488960000000 1.0
C      1  0.5524650000000  0.4154510000000  0.5488960000000 1.0
C      1  0.4475350000000  0.4154510000000  0.4511040000000 1.0
C      1  0.5524650000000  0.5850000000000  0.5488960000000 1.0
C      1  0.4475350000000  0.5850000000000  0.4511040000000 1.0
C      1  0.4432510000000  0.5216820000000  0.5516600000000 1.0
C      1  0.5567490000000  0.5216820000000  0.4483400000000 1.0
C      1  0.4432510000000  0.4787690000000  0.5516600000000 1.0
C      1  0.5567490000000  0.4787690000000  0.4483400000000 1.0
C      1  0.4432510000000  0.5216820000000  0.4483400000000 1.0
C      1  0.5567490000000  0.5216820000000  0.5516600000000 1.0
C      1  0.4432510000000  0.4787690000000  0.4483400000000 1.0
C      1  0.5567490000000  0.4787690000000  0.5516600000000 1.0
C      1  0.5154690000000  0.5430890000000  0.5737960000000 1.0
C      1  0.4845310000000  0.5430890000000  0.4262040000000 1.0
C      1  0.5154690000000  0.4573610000000  0.5737960000000 1.0
C      1  0.4845310000000  0.4573610000000  0.4262040000000 1.0
C      1  0.5154690000000  0.5430890000000  0.4262040000000 1.0
C      1  0.4845310000000  0.5430890000000  0.5737960000000 1.0
C      1  0.5154690000000  0.4573610000000  0.4262040000000 1.0
C      1  0.4845310000000  0.4573610000000  0.5737960000000 1.0
C      1  0.5763150000000  0.5745390000000  0.4660020000000 1.0
C      1  0.4236850000000  0.5745390000000  0.5339980000000 1.0
C      1  0.5763150000000  0.4259120000000  0.4660020000000 1.0
C      1  0.4236850000000  0.4259120000000  0.5339980000000 1.0
C      1  0.5763150000000  0.5745390000000  0.5339980000000 1.0
C      1  0.4236850000000  0.5745390000000  0.4660020000000 1.0
C      1  0.5763150000000  0.4259120000000  0.5339980000000 1.0
C      1  0.4236850000000  0.4259120000000  0.4660020000000 1.0
C      1  0.5587430000000  0.4727310000000  0.4773180000000 1.0
C      1  0.4412570000000  0.4727310000000  0.5226820000000 1.0
C      1  0.5587430000000  0.5277190000000  0.4773180000000 1.0
C      1  0.4412570000000  0.5277190000000  0.5226820000000 1.0
C      1  0.5587430000000  0.4727310000000  0.5226820000000 1.0
C      1  0.4412570000000  0.4727310000000  0.4773180000000 1.0
C      1  0.5587430000000  0.5277190000000  0.5226820000000 1.0
C      1  0.4412570000000  0.5277190000000  0.4773180000000 1.0
C      1  0.4356210000000  0.5002250000000  0.5000000000000 1.0
C      1  0.5643790000000  0.5002250000000  0.5000000000000 1.0
END
