TITL C-862127-1500-613 0.535462851009138 125000 -766.150692618302 0 0 134 (C1) n - 1
REM
REM in /home/nfs/bkarasulu/CARBON/AIRSS/Generating-Clusters/TERSOFF/Higher-Symm/FIRE-HFTN
REM
REM
REM
REM
REM
REM ./C.cell (b20cbc046b6831c77cfcea5457e17084)
REM AIRSS Version 0.9.1 bugfix July 2018 build 013d7b7c2542+ Fri, 06 Jul 2018 19:26:36 +0100
REM compiler GCC version 9.2.1 20190827 (Red Hat 9.2.1-1)
REM options -cpp -mtune=generic -march=x86-64 -g -O0 -fpre-include=/usr/include/finclude/math-vector-fortran.h
REM seed -1532067613 -792324818 502100425 906993020 -1570761740 -1653734467 -2072057073 -767547601 133540522 -1564663951 -1258666607 -103316728 -84118620 -135649837 1382394676 1941303019 -937142783 -121121744 -604622606 -93436175 1583827780 -2063287593 86000553 1249670062 1955801881 -542834045 -1663788057 846626377 -1614911034 1270303392 -982170886 -1039361504 124452069
REM
CELL 1.54180   50.00000   50.00000   50.00000   90.00000   90.00000   90.00000
LATT -1
SFAC C  
C      1  0.5321010000000  0.5112000000000  0.5609810000000 1.0
C      1  0.5704820000000  0.5130790000000  0.4899110000000 1.0
C      1  0.5112140000000  0.5112550000000  0.4320920000000 1.0
C      1  0.4381360000000  0.5116360000000  0.4693980000000 1.0
C      1  0.4517590000000  0.5105640000000  0.5497180000000 1.0
C      1  0.5468080000000  0.4464290000000  0.4346070000000 1.0
C      1  0.4498880000000  0.4455600000000  0.4340610000000 1.0
C      1  0.4210740000000  0.4436090000000  0.5270630000000 1.0
C      1  0.5014930000000  0.4436950000000  0.5808510000000 1.0
C      1  0.5791660000000  0.4469940000000  0.5249630000000 1.0
C      1  0.5038740000000  0.5525180000000  0.4023440000000 1.0
C      1  0.4093320000000  0.5539230000000  0.4648020000000 1.0
C      1  0.4381870000000  0.5530330000000  0.5756570000000 1.0
C      1  0.5541620000000  0.5520840000000  0.5822210000000 1.0
C      1  0.5951990000000  0.5536930000000  0.4723140000000 1.0
C      1  0.5701130000000  0.5700470000000  0.4732330000000 1.0
C      1  0.4966440000000  0.5694450000000  0.4258870000000 1.0
C      1  0.4294280000000  0.5699350000000  0.4798670000000 1.0
C      1  0.4587330000000  0.5692760000000  0.5615600000000 1.0
C      1  0.5463660000000  0.5692660000000  0.5589320000000 1.0
C      1  0.5471420000000  0.4374690000000  0.4843430000000 1.0
C      1  0.4975420000000  0.4368130000000  0.4509080000000 1.0
C      1  0.4488280000000  0.4339410000000  0.4861110000000 1.0
C      1  0.4687180000000  0.4320210000000  0.5441620000000 1.0
C      1  0.5320620000000  0.4355990000000  0.5401670000000 1.0
C      1  0.4407540000000  0.4431060000000  0.5496120000000 1.0
C      1  0.5285580000000  0.4446300000000  0.5684310000000 1.0
C      1  0.5732900000000  0.4483400000000  0.4959460000000 1.0
C      1  0.5172750000000  0.4469580000000  0.4300200000000 1.0
C      1  0.4353570000000  0.4455820000000  0.4606900000000 1.0
C      1  0.4882310000000  0.5613930000000  0.5685370000000 1.0
C      1  0.5618720000000  0.5623480000000  0.5325340000000 1.0
C      1  0.5494770000000  0.5620380000000  0.4512120000000 1.0
C      1  0.4692940000000  0.5615020000000  0.4384920000000 1.0
C      1  0.4319430000000  0.5620340000000  0.5099210000000 1.0
C      1  0.6095070000000  0.4846390000000  0.5135690000000 1.0
C      1  0.5454550000000  0.4833990000000  0.4023790000000 1.0
C      1  0.4269510000000  0.4858630000000  0.4297710000000 1.0
C      1  0.4084630000000  0.4849340000000  0.5490630000000 1.0
C      1  0.5181460000000  0.4836040000000  0.6012150000000 1.0
C      1  0.4892410000000  0.5240500000000  0.5255570000000 1.0
C      1  0.5201230000000  0.5249740000000  0.5188550000000 1.0
C      1  0.5240500000000  0.5259150000000  0.4883200000000 1.0
C      1  0.4955300000000  0.5252730000000  0.4748400000000 1.0
C      1  0.4735260000000  0.5234890000000  0.4981840000000 1.0
C      1  0.4436610000000  0.4864790000000  0.4561110000000 1.0
C      1  0.4406380000000  0.4852530000000  0.5426640000000 1.0
C      1  0.5214870000000  0.4859800000000  0.5685270000000 1.0
C      1  0.5764980000000  0.4891390000000  0.5053260000000 1.0
C      1  0.5279990000000  0.4873970000000  0.4331540000000 1.0
C      1  0.4671080000000  0.5537650000000  0.4886440000000 1.0
C      1  0.4793100000000  0.5544390000000  0.5281830000000 1.0
C      1  0.5207520000000  0.5550900000000  0.5289340000000 1.0
C      1  0.5343160000000  0.5558340000000  0.4897680000000 1.0
C      1  0.5010660000000  0.5552320000000  0.4650760000000 1.0
C      1  0.4741660000000  0.4306700000000  0.4336870000000 1.0
C      1  0.4273170000000  0.4268850000000  0.5048490000000 1.0
C      1  0.4823240000000  0.4260190000000  0.5694180000000 1.0
C      1  0.5615960000000  0.4308150000000  0.5404400000000 1.0
C      1  0.5558270000000  0.4316050000000  0.4568500000000 1.0
C      1  0.5146130000000  0.4116910000000  0.5339500000000 1.0
C      1  0.5348620000000  0.4137630000000  0.4972640000000 1.0
C      1  0.5063300000000  0.4132680000000  0.4664820000000 1.0
C      1  0.4680410000000  0.4113580000000  0.4835760000000 1.0
C      1  0.4736240000000  0.4092790000000  0.5251400000000 1.0
C      1  0.5968220000000  0.5247300000000  0.4796780000000 1.0
C      1  0.5111840000000  0.5236850000000  0.4039440000000 1.0
C      1  0.4125710000000  0.5251960000000  0.4580620000000 1.0
C      1  0.4328810000000  0.5244210000000  0.5700960000000 1.0
C      1  0.5473790000000  0.5230800000000  0.5849000000000 1.0
C      1  0.5057140000000  0.5942330000000  0.5268010000000 1.0
C      1  0.5266340000000  0.5948910000000  0.5030750000000 1.0
C      1  0.5105430000000  0.5947460000000  0.4756190000000 1.0
C      1  0.4795660000000  0.5941220000000  0.4825670000000 1.0
C      1  0.4767430000000  0.5939430000000  0.5141610000000 1.0
C      1  0.4608270000000  0.4950240000000  0.4041300000000 1.0
C      1  0.3953360000000  0.4973390000000  0.5059390000000 1.0
C      1  0.4731320000000  0.4959790000000  0.6007060000000 1.0
C      1  0.5882180000000  0.4951180000000  0.5533920000000 1.0
C      1  0.5773230000000  0.4946080000000  0.4336430000000 1.0
C      1  0.4273020000000  0.5326430000000  0.5122920000000 1.0
C      1  0.4892380000000  0.5317440000000  0.5731560000000 1.0
C      1  0.5658260000000  0.5327090000000  0.5324080000000 1.0
C      1  0.5506940000000  0.5321020000000  0.4487100000000 1.0
C      1  0.4668200000000  0.5316150000000  0.4359570000000 1.0
C      1  0.4195780000000  0.5158520000000  0.4272940000000 1.0
C      1  0.4058800000000  0.5151790000000  0.5535080000000 1.0
C      1  0.5225270000000  0.5137600000000  0.6056790000000 1.0
C      1  0.6084750000000  0.5160080000000  0.5096840000000 1.0
C      1  0.5421340000000  0.5145880000000  0.4017170000000 1.0
C      1  0.4084610000000  0.4718690000000  0.5194710000000 1.0
C      1  0.4899230000000  0.4709400000000  0.5915920000000 1.0
C      1  0.5967980000000  0.4691610000000  0.5376250000000 1.0
C      1  0.5647170000000  0.4681600000000  0.4215610000000 1.0
C      1  0.4445750000000  0.4686050000000  0.4120490000000 1.0
C      1  0.4172120000000  0.4702850000000  0.4674300000000 1.0
C      1  0.4401260000000  0.4674300000000  0.5702120000000 1.0
C      1  0.5479080000000  0.4678740000000  0.5763140000000 1.0
C      1  0.5869950000000  0.4711140000000  0.4803440000000 1.0
C      1  0.5070640000000  0.4705530000000  0.4130420000000 1.0
C      1  0.4641940000000  0.4599050000000  0.4988150000000 1.0
C      1  0.4838310000000  0.4572530000000  0.5292910000000 1.0
C      1  0.5339490000000  0.4637060000000  0.5175450000000 1.0
C      1  0.5244530000000  0.4644780000000  0.4827340000000 1.0
C      1  0.4896200000000  0.4628480000000  0.4732080000000 1.0
C      1  0.5124650000000  0.5741650000000  0.5528030000000 1.0
C      1  0.5541500000000  0.5754490000000  0.5047690000000 1.0
C      1  0.5207720000000  0.5749810000000  0.4502120000000 1.0
C      1  0.4595170000000  0.5742010000000  0.4656260000000 1.0
C      1  0.4545290000000  0.5741910000000  0.5280950000000 1.0
C      1  0.4452570000000  0.5123830000000  0.4979700000000 1.0
C      1  0.4809350000000  0.5117470000000  0.5513430000000 1.0
C      1  0.5424650000000  0.5131490000000  0.5340600000000 1.0
C      1  0.5461050000000  0.5134010000000  0.4730950000000 1.0
C      1  0.4874560000000  0.5124270000000  0.4493790000000 1.0
C      1  0.5370550000000  0.4858000000000  0.4628370000000 1.0
C      1  0.4745060000000  0.4850240000000  0.4559080000000 1.0
C      1  0.4425670000000  0.4819590000000  0.5099150000000 1.0
C      1  0.4914600000000  0.4803240000000  0.5561190000000 1.0
C      1  0.5527340000000  0.4859840000000  0.5232770000000 1.0
C      1  0.5675290000000  0.4943280000000  0.5757890000000 1.0
C      1  0.5928360000000  0.4949000000000  0.4594340000000 1.0
C      1  0.4904080000000  0.4944420000000  0.3997710000000 1.0
C      1  0.3994260000000  0.4969330000000  0.4760970000000 1.0
C      1  0.4453130000000  0.4960180000000  0.5885280000000 1.0
C      1  0.4486120000000  0.5195180000000  0.4170550000000 1.0
C      1  0.4030300000000  0.5216910000000  0.5234360000000 1.0
C      1  0.4925790000000  0.5203490000000  0.5994130000000 1.0
C      1  0.5915310000000  0.5201510000000  0.5356090000000 1.0
C      1  0.5612970000000  0.5190090000000  0.4253880000000 1.0
C      1  0.4992580000000  0.4090800000000  0.5014830000000 1.0
C      1  0.4948580000000  0.4839930000000  0.5144180000000 1.0
C      1  0.5004010000000  0.5622440000000  0.5001570000000 1.0
C      1  0.5005380000000  0.4406710000000  0.5070630000000 1.0
END
