TITL C-862128-1543-291 0.000421337636460716 125000 -212.654271960985 0 0 36 (D3h) n - 1
REM
REM in /home/nfs/bkarasulu/CARBON/AIRSS/Generating-Clusters/TERSOFF/Higher-Symm/FIRE-HFTN
REM
REM
REM
REM
REM
REM ./C.cell (b20cbc046b6831c77cfcea5457e17084)
REM AIRSS Version 0.9.1 bugfix July 2018 build 013d7b7c2542+ Fri, 06 Jul 2018 19:26:36 +0100
REM compiler GCC version 9.2.1 20190827 (Red Hat 9.2.1-1)
REM options -cpp -mtune=generic -march=x86-64 -g -O0 -fpre-include=/usr/include/finclude/math-vector-fortran.h
REM seed -242044611 -990702653 -1326858773 1766595280 -1600298776 -232340900 2144184631 -384003068 -1936339253 -1195754484 -2002003977 2105862740 -2019665789 1239356272 1333026656 1374724396 -1986446688 1102510710 -706596643 -1586341439 -1113202896 -1618236274 1433499487 2075016875 708544323 1216760711 -2058288664 310852229 709200963 1915131875 -226187886 1992398790 -1856697448
REM
CELL 1.54180   50.00000   50.00000   50.00000   90.00000   90.00000   90.00000
LATT -1
SFAC C  
C      1  0.5309870000000  0.4853940000000  0.4747020000000 1.0
C      1  0.5309870000000  0.4853940000000  0.5252980000000 1.0
C      1  0.5309870000000  0.5292120000000  0.5000000000000 1.0
C      1  0.4690130000000  0.4853940000000  0.4747020000000 1.0
C      1  0.4690130000000  0.4853940000000  0.5252980000000 1.0
C      1  0.4690130000000  0.5292120000000  0.5000000000000 1.0
C      1  0.5309870000000  0.5146060000000  0.4747020000000 1.0
C      1  0.5309870000000  0.5146060000000  0.5252980000000 1.0
C      1  0.5309870000000  0.4707880000000  0.5000000000000 1.0
C      1  0.4690130000000  0.5146060000000  0.4747020000000 1.0
C      1  0.4690130000000  0.5146060000000  0.5252980000000 1.0
C      1  0.4690130000000  0.4707880000000  0.5000000000000 1.0
C      1  0.5309870000000  0.4708550000000  0.5504800000000 1.0
C      1  0.5309870000000  0.5582900000000  0.5000000000000 1.0
C      1  0.5309870000000  0.4708550000000  0.4495200000000 1.0
C      1  0.4690130000000  0.4708550000000  0.5504800000000 1.0
C      1  0.4690130000000  0.5582900000000  0.5000000000000 1.0
C      1  0.4690130000000  0.4708550000000  0.4495200000000 1.0
C      1  0.5309870000000  0.5291450000000  0.5504800000000 1.0
C      1  0.5309870000000  0.4417100000000  0.5000000000000 1.0
C      1  0.5309870000000  0.5291450000000  0.4495200000000 1.0
C      1  0.4690130000000  0.5291450000000  0.5504800000000 1.0
C      1  0.4690130000000  0.4417100000000  0.5000000000000 1.0
C      1  0.4690130000000  0.5291450000000  0.4495200000000 1.0
C      1  0.4855280000000  0.5522080000000  0.5562350000000 1.0
C      1  0.4855280000000  0.5225970000000  0.4266690000000 1.0
C      1  0.4855280000000  0.4251950000000  0.5170960000000 1.0
C      1  0.5144720000000  0.5522080000000  0.5562350000000 1.0
C      1  0.5144720000000  0.5225970000000  0.4266690000000 1.0
C      1  0.5144720000000  0.4251950000000  0.5170960000000 1.0
C      1  0.4855280000000  0.4477920000000  0.5562350000000 1.0
C      1  0.4855280000000  0.4774030000000  0.4266690000000 1.0
C      1  0.4855280000000  0.5748050000000  0.5170960000000 1.0
C      1  0.5144720000000  0.4477920000000  0.5562350000000 1.0
C      1  0.5144720000000  0.4774030000000  0.4266690000000 1.0
C      1  0.5144720000000  0.5748050000000  0.5170960000000 1.0
END
