TITL C-862131-2149-757 75.2682250180732 125000 -254.428549372794 0 0 47 (T23) n - 1
REM
REM in /home/nfs/bkarasulu/CARBON/AIRSS/Generating-Clusters/TERSOFF/Higher-Symm/FIRE-HFTN
REM
REM
REM
REM
REM
REM ./C.cell (b20cbc046b6831c77cfcea5457e17084)
REM AIRSS Version 0.9.1 bugfix July 2018 build 013d7b7c2542+ Fri, 06 Jul 2018 19:26:36 +0100
REM compiler GCC version 9.2.1 20190827 (Red Hat 9.2.1-1)
REM options -cpp -mtune=generic -march=x86-64 -g -O0 -fpre-include=/usr/include/finclude/math-vector-fortran.h
REM seed -1553846853 1082714029 543924122 1870281601 1324525697 1711654246 595673004 1699391591 1791948086 -712227246 -675775620 -58577031 -1258181690 174129273 730398579 1148207465 -445215296 -2133866007 109974508 861309192 1202727637 1332795687 -1992853162 -868273714 720765146 275819351 -1877612953 -481585453 -1498120580 268477297 -941384364 1870372192 332597998
REM
CELL 1.54180   50.00000   50.00000   50.00000   90.00000   90.00000   90.00000
LATT -1
SFAC C  
C      1  0.5607920000000  0.4679610000000  0.4718530000000 1.0
C      1  0.4682440000000  0.4710580000000  0.5613040000000 1.0
C      1  0.4713410000000  0.5605080000000  0.4687570000000 1.0
C      1  0.4402160000000  0.5324800000000  0.4718530000000 1.0
C      1  0.5607920000000  0.5324800000000  0.5301790000000 1.0
C      1  0.4402160000000  0.4679610000000  0.5301790000000 1.0
C      1  0.5327630000000  0.5293830000000  0.5613040000000 1.0
C      1  0.4682440000000  0.5293830000000  0.4407280000000 1.0
C      1  0.5327630000000  0.4710580000000  0.4407280000000 1.0
C      1  0.5296670000000  0.4399320000000  0.4687570000000 1.0
C      1  0.4713410000000  0.4399320000000  0.5332760000000 1.0
C      1  0.5296670000000  0.5605080000000  0.5332760000000 1.0
C      1  0.5251330000000  0.4511290000000  0.4951750000000 1.0
C      1  0.4514130000000  0.4943790000000  0.5256460000000 1.0
C      1  0.4946630000000  0.5248500000000  0.4519250000000 1.0
C      1  0.4758740000000  0.5493110000000  0.4951750000000 1.0
C      1  0.5251330000000  0.5493120000000  0.5068570000000 1.0
C      1  0.4758740000000  0.4511290000000  0.5068570000000 1.0
C      1  0.5495950000000  0.5060610000000  0.5256460000000 1.0
C      1  0.4514130000000  0.5060610000000  0.4763870000000 1.0
C      1  0.5495950000000  0.4943790000000  0.4763870000000 1.0
C      1  0.5063450000000  0.4755910000000  0.4519250000000 1.0
C      1  0.4946630000000  0.4755910000000  0.5501070000000 1.0
C      1  0.5063450000000  0.5248500000000  0.5501070000000 1.0
C      1  0.4578810000000  0.4450800000000  0.4849950000000 1.0
C      1  0.4453640000000  0.4841990000000  0.4583930000000 1.0
C      1  0.4844830000000  0.4575970000000  0.4458760000000 1.0
C      1  0.5431270000000  0.5553600000000  0.4849950000000 1.0
C      1  0.4578810000000  0.5553600000000  0.5170370000000 1.0
C      1  0.5431270000000  0.4450800000000  0.5170370000000 1.0
C      1  0.5556440000000  0.5162410000000  0.4583930000000 1.0
C      1  0.4453640000000  0.5162410000000  0.5436390000000 1.0
C      1  0.5556440000000  0.4841990000000  0.5436390000000 1.0
C      1  0.5165250000000  0.5428430000000  0.4458760000000 1.0
C      1  0.4844830000000  0.5428440000000  0.5561560000000 1.0
C      1  0.5165250000000  0.4575970000000  0.5561560000000 1.0
C      1  0.4664820000000  0.5002200000000  0.5010160000000 1.0
C      1  0.5005040000000  0.5002200000000  0.4669940000000 1.0
C      1  0.5005040000000  0.4661980000000  0.5010160000000 1.0
C      1  0.5345260000000  0.5002200000000  0.5010160000000 1.0
C      1  0.5005040000000  0.5002200000000  0.5350380000000 1.0
C      1  0.5005040000000  0.5342420000000  0.5010160000000 1.0
C      1  0.5419760000000  0.4587480000000  0.5424880000000 1.0
C      1  0.5419760000000  0.5416920000000  0.4595440000000 1.0
C      1  0.4590320000000  0.5416920000000  0.5424880000000 1.0
C      1  0.4590320000000  0.4587480000000  0.4595440000000 1.0
C      1  0.5005040000000  0.5002200000000  0.5010160000000 1.0
END
