TITL C-862507-1800-1434 -11.6571569039886 125000 -1027.85721469968 0 0 180 (C1) n - 1
REM
REM in /home/nfs/bkarasulu/CARBON/AIRSS/Generating-Clusters/TERSOFF/Higher-Symm/FIRE-HFTN
REM
REM
REM
REM
REM
REM ./C.cell (b20cbc046b6831c77cfcea5457e17084)
REM AIRSS Version 0.9.1 bugfix July 2018 build 013d7b7c2542+ Fri, 06 Jul 2018 19:26:36 +0100
REM compiler GCC version 9.2.1 20190827 (Red Hat 9.2.1-1)
REM options -cpp -mtune=generic -march=x86-64 -g -O0 -fpre-include=/usr/include/finclude/math-vector-fortran.h
REM seed 1544567766 1756466918 -1759442528 1616371441 881708278 -1023289877 1494925108 1257190467 -84116853 1128728962 -623664133 261965170 -861430501 882886162 -1018984795 -1535252098 2137393662 -920308697 -405173506 -116341947 1247115887 1705257598 -1952234620 1607003989 -465406330 1670076971 -194558289 1603607908 -575051421 -88969085 1139670276 -126612639 -875849635
REM
CELL 1.54180   50.00000   50.00000   50.00000   90.00000   90.00000   90.00000
LATT -1
SFAC C  
C      1  0.4772870000000  0.4611790000000  0.4810090000000 1.0
C      1  0.4773000000000  0.5390770000000  0.4810580000000 1.0
C      1  0.5624780000000  0.5526560000000  0.5993610000000 1.0
C      1  0.5622420000000  0.4455370000000  0.5986640000000 1.0
C      1  0.4678010000000  0.5704410000000  0.4076680000000 1.0
C      1  0.4677350000000  0.4298070000000  0.4076790000000 1.0
C      1  0.5404590000000  0.5968430000000  0.5016780000000 1.0
C      1  0.5400240000000  0.4024470000000  0.5020540000000 1.0
C      1  0.4086560000000  0.4420930000000  0.4559410000000 1.0
C      1  0.4088460000000  0.5582950000000  0.4562230000000 1.0
C      1  0.5078730000000  0.4024330000000  0.5404290000000 1.0
C      1  0.5089240000000  0.5967890000000  0.5407880000000 1.0
C      1  0.4593330000000  0.3877260000000  0.4735220000000 1.0
C      1  0.4599200000000  0.6122310000000  0.4739690000000 1.0
C      1  0.5617180000000  0.5271530000000  0.5855590000000 1.0
C      1  0.5618850000000  0.4710470000000  0.5848970000000 1.0
C      1  0.5936490000000  0.4378660000000  0.4336120000000 1.0
C      1  0.5934790000000  0.5619360000000  0.4330880000000 1.0
C      1  0.4044350000000  0.5596290000000  0.5125800000000 1.0
C      1  0.4037590000000  0.4405700000000  0.5123500000000 1.0
C      1  0.5869910000000  0.4832870000000  0.5749170000000 1.0
C      1  0.5862270000000  0.5150110000000  0.5745010000000 1.0
C      1  0.4593230000000  0.5249690000000  0.4146110000000 1.0
C      1  0.4596670000000  0.4754340000000  0.4145640000000 1.0
C      1  0.5272350000000  0.4429460000000  0.5467600000000 1.0
C      1  0.5278710000000  0.5562170000000  0.5472770000000 1.0
C      1  0.5973560000000  0.5204970000000  0.5430840000000 1.0
C      1  0.5965280000000  0.4884800000000  0.5436360000000 1.0
C      1  0.5078920000000  0.5338640000000  0.4029530000000 1.0
C      1  0.5082410000000  0.4658350000000  0.4036750000000 1.0
C      1  0.5160940000000  0.5241790000000  0.4750120000000 1.0
C      1  0.5164890000000  0.4752920000000  0.4757640000000 1.0
C      1  0.4003680000000  0.4284390000000  0.4835350000000 1.0
C      1  0.4011090000000  0.5719450000000  0.4838460000000 1.0
C      1  0.6028780000000  0.4731300000000  0.5169090000000 1.0
C      1  0.6028880000000  0.5306520000000  0.5132760000000 1.0
C      1  0.4690250000000  0.5887550000000  0.4552550000000 1.0
C      1  0.4686930000000  0.4112560000000  0.4551100000000 1.0
C      1  0.5504820000000  0.5616400000000  0.5284260000000 1.0
C      1  0.5502410000000  0.4374320000000  0.5283910000000 1.0
C      1  0.5168540000000  0.5683130000000  0.4644990000000 1.0
C      1  0.5167300000000  0.4311710000000  0.4649840000000 1.0
C      1  0.6265520000000  0.5154600000000  0.5039550000000 1.0
C      1  0.6264790000000  0.4873310000000  0.5055000000000 1.0
C      1  0.5454150000000  0.4232110000000  0.5918570000000 1.0
C      1  0.5461220000000  0.5753780000000  0.5924710000000 1.0
C      1  0.4704440000000  0.5626530000000  0.5320080000000 1.0
C      1  0.4697300000000  0.4369160000000  0.5318290000000 1.0
C      1  0.4828760000000  0.5634440000000  0.5972570000000 1.0
C      1  0.4823110000000  0.4357410000000  0.5971620000000 1.0
C      1  0.4744510000000  0.5868990000000  0.5117090000000 1.0
C      1  0.4736520000000  0.4129290000000  0.5110170000000 1.0
C      1  0.5284010000000  0.4169690000000  0.4420310000000 1.0
C      1  0.5285260000000  0.5827260000000  0.4416860000000 1.0
C      1  0.4565340000000  0.5145640000000  0.5949470000000 1.0
C      1  0.4565750000000  0.4835520000000  0.5949490000000 1.0
C      1  0.5308280000000  0.5278890000000  0.5496610000000 1.0
C      1  0.5305290000000  0.4712270000000  0.5492930000000 1.0
C      1  0.5985500000000  0.4251180000000  0.5360900000000 1.0
C      1  0.5975030000000  0.5802850000000  0.5269380000000 1.0
C      1  0.4082320000000  0.4844370000000  0.4271830000000 1.0
C      1  0.4079940000000  0.5160310000000  0.4273260000000 1.0
C      1  0.5530690000000  0.5442840000000  0.5014990000000 1.0
C      1  0.5538990000000  0.4552520000000  0.5015570000000 1.0
C      1  0.4114270000000  0.5290640000000  0.4540080000000 1.0
C      1  0.4115030000000  0.4712970000000  0.4538030000000 1.0
C      1  0.4510560000000  0.5520370000000  0.5110550000000 1.0
C      1  0.4508780000000  0.4482060000000  0.5108610000000 1.0
C      1  0.5537960000000  0.5970800000000  0.4465040000000 1.0
C      1  0.5538020000000  0.4027140000000  0.4466680000000 1.0
C      1  0.5332670000000  0.5148820000000  0.3901280000000 1.0
C      1  0.5333230000000  0.4845050000000  0.3904620000000 1.0
C      1  0.5960350000000  0.4687150000000  0.4349170000000 1.0
C      1  0.5958610000000  0.5311130000000  0.4344930000000 1.0
C      1  0.4814880000000  0.6291010000000  0.4876950000000 1.0
C      1  0.4806980000000  0.3706860000000  0.4872410000000 1.0
C      1  0.5357060000000  0.4829130000000  0.5755080000000 1.0
C      1  0.5355370000000  0.5158050000000  0.5758420000000 1.0
C      1  0.5005090000000  0.4304250000000  0.5381520000000 1.0
C      1  0.5011930000000  0.5688840000000  0.5386190000000 1.0
C      1  0.4253310000000  0.4749050000000  0.5552430000000 1.0
C      1  0.4254350000000  0.5249670000000  0.5555110000000 1.0
C      1  0.5376110000000  0.5703000000000  0.4876920000000 1.0
C      1  0.5373640000000  0.4290160000000  0.4881910000000 1.0
C      1  0.4493750000000  0.5148970000000  0.5410470000000 1.0
C      1  0.4493000000000  0.4849830000000  0.5408470000000 1.0
C      1  0.5507000000000  0.4634140000000  0.4306090000000 1.0
C      1  0.5503820000000  0.5361420000000  0.4299140000000 1.0
C      1  0.5894780000000  0.5164110000000  0.4614160000000 1.0
C      1  0.5898030000000  0.4834990000000  0.4620440000000 1.0
C      1  0.4651270000000  0.6173440000000  0.5389690000000 1.0
C      1  0.4641970000000  0.3825890000000  0.5383670000000 1.0
C      1  0.4707010000000  0.4054740000000  0.5596580000000 1.0
C      1  0.4716810000000  0.5941090000000  0.5599400000000 1.0
C      1  0.4229650000000  0.4253700000000  0.4353510000000 1.0
C      1  0.4231470000000  0.5749270000000  0.4355430000000 1.0
C      1  0.4258950000000  0.4136620000000  0.4827990000000 1.0
C      1  0.4263770000000  0.5871450000000  0.4832740000000 1.0
C      1  0.4966630000000  0.5152320000000  0.5288950000000 1.0
C      1  0.4965410000000  0.4846750000000  0.5287330000000 1.0
C      1  0.4271070000000  0.4833590000000  0.5837280000000 1.0
C      1  0.4270520000000  0.5162300000000  0.5839400000000 1.0
C      1  0.5101240000000  0.5419850000000  0.4538490000000 1.0
C      1  0.5104980000000  0.4576260000000  0.4545350000000 1.0
C      1  0.4512690000000  0.5693990000000  0.5557260000000 1.0
C      1  0.4504930000000  0.4303070000000  0.5555640000000 1.0
C      1  0.3938500000000  0.4693390000000  0.5170470000000 1.0
C      1  0.3941970000000  0.5309520000000  0.5171650000000 1.0
C      1  0.4567450000000  0.5568910000000  0.5835260000000 1.0
C      1  0.4561180000000  0.4424950000000  0.5835460000000 1.0
C      1  0.5222600000000  0.5390370000000  0.4287250000000 1.0
C      1  0.5225710000000  0.4606050000000  0.4294330000000 1.0
C      1  0.5421420000000  0.4860640000000  0.4756200000000 1.0
C      1  0.5418420000000  0.5137330000000  0.4750150000000 1.0
C      1  0.5000570000000  0.5422510000000  0.6090600000000 1.0
C      1  0.4997940000000  0.4567670000000  0.6089430000000 1.0
C      1  0.4464040000000  0.4332280000000  0.4863380000000 1.0
C      1  0.4468680000000  0.5674560000000  0.4867140000000 1.0
C      1  0.4323960000000  0.5162080000000  0.4050340000000 1.0
C      1  0.4326360000000  0.4839030000000  0.4048910000000 1.0
C      1  0.4585700000000  0.4740210000000  0.4632570000000 1.0
C      1  0.4584850000000  0.5263720000000  0.4633090000000 1.0
C      1  0.5783790000000  0.4813940000000  0.4963280000000 1.0
C      1  0.5781080000000  0.5188950000000  0.4955370000000 1.0
C      1  0.4955190000000  0.4818600000000  0.4964180000000 1.0
C      1  0.4954580000000  0.5181780000000  0.4963250000000 1.0
C      1  0.5398690000000  0.3819090000000  0.4654200000000 1.0
C      1  0.5402070000000  0.6178890000000  0.4653360000000 1.0
C      1  0.5707780000000  0.4190420000000  0.5363970000000 1.0
C      1  0.5701060000000  0.5817800000000  0.5346280000000 1.0
C      1  0.5248250000000  0.5747770000000  0.5728160000000 1.0
C      1  0.5240170000000  0.4243460000000  0.5724000000000 1.0
C      1  0.4681900000000  0.5143720000000  0.4393460000000 1.0
C      1  0.4683250000000  0.4861160000000  0.4393430000000 1.0
C      1  0.4799880000000  0.5223490000000  0.5780140000000 1.0
C      1  0.4800420000000  0.4764890000000  0.5775840000000 1.0
C      1  0.4857600000000  0.3732170000000  0.5173520000000 1.0
C      1  0.4866810000000  0.6266080000000  0.5178090000000 1.0
C      1  0.4988680000000  0.4075710000000  0.4954550000000 1.0
C      1  0.4992110000000  0.5919120000000  0.4955260000000 1.0
C      1  0.6106270000000  0.4443850000000  0.5186560000000 1.0
C      1  0.6084190000000  0.5596860000000  0.5102220000000 1.0
C      1  0.5867510000000  0.4849590000000  0.4101470000000 1.0
C      1  0.5867090000000  0.5147650000000  0.4099130000000 1.0
C      1  0.4936600000000  0.6052530000000  0.4480720000000 1.0
C      1  0.4932760000000  0.3946970000000  0.4478500000000 1.0
C      1  0.4317930000000  0.5155820000000  0.4712580000000 1.0
C      1  0.4318250000000  0.4846810000000  0.4711710000000 1.0
C      1  0.5600330000000  0.5268280000000  0.4035980000000 1.0
C      1  0.5600910000000  0.4727730000000  0.4042180000000 1.0
C      1  0.5609070000000  0.4739500000000  0.4573260000000 1.0
C      1  0.5605570000000  0.5256340000000  0.4565700000000 1.0
C      1  0.4357650000000  0.3926510000000  0.5287290000000 1.0
C      1  0.4365740000000  0.6074050000000  0.5293670000000 1.0
C      1  0.5094350000000  0.6165180000000  0.4712070000000 1.0
C      1  0.5089880000000  0.3831860000000  0.4709250000000 1.0
C      1  0.4239270000000  0.4216690000000  0.5354490000000 1.0
C      1  0.4246920000000  0.5782930000000  0.5358020000000 1.0
C      1  0.5789870000000  0.5806790000000  0.4525280000000 1.0
C      1  0.5788890000000  0.4192100000000  0.4529500000000 1.0
C      1  0.4760900000000  0.5245600000000  0.5483350000000 1.0
C      1  0.4759830000000  0.4750350000000  0.5479070000000 1.0
C      1  0.4775380000000  0.4572690000000  0.4012020000000 1.0
C      1  0.4771990000000  0.5428780000000  0.4008980000000 1.0
C      1  0.5159280000000  0.3872290000000  0.5169800000000 1.0
C      1  0.5165420000000  0.6119290000000  0.5171440000000 1.0
C      1  0.4955120000000  0.4147510000000  0.5797180000000 1.0
C      1  0.4963510000000  0.5845160000000  0.5801000000000 1.0
C      1  0.3827030000000  0.4855800000000  0.4951960000000 1.0
C      1  0.3828820000000  0.5149190000000  0.4952450000000 1.0
C      1  0.5078560000000  0.5170750000000  0.5923520000000 1.0
C      1  0.5079440000000  0.4818050000000  0.5920630000000 1.0
C      1  0.4530530000000  0.5777190000000  0.4330950000000 1.0
C      1  0.4528630000000  0.4225010000000  0.4329940000000 1.0
C      1  0.4865400000000  0.4297120000000  0.4745950000000 1.0
C      1  0.4869330000000  0.5701200000000  0.4745070000000 1.0
C      1  0.5384180000000  0.4857160000000  0.5259350000000 1.0
C      1  0.5385230000000  0.5135440000000  0.5261240000000 1.0
C      1  0.4018620000000  0.5156370000000  0.5408570000000 1.0
C      1  0.4017600000000  0.4844810000000  0.5407640000000 1.0
END
