TITL C-862503-991-1402 865923.340549764 125000 -825.76941380052 0 0 138 (C1) n - 1
REM
REM in /home/nfs/bkarasulu/CARBON/AIRSS/Generating-Clusters/TERSOFF/Higher-Symm/FIRE-HFTN
REM
REM
REM
REM
REM
REM ./C.cell (b20cbc046b6831c77cfcea5457e17084)
REM AIRSS Version 0.9.1 bugfix July 2018 build 013d7b7c2542+ Fri, 06 Jul 2018 19:26:36 +0100
REM compiler GCC version 9.2.1 20190827 (Red Hat 9.2.1-1)
REM options -cpp -mtune=generic -march=x86-64 -g -O0 -fpre-include=/usr/include/finclude/math-vector-fortran.h
REM seed -290637333 987313837 1573430977 -1012158134 -892515240 713850263 -1184231862 -2032349547 -1942357163 598911470 -816578671 347508554 -1336524423 407544684 1888666515 -503157983 -594146675 -1056903164 953565348 -1251461087 1200985434 944708586 -2054647317 1127883796 -761537667 26093892 -1835031908 1245471109 -556990310 1132561717 1602130968 189021541 1248066954
REM
CELL 1.54180   50.00000   50.00000   50.00000   90.00000   90.00000   90.00000
LATT -1
SFAC C  
C      1  0.5274240000000  0.5259420000000  0.5434860000000 1.0
C      1  0.4060440000000  0.4314520000000  0.4822880000000 1.0
C      1  0.5455030000000  0.4949650000000  0.4679810000000 1.0
C      1  0.4301320000000  0.5405930000000  0.4449540000000 1.0
C      1  0.6088910000000  0.4903650000000  0.4654730000000 1.0
C      1  0.4572820000000  0.4901960000000  0.4910520000000 1.0
C      1  0.5085660000000  0.4781090000000  0.5146530000000 1.0
C      1  0.5777920000000  0.4311040000000  0.4693280000000 1.0
C      1  0.4932350000000  0.4871680000000  0.5384940000000 1.0
C      1  0.5551650000000  0.4507510000000  0.5721620000000 1.0
C      1  0.4688430000000  0.4681010000000  0.6009410000000 1.0
C      1  0.3977210000000  0.5555820000000  0.4783940000000 1.0
C      1  0.4361750000000  0.5227700000000  0.4213800000000 1.0
C      1  0.4615880000000  0.4187040000000  0.5105740000000 1.0
C      1  0.5006900000000  0.5906770000000  0.5452460000000 1.0
C      1  0.5140970000000  0.5541320000000  0.4709710000000 1.0
C      1  0.3964430000000  0.5089780000000  0.4507210000000 1.0
C      1  0.4968010000000  0.4426370000000  0.5651180000000 1.0
C      1  0.4577050000000  0.5165370000000  0.5038360000000 1.0
C      1  0.4064180000000  0.5192830000000  0.5095460000000 1.0
C      1  0.5227600000000  0.5153000000000  0.5719570000000 1.0
C      1  0.5375890000000  0.5370870000000  0.4660340000000 1.0
C      1  0.5775310000000  0.4899480000000  0.4281050000000 1.0
C      1  0.5600960000000  0.5807280000000  0.5182030000000 1.0
C      1  0.4983780000000  0.5163740000000  0.5343590000000 1.0
C      1  0.5207580000000  0.5759750000000  0.5610270000000 1.0
C      1  0.5785250000000  0.5092730000000  0.5278740000000 1.0
C      1  0.4661610000000  0.4813740000000  0.5516100000000 1.0
C      1  0.5897810000000  0.5451420000000  0.5465170000000 1.0
C      1  0.4665340000000  0.5276640000000  0.4185560000000 1.0
C      1  0.5369470000000  0.4843230000000  0.5125030000000 1.0
C      1  0.5198930000000  0.5534050000000  0.5125570000000 1.0
C      1  0.5565330000000  0.5610380000000  0.4268520000000 1.0
C      1  0.4962910000000  0.4118370000000  0.4108740000000 1.0
C      1  0.5919570000000  0.4240190000000  0.4955330000000 1.0
C      1  0.4325140000000  0.5620940000000  0.5154500000000 1.0
C      1  0.5725210000000  0.5996260000000  0.4995220000000 1.0
C      1  0.4196510000000  0.4988790000000  0.4330600000000 1.0
C      1  0.5845430000000  0.5281680000000  0.4440420000000 1.0
C      1  0.4596780000000  0.5744380000000  0.5202060000000 1.0
C      1  0.4352130000000  0.4794460000000  0.4759670000000 1.0
C      1  0.5937950000000  0.4448250000000  0.4473400000000 1.0
C      1  0.5509020000000  0.4864460000000  0.4392010000000 1.0
C      1  0.5059760000000  0.4735390000000  0.4193580000000 1.0
C      1  0.5053700000000  0.4095550000000  0.4860770000000 1.0
C      1  0.5161650000000  0.4208060000000  0.5587440000000 1.0
C      1  0.4904700000000  0.4352160000000  0.4267670000000 1.0
C      1  0.4036620000000  0.5381100000000  0.4559850000000 1.0
C      1  0.5181790000000  0.4019640000000  0.5114020000000 1.0
C      1  0.4765230000000  0.4133610000000  0.4862990000000 1.0
C      1  0.5398620000000  0.5980720000000  0.4584840000000 1.0
C      1  0.4072740000000  0.4900670000000  0.5636840000000 1.0
C      1  0.4683530000000  0.4527030000000  0.4196860000000 1.0
C      1  0.4805670000000  0.5123740000000  0.4405840000000 1.0
C      1  0.5748150000000  0.4692840000000  0.5572090000000 1.0
C      1  0.4548920000000  0.5370510000000  0.5792660000000 1.0
C      1  0.5823480000000  0.5260600000000  0.5687230000000 1.0
C      1  0.4685040000000  0.4349160000000  0.5554710000000 1.0
C      1  0.5974580000000  0.4743990000000  0.4437860000000 1.0
C      1  0.5426020000000  0.4971260000000  0.5820850000000 1.0
C      1  0.4739250000000  0.4117810000000  0.5362860000000 1.0
C      1  0.5192940000000  0.4597670000000  0.6097580000000 1.0
C      1  0.4917800000000  0.4506710000000  0.6060260000000 1.0
C      1  0.5475880000000  0.5090310000000  0.5249200000000 1.0
C      1  0.5693150000000  0.5442390000000  0.4049060000000 1.0
C      1  0.6065420000000  0.5347430000000  0.4873290000000 1.0
C      1  0.4735510000000  0.5159870000000  0.5863400000000 1.0
C      1  0.4724270000000  0.5801940000000  0.5471440000000 1.0
C      1  0.3734180000000  0.4659530000000  0.4661170000000 1.0
C      1  0.5611230000000  0.5453140000000  0.4508420000000 1.0
C      1  0.5339380000000  0.4676390000000  0.4241790000000 1.0
C      1  0.4676850000000  0.4885750000000  0.5801170000000 1.0
C      1  0.5159980000000  0.5847040000000  0.4700070000000 1.0
C      1  0.4120870000000  0.5619140000000  0.5376170000000 1.0
C      1  0.5471500000000  0.4382270000000  0.4971140000000 1.0
C      1  0.4649390000000  0.5708690000000  0.4490270000000 1.0
C      1  0.5032230000000  0.4043360000000  0.5368430000000 1.0
C      1  0.5553180000000  0.4624930000000  0.5102090000000 1.0
C      1  0.5229000000000  0.4034110000000  0.4044750000000 1.0
C      1  0.5681140000000  0.4990980000000  0.5672530000000 1.0
C      1  0.4836780000000  0.5274510000000  0.5112780000000 1.0
C      1  0.5802160000000  0.4614360000000  0.5285710000000 1.0
C      1  0.5123110000000  0.6020280000000  0.5187450000000 1.0
C      1  0.4289000000000  0.5965160000000  0.4758700000000 1.0
C      1  0.4327700000000  0.5318380000000  0.5090110000000 1.0
C      1  0.5056020000000  0.4700400000000  0.5605000000000 1.0
C      1  0.5924510000000  0.4903400000000  0.4900720000000 1.0
C      1  0.5827950000000  0.4316640000000  0.5232620000000 1.0
C      1  0.6000180000000  0.4761830000000  0.5135880000000 1.0
C      1  0.4535620000000  0.5471640000000  0.4624940000000 1.0
C      1  0.5093700000000  0.4426670000000  0.4477750000000 1.0
C      1  0.5464120000000  0.4192810000000  0.4096150000000 1.0
C      1  0.5374270000000  0.5540780000000  0.5507070000000 1.0
C      1  0.4094880000000  0.5200530000000  0.5648630000000 1.0
C      1  0.4210470000000  0.4489350000000  0.5010600000000 1.0
C      1  0.6045270000000  0.5200150000000  0.4629390000000 1.0
C      1  0.5518710000000  0.4160560000000  0.4617640000000 1.0
C      1  0.5370060000000  0.4687300000000  0.5883370000000 1.0
C      1  0.5478030000000  0.4481730000000  0.4068340000000 1.0
C      1  0.4486350000000  0.4583660000000  0.5430860000000 1.0
C      1  0.4035090000000  0.4690060000000  0.5155810000000 1.0
C      1  0.5849360000000  0.5180650000000  0.4152110000000 1.0
C      1  0.3873360000000  0.4912010000000  0.4722060000000 1.0
C      1  0.4955120000000  0.5494110000000  0.4958740000000 1.0
C      1  0.3780290000000  0.4520440000000  0.5119180000000 1.0
C      1  0.4495840000000  0.5950440000000  0.4548690000000 1.0
C      1  0.4341680000000  0.4776230000000  0.4469710000000 1.0
C      1  0.5667740000000  0.5053850000000  0.4877460000000 1.0
C      1  0.3999490000000  0.4935600000000  0.4988610000000 1.0
C      1  0.4946900000000  0.5560020000000  0.5872000000000 1.0
C      1  0.5453380000000  0.4259620000000  0.5589890000000 1.0
C      1  0.4180800000000  0.5730690000000  0.4907640000000 1.0
C      1  0.3771470000000  0.4418210000000  0.4830610000000 1.0
C      1  0.4180830000000  0.4722320000000  0.5421540000000 1.0
C      1  0.3703300000000  0.5327240000000  0.5353020000000 1.0
C      1  0.4178640000000  0.4170870000000  0.4600420000000 1.0
C      1  0.3968370000000  0.5380670000000  0.5458520000000 1.0
C      1  0.5713990000000  0.5530310000000  0.5222800000000 1.0
C      1  0.5608290000000  0.4149700000000  0.5359190000000 1.0
C      1  0.4879530000000  0.4845340000000  0.4388330000000 1.0
C      1  0.4726720000000  0.5251500000000  0.4655640000000 1.0
C      1  0.4716700000000  0.5580290000000  0.4219680000000 1.0
C      1  0.5315030000000  0.5788780000000  0.5173500000000 1.0
C      1  0.4684190000000  0.5643800000000  0.5733420000000 1.0
C      1  0.5587610000000  0.6120680000000  0.4765110000000 1.0
C      1  0.5446260000000  0.4130800000000  0.5112660000000 1.0
C      1  0.6176660000000  0.5396720000000  0.5359740000000 1.0
C      1  0.5657040000000  0.5347970000000  0.4971340000000 1.0
C      1  0.6046610000000  0.5230620000000  0.5140990000000 1.0
C      1  0.4269670000000  0.5331310000000  0.5835080000000 1.0
C      1  0.5013030000000  0.5265550000000  0.5883990000000 1.0
C      1  0.4787450000000  0.5741310000000  0.4979370000000 1.0
C      1  0.5224870000000  0.4237670000000  0.4658480000000 1.0
C      1  0.4265590000000  0.4292910000000  0.4352050000000 1.0
C      1  0.4460580000000  0.4434330000000  0.5145800000000 1.0
C      1  0.5490700000000  0.5890230000000  0.4317130000000 1.0
C      1  0.4977340000000  0.5973110000000  0.4922010000000 1.0
C      1  0.4427600000000  0.4533910000000  0.4333340000000 1.0
END
