TITL C-862134-6730-324 -0.00108892650196681 125000 -57.3503641808347 0 0 13 (C1) n - 1
REM
REM in /home/nfs/bkarasulu/CARBON/AIRSS/Generating-Clusters/TERSOFF/Higher-Symm/FIRE-HFTN
REM
REM
REM
REM
REM
REM ./C.cell (b20cbc046b6831c77cfcea5457e17084)
REM AIRSS Version 0.9.1 bugfix July 2018 build 013d7b7c2542+ Fri, 06 Jul 2018 19:26:36 +0100
REM compiler GCC version 9.2.1 20190827 (Red Hat 9.2.1-1)
REM options -cpp -mtune=generic -march=x86-64 -g -O0 -fpre-include=/usr/include/finclude/math-vector-fortran.h
REM seed -808865365 1873867543 -1281901740 1918870150 755334890 1247457493 855357858 -997676619 -2077647528 2023837229 37555863 600097023 -1244155290 -593828711 -970172048 602224512 227408881 -1476593722 1700526240 -297829412 1302775074 1444009745 977321756 -874459906 -1093326752 826960379 567004755 14443114 -1760838061 506496512 -1636892772 515945970 1675969407
REM
CELL 1.54180   50.00000   50.00000   50.00000   90.00000   90.00000   90.00000
LATT -1
SFAC C  
C      1  0.4793080000000  0.5126250000000  0.4791270000000 1.0
C      1  0.4856490000000  0.5145910000000  0.5285400000000 1.0
C      1  0.4805330000000  0.4739260000000  0.4953990000000 1.0
C      1  0.5237340000000  0.4857910000000  0.4833400000000 1.0
C      1  0.5169730000000  0.4815030000000  0.5245690000000 1.0
C      1  0.5202620000000  0.5258410000000  0.4955050000000 1.0
C      1  0.4867720000000  0.5369280000000  0.4644580000000 1.0
C      1  0.4926370000000  0.5063010000000  0.5557920000000 1.0
C      1  0.4908830000000  0.4525850000000  0.4781420000000 1.0
C      1  0.5180820000000  0.4600020000000  0.4705190000000 1.0
C      1  0.5126540000000  0.4851520000000  0.5533910000000 1.0
C      1  0.5127600000000  0.5453030000000  0.4748600000000 1.0
C      1  0.4998490000000  0.5003720000000  0.5025670000000 1.0
END
