TITL C-862132-7359-306 13354.3540988892 125000 -939.071773104623 0 0 173 (C1) n - 1
REM
REM in /home/nfs/bkarasulu/CARBON/AIRSS/Generating-Clusters/TERSOFF/Higher-Symm/FIRE-HFTN
REM
REM
REM
REM
REM
REM ./C.cell (b20cbc046b6831c77cfcea5457e17084)
REM AIRSS Version 0.9.1 bugfix July 2018 build 013d7b7c2542+ Fri, 06 Jul 2018 19:26:36 +0100
REM compiler GCC version 9.2.1 20190827 (Red Hat 9.2.1-1)
REM options -cpp -mtune=generic -march=x86-64 -g -O0 -fpre-include=/usr/include/finclude/math-vector-fortran.h
REM seed 530575192 1248821479 -305686890 216363712 -94059988 -73119597 -1256899903 1636415017 -291018677 454920468 1808335701 -345042853 -648589009 -2024536437 -1914042794 390940478 -1170617011 -1388771889 -1602939235 -724151505 376762403 541268828 -434449429 -853574942 1806370311 -208481536 303700861 1924911699 2248947 -347663260 -824709734 -1564600316 -1203193500
REM
CELL 1.54180   50.00000   50.00000   50.00000   90.00000   90.00000   90.00000
LATT -1
SFAC C  
C      1  0.4277460000000  0.4483890000000  0.5853830000000 1.0
C      1  0.4728880000000  0.4221780000000  0.5867200000000 1.0
C      1  0.5138130000000  0.4315970000000  0.5867850000000 1.0
C      1  0.5553860000000  0.4372610000000  0.5850750000000 1.0
C      1  0.5878800000000  0.4792130000000  0.5847200000000 1.0
C      1  0.5793730000000  0.5318700000000  0.5851920000000 1.0
C      1  0.5458350000000  0.5570740000000  0.5871300000000 1.0
C      1  0.5113660000000  0.5810150000000  0.5855300000000 1.0
C      1  0.4581370000000  0.5706050000000  0.5858230000000 1.0
C      1  0.4352330000000  0.5355380000000  0.5827700000000 1.0
C      1  0.4147220000000  0.4990630000000  0.5862760000000 1.0
C      1  0.4689580000000  0.5459080000000  0.4944990000000 1.0
C      1  0.4483790000000  0.5213160000000  0.4941160000000 1.0
C      1  0.4423480000000  0.4901030000000  0.4955580000000 1.0
C      1  0.4561220000000  0.4615250000000  0.4957290000000 1.0
C      1  0.4839400000000  0.4458940000000  0.4967340000000 1.0
C      1  0.5150750000000  0.4530800000000  0.4955490000000 1.0
C      1  0.5457080000000  0.4639860000000  0.4945780000000 1.0
C      1  0.5589780000000  0.4924450000000  0.4950120000000 1.0
C      1  0.5530770000000  0.5236620000000  0.4961370000000 1.0
C      1  0.5280270000000  0.5432360000000  0.4954670000000 1.0
C      1  0.4985360000000  0.5564850000000  0.4951330000000 1.0
C      1  0.6037510000000  0.4610350000000  0.5098710000000 1.0
C      1  0.6076910000000  0.5232690000000  0.5110380000000 1.0
C      1  0.5737450000000  0.5742210000000  0.5140980000000 1.0
C      1  0.5231080000000  0.6055240000000  0.5116200000000 1.0
C      1  0.4619880000000  0.6002020000000  0.5118910000000 1.0
C      1  0.4129600000000  0.5636210000000  0.5116390000000 1.0
C      1  0.3902000000000  0.5075230000000  0.5112250000000 1.0
C      1  0.4031290000000  0.4468150000000  0.5106890000000 1.0
C      1  0.4481770000000  0.4043260000000  0.5124240000000 1.0
C      1  0.5085980000000  0.3976960000000  0.5151000000000 1.0
C      1  0.5652810000000  0.4123730000000  0.5108430000000 1.0
C      1  0.4095670000000  0.4993500000000  0.5348030000000 1.0
C      1  0.4234150000000  0.4506800000000  0.5343810000000 1.0
C      1  0.4634480000000  0.4196760000000  0.5360490000000 1.0
C      1  0.5094600000000  0.4199800000000  0.5368840000000 1.0
C      1  0.5586810000000  0.4327870000000  0.5337740000000 1.0
C      1  0.5880450000000  0.4742160000000  0.5336720000000 1.0
C      1  0.5866370000000  0.5248960000000  0.5348520000000 1.0
C      1  0.5563670000000  0.5610210000000  0.5366660000000 1.0
C      1  0.5125030000000  0.5867140000000  0.5345180000000 1.0
C      1  0.4622770000000  0.5781990000000  0.5348940000000 1.0
C      1  0.4264980000000  0.5459310000000  0.5336760000000 1.0
C      1  0.3971160000000  0.5051220000000  0.4814760000000 1.0
C      1  0.4104380000000  0.4489390000000  0.4811970000000 1.0
C      1  0.4530530000000  0.4097440000000  0.4824570000000 1.0
C      1  0.5104970000000  0.4033590000000  0.4850240000000 1.0
C      1  0.5624750000000  0.4191290000000  0.4811880000000 1.0
C      1  0.5972500000000  0.4650950000000  0.4803660000000 1.0
C      1  0.6002460000000  0.5236100000000  0.4812030000000 1.0
C      1  0.5679490000000  0.5718190000000  0.4840490000000 1.0
C      1  0.5198010000000  0.5994380000000  0.4818530000000 1.0
C      1  0.4625180000000  0.5934960000000  0.4820010000000 1.0
C      1  0.4171060000000  0.5583170000000  0.4818640000000 1.0
C      1  0.4003890000000  0.5241120000000  0.4318370000000 1.0
C      1  0.4025310000000  0.4664720000000  0.4322990000000 1.0
C      1  0.4361990000000  0.4193060000000  0.4331920000000 1.0
C      1  0.4907360000000  0.3996270000000  0.4342940000000 1.0
C      1  0.5454930000000  0.4096580000000  0.4315760000000 1.0
C      1  0.5884150000000  0.4479680000000  0.4315910000000 1.0
C      1  0.6028720000000  0.5044820000000  0.4321600000000 1.0
C      1  0.5825660000000  0.5589950000000  0.4335010000000 1.0
C      1  0.5381520000000  0.5936890000000  0.4322370000000 1.0
C      1  0.4809160000000  0.5996740000000  0.4326500000000 1.0
C      1  0.4297100000000  0.5733710000000  0.4324630000000 1.0
C      1  0.3824720000000  0.4727780000000  0.5168140000000 1.0
C      1  0.4159810000000  0.4135560000000  0.5162180000000 1.0
C      1  0.4784390000000  0.3853250000000  0.5171080000000 1.0
C      1  0.5410090000000  0.3910140000000  0.5178940000000 1.0
C      1  0.5968190000000  0.4287410000000  0.5166570000000 1.0
C      1  0.6210980000000  0.4922590000000  0.5150920000000 1.0
C      1  0.6028960000000  0.5586920000000  0.5159550000000 1.0
C      1  0.5556960000000  0.6026730000000  0.5179580000000 1.0
C      1  0.4896530000000  0.6175570000000  0.5174820000000 1.0
C      1  0.4271360000000  0.5929040000000  0.5172090000000 1.0
C      1  0.3878010000000  0.5402880000000  0.5175400000000 1.0
C      1  0.5077450000000  0.4133160000000  0.5650280000000 1.0
C      1  0.5688750000000  0.4287320000000  0.5607920000000 1.0
C      1  0.6012520000000  0.4785060000000  0.5592360000000 1.0
C      1  0.5944300000000  0.5353810000000  0.5608020000000 1.0
C      1  0.5625910000000  0.5655320000000  0.5647940000000 1.0
C      1  0.5090360000000  0.5968860000000  0.5615190000000 1.0
C      1  0.4507500000000  0.5839990000000  0.5611380000000 1.0
C      1  0.4212740000000  0.5495450000000  0.5615700000000 1.0
C      1  0.3993160000000  0.4951950000000  0.5619060000000 1.0
C      1  0.4181760000000  0.4383720000000  0.5601720000000 1.0
C      1  0.4660660000000  0.4076700000000  0.5624810000000 1.0
C      1  0.5605640000000  0.4842490000000  0.5281980000000 1.0
C      1  0.5586440000000  0.5170510000000  0.5289750000000 1.0
C      1  0.5340820000000  0.5415400000000  0.5290140000000 1.0
C      1  0.5059870000000  0.5588390000000  0.5275940000000 1.0
C      1  0.4733200000000  0.5510390000000  0.5282440000000 1.0
C      1  0.4483660000000  0.5279120000000  0.5262500000000 1.0
C      1  0.4384890000000  0.4967570000000  0.5283990000000 1.0
C      1  0.4486930000000  0.4653290000000  0.5288150000000 1.0
C      1  0.4753870000000  0.4460730000000  0.5296450000000 1.0
C      1  0.5107280000000  0.4496460000000  0.5288180000000 1.0
C      1  0.5428950000000  0.4565270000000  0.5268210000000 1.0
C      1  0.5896990000000  0.4441190000000  0.4612350000000 1.0
C      1  0.6064070000000  0.5023320000000  0.4617630000000 1.0
C      1  0.5857520000000  0.5590120000000  0.4636460000000 1.0
C      1  0.5414190000000  0.5954050000000  0.4617770000000 1.0
C      1  0.4827130000000  0.6027460000000  0.4624470000000 1.0
C      1  0.4293850000000  0.5768530000000  0.4622780000000 1.0
C      1  0.3977870000000  0.5270960000000  0.4615310000000 1.0
C      1  0.3989450000000  0.4679960000000  0.4619290000000 1.0
C      1  0.4325830000000  0.4183330000000  0.4628750000000 1.0
C      1  0.4891210000000  0.3977740000000  0.4645920000000 1.0
C      1  0.5447450000000  0.4059980000000  0.4610750000000 1.0
C      1  0.4202620000000  0.5454580000000  0.4201640000000 1.0
C      1  0.4070790000000  0.4951770000000  0.4200340000000 1.0
C      1  0.4240810000000  0.4457760000000  0.4206790000000 1.0
C      1  0.4654060000000  0.4139160000000  0.4217160000000 1.0
C      1  0.5166210000000  0.4118560000000  0.4211050000000 1.0
C      1  0.5634110000000  0.4330790000000  0.4194680000000 1.0
C      1  0.5904420000000  0.4779320000000  0.4199200000000 1.0
C      1  0.5878620000000  0.5303150000000  0.4208440000000 1.0
C      1  0.5561170000000  0.5710360000000  0.4209610000000 1.0
C      1  0.5087120000000  0.5912830000000  0.4203330000000 1.0
C      1  0.4577440000000  0.5812960000000  0.4205780000000 1.0
C      1  0.5539380000000  0.5203890000000  0.4494750000000 1.0
C      1  0.5319200000000  0.5436600000000  0.4491860000000 1.0
C      1  0.5024380000000  0.5564760000000  0.4488970000000 1.0
C      1  0.4714740000000  0.5484920000000  0.4490210000000 1.0
C      1  0.4492630000000  0.5254470000000  0.4481990000000 1.0
C      1  0.4422210000000  0.4941250000000  0.4493540000000 1.0
C      1  0.4537810000000  0.4644950000000  0.4487340000000 1.0
C      1  0.4803220000000  0.4467750000000  0.4500000000000 1.0
C      1  0.5123240000000  0.4487960000000  0.4491230000000 1.0
C      1  0.5422440000000  0.4608520000000  0.4487210000000 1.0
C      1  0.5575620000000  0.4887260000000  0.4486950000000 1.0
C      1  0.5078380000000  0.4644470000000  0.5865290000000 1.0
C      1  0.5414520000000  0.4631640000000  0.5884560000000 1.0
C      1  0.5599040000000  0.4864250000000  0.5885460000000 1.0
C      1  0.5550000000000  0.5157350000000  0.5876270000000 1.0
C      1  0.5272410000000  0.5310230000000  0.5872670000000 1.0
C      1  0.5040570000000  0.5527970000000  0.5876180000000 1.0
C      1  0.4753940000000  0.5468880000000  0.5874770000000 1.0
C      1  0.4635180000000  0.5183440000000  0.5795750000000 1.0
C      1  0.4438700000000  0.4948540000000  0.5885930000000 1.0
C      1  0.4507720000000  0.4660000000000  0.5885620000000 1.0
C      1  0.4769030000000  0.4515690000000  0.5883380000000 1.0
C      1  0.4712840000000  0.5534180000000  0.4153580000000 1.0
C      1  0.4466050000000  0.5291060000000  0.4144930000000 1.0
C      1  0.4381040000000  0.4957050000000  0.4156090000000 1.0
C      1  0.4496820000000  0.4632920000000  0.4149250000000 1.0
C      1  0.4768250000000  0.4427200000000  0.4166010000000 1.0
C      1  0.5114280000000  0.4422710000000  0.4155220000000 1.0
C      1  0.5430920000000  0.4565580000000  0.4151490000000 1.0
C      1  0.5604550000000  0.4862200000000  0.4147900000000 1.0
C      1  0.5584670000000  0.5202980000000  0.4158760000000 1.0
C      1  0.5367070000000  0.5470230000000  0.4155240000000 1.0
C      1  0.5049040000000  0.5605010000000  0.4153120000000 1.0
C      1  0.4767470000000  0.4256200000000  0.4738540000000 1.0
C      1  0.5223250000000  0.4289940000000  0.4738690000000 1.0
C      1  0.5600620000000  0.4473150000000  0.4723440000000 1.0
C      1  0.5804050000000  0.4877440000000  0.4720970000000 1.0
C      1  0.5728770000000  0.5316340000000  0.4730410000000 1.0
C      1  0.5407450000000  0.5639950000000  0.4736120000000 1.0
C      1  0.5006720000000  0.5785200000000  0.4728910000000 1.0
C      1  0.4573860000000  0.5658220000000  0.4726870000000 1.0
C      1  0.4278710000000  0.5321690000000  0.4722240000000 1.0
C      1  0.4203720000000  0.4888720000000  0.4728500000000 1.0
C      1  0.4389000000000  0.4480660000000  0.4727790000000 1.0
C      1  0.4962340000000  0.5005550000000  0.4653890000000 1.0
C      1  0.4846450000000  0.5048880000000  0.5621150000000 1.0
C      1  0.5084350000000  0.5016830000000  0.4391820000000 1.0
C      1  0.5008590000000  0.4908900000000  0.5155190000000 1.0
C      1  0.4828030000000  0.5049500000000  0.5332300000000 1.0
C      1  0.4942540000000  0.4981700000000  0.4142010000000 1.0
C      1  0.5074940000000  0.4925580000000  0.5747500000000 1.0
C      1  0.5107500000000  0.5012670000000  0.4903990000000 1.0
END
