TITL C-862128-1543-92 0.0388827386067803 125000 -600.420772382502 0 0 117 (C1) n - 1
REM
REM in /home/nfs/bkarasulu/CARBON/AIRSS/Generating-Clusters/TERSOFF/Higher-Symm/FIRE-HFTN
REM
REM
REM
REM
REM
REM ./C.cell (b20cbc046b6831c77cfcea5457e17084)
REM AIRSS Version 0.9.1 bugfix July 2018 build 013d7b7c2542+ Fri, 06 Jul 2018 19:26:36 +0100
REM compiler GCC version 9.2.1 20190827 (Red Hat 9.2.1-1)
REM options -cpp -mtune=generic -march=x86-64 -g -O0 -fpre-include=/usr/include/finclude/math-vector-fortran.h
REM seed -2055052469 -1129585584 -552346502 -1506787526 1375128799 -765681890 667762392 1454395416 -274271767 -1461420453 -203221334 -270264705 -887204038 -1189231356 309706312 -510726936 1427239473 1915646497 -165251211 -243833920 326918920 -843749119 -2138152578 825594853 -1254616936 402076028 -2067504313 616925331 -1476900873 -1731966287 127630781 771228472 -779137911
REM
CELL 1.54180   50.00000   50.00000   50.00000   90.00000   90.00000   90.00000
LATT -1
SFAC C  
C      1  0.5111650000000  0.4325990000000  0.5103820000000 1.0
C      1  0.5118130000000  0.4309560000000  0.4786610000000 1.0
C      1  0.4816060000000  0.4382470000000  0.5069110000000 1.0
C      1  0.5147930000000  0.5650310000000  0.4785300000000 1.0
C      1  0.5027350000000  0.5590000000000  0.5182880000000 1.0
C      1  0.4832990000000  0.5697990000000  0.4938040000000 1.0
C      1  0.5104360000000  0.4659950000000  0.5588920000000 1.0
C      1  0.5512780000000  0.4689830000000  0.4614630000000 1.0
C      1  0.4478060000000  0.4725800000000  0.4840270000000 1.0
C      1  0.5058220000000  0.5239020000000  0.4357160000000 1.0
C      1  0.5420000000000  0.5244130000000  0.5379610000000 1.0
C      1  0.4416840000000  0.5311150000000  0.5261690000000 1.0
C      1  0.4607770000000  0.5591970000000  0.4431930000000 1.0
C      1  0.4720640000000  0.5557480000000  0.5627920000000 1.0
C      1  0.5719720000000  0.5603560000000  0.4942980000000 1.0
C      1  0.4610760000000  0.4454650000000  0.5515150000000 1.0
C      1  0.4719050000000  0.4392470000000  0.4427240000000 1.0
C      1  0.5623420000000  0.4452120000000  0.5024530000000 1.0
C      1  0.5907490000000  0.4563150000000  0.4553940000000 1.0
C      1  0.4233770000000  0.4512650000000  0.4520690000000 1.0
C      1  0.4951870000000  0.4471790000000  0.5931550000000 1.0
C      1  0.5790060000000  0.5521370000000  0.5446620000000 1.0
C      1  0.4178030000000  0.5519800000000  0.5535090000000 1.0
C      1  0.4947470000000  0.5444770000000  0.4009020000000 1.0
C      1  0.5596690000000  0.4870390000000  0.5306310000000 1.0
C      1  0.4902180000000  0.4847630000000  0.4245100000000 1.0
C      1  0.4392760000000  0.4907270000000  0.5439870000000 1.0
C      1  0.5731870000000  0.5184090000000  0.4720800000000 1.0
C      1  0.4939470000000  0.5104870000000  0.5767220000000 1.0
C      1  0.4376410000000  0.5165580000000  0.4600880000000 1.0
C      1  0.4590770000000  0.4851310000000  0.5223470000000 1.0
C      1  0.5345240000000  0.4786820000000  0.5206890000000 1.0
C      1  0.5031640000000  0.4751230000000  0.4493250000000 1.0
C      1  0.4551190000000  0.5281000000000  0.4823960000000 1.0
C      1  0.5373440000000  0.5204960000000  0.4692300000000 1.0
C      1  0.5020360000000  0.5178310000000  0.5483310000000 1.0
C      1  0.5264030000000  0.5266340000000  0.3994110000000 1.0
C      1  0.4001050000000  0.5351660000000  0.5267050000000 1.0
C      1  0.5679840000000  0.5303060000000  0.5702520000000 1.0
C      1  0.5280110000000  0.4619530000000  0.5966480000000 1.0
C      1  0.4066590000000  0.4697620000000  0.4766850000000 1.0
C      1  0.5748860000000  0.4725020000000  0.4270670000000 1.0
C      1  0.4447180000000  0.4793990000000  0.5745440000000 1.0
C      1  0.5859920000000  0.4808840000000  0.5143120000000 1.0
C      1  0.4603420000000  0.4766720000000  0.4179250000000 1.0
C      1  0.4445690000000  0.5203830000000  0.4282260000000 1.0
C      1  0.5935690000000  0.5245030000000  0.4977450000000 1.0
C      1  0.4620710000000  0.5207810000000  0.5875210000000 1.0
C      1  0.5412160000000  0.4216310000000  0.4748560000000 1.0
C      1  0.4657270000000  0.4263900000000  0.4844490000000 1.0
C      1  0.5001990000000  0.4205960000000  0.5401090000000 1.0
C      1  0.5306260000000  0.5711750000000  0.5215780000000 1.0
C      1  0.4653750000000  0.5778900000000  0.5210350000000 1.0
C      1  0.5036650000000  0.5749640000000  0.4517930000000 1.0
C      1  0.5511370000000  0.4632950000000  0.5688090000000 1.0
C      1  0.5393760000000  0.4687700000000  0.4212380000000 1.0
C      1  0.4143600000000  0.4691120000000  0.5118930000000 1.0
C      1  0.5470940000000  0.5277600000000  0.4290390000000 1.0
C      1  0.5330260000000  0.5281720000000  0.5787940000000 1.0
C      1  0.4152120000000  0.5345190000000  0.4937830000000 1.0
C      1  0.4493900000000  0.4533740000000  0.4328540000000 1.0
C      1  0.4644100000000  0.4555190000000  0.5783590000000 1.0
C      1  0.5842290000000  0.4603990000000  0.4907090000000 1.0
C      1  0.4470940000000  0.5452090000000  0.5734570000000 1.0
C      1  0.4636050000000  0.5431160000000  0.4190760000000 1.0
C      1  0.5899240000000  0.5499130000000  0.5147030000000 1.0
C      1  0.5481120000000  0.5539770000000  0.5413570000000 1.0
C      1  0.5091850000000  0.5545230000000  0.4282000000000 1.0
C      1  0.4368620000000  0.5619850000000  0.5274520000000 1.0
C      1  0.5614230000000  0.4400220000000  0.4572030000000 1.0
C      1  0.5096780000000  0.4362430000000  0.5657810000000 1.0
C      1  0.4398680000000  0.4435680000000  0.4780700000000 1.0
C      1  0.5439600000000  0.4169140000000  0.5313400000000 1.0
C      1  0.5041820000000  0.4124170000000  0.4418130000000 1.0
C      1  0.4463620000000  0.4204360000000  0.5211760000000 1.0
C      1  0.5505160000000  0.5834920000000  0.4666150000000 1.0
C      1  0.5083980000000  0.5759390000000  0.5567930000000 1.0
C      1  0.4520200000000  0.5879180000000  0.4725490000000 1.0
C      1  0.4890890000000  0.5228760000000  0.4585830000000 1.0
C      1  0.4675720000000  0.5260920000000  0.5258790000000 1.0
C      1  0.5332570000000  0.5248950000000  0.5106030000000 1.0
C      1  0.4963520000000  0.4726890000000  0.5371210000000 1.0
C      1  0.4770400000000  0.4716230000000  0.4819590000000 1.0
C      1  0.5319790000000  0.4707850000000  0.4795340000000 1.0
C      1  0.4837460000000  0.5906410000000  0.5425960000000 1.0
C      1  0.5422780000000  0.5897160000000  0.4984270000000 1.0
C      1  0.4795810000000  0.5945860000000  0.4556540000000 1.0
C      1  0.4813000000000  0.4052860000000  0.4655180000000 1.0
C      1  0.5486660000000  0.4055480000000  0.5016610000000 1.0
C      1  0.4716410000000  0.4074760000000  0.5371280000000 1.0
C      1  0.5181150000000  0.4971050000000  0.4147350000000 1.0
C      1  0.4180330000000  0.5038180000000  0.5221310000000 1.0
C      1  0.5549930000000  0.4981360000000  0.5595370000000 1.0
C      1  0.5236280000000  0.4931710000000  0.5789790000000 1.0
C      1  0.4240050000000  0.5001230000000  0.4855030000000 1.0
C      1  0.5624930000000  0.4986760000000  0.4439770000000 1.0
C      1  0.5115810000000  0.5513950000000  0.5763150000000 1.0
C      1  0.5460180000000  0.5557850000000  0.4482710000000 1.0
C      1  0.4301180000000  0.5615340000000  0.4782890000000 1.0
C      1  0.5228370000000  0.4406870000000  0.4355550000000 1.0
C      1  0.5591520000000  0.4392970000000  0.5483300000000 1.0
C      1  0.4263670000000  0.4443970000000  0.5279090000000 1.0
C      1  0.4945780000000  0.4913000000000  0.4945940000000 1.0
C      1  0.5082280000000  0.4938160000000  0.5233720000000 1.0
C      1  0.5149650000000  0.4930100000000  0.4727870000000 1.0
C      1  0.4734960000000  0.5113330000000  0.5019880000000 1.0
C      1  0.5089520000000  0.5343230000000  0.4762580000000 1.0
C      1  0.5036240000000  0.5309040000000  0.5044630000000 1.0
C      1  0.4918670000000  0.4504590000000  0.4621760000000 1.0
C      1  0.4724100000000  0.4580880000000  0.5273540000000 1.0
C      1  0.5341190000000  0.4549570000000  0.5048830000000 1.0
C      1  0.4871180000000  0.5430400000000  0.5409920000000 1.0
C      1  0.4706150000000  0.5503510000000  0.4703060000000 1.0
C      1  0.5458230000000  0.5486810000000  0.4896160000000 1.0
C      1  0.4452500000000  0.4991610000000  0.5947560000000 1.0
C      1  0.6041250000000  0.5019690000000  0.5107700000000 1.0
C      1  0.4428000000000  0.4976740000000  0.4117620000000 1.0
END
