TITL C-862131-2149-435 0.0888226531156355 125000 -648.045282976963 0 0 112 (C3) n - 1
REM
REM in /home/nfs/bkarasulu/CARBON/AIRSS/Generating-Clusters/TERSOFF/Higher-Symm/FIRE-HFTN
REM
REM
REM
REM
REM
REM ./C.cell (b20cbc046b6831c77cfcea5457e17084)
REM AIRSS Version 0.9.1 bugfix July 2018 build 013d7b7c2542+ Fri, 06 Jul 2018 19:26:36 +0100
REM compiler GCC version 9.2.1 20190827 (Red Hat 9.2.1-1)
REM options -cpp -mtune=generic -march=x86-64 -g -O0 -fpre-include=/usr/include/finclude/math-vector-fortran.h
REM seed -234613484 -934710350 -233825388 -1622741369 783521409 1295240405 -2014359337 751334113 1647502400 -1721466550 1939529714 -1611022039 -429801399 -1354490953 -1686236575 -1700945480 81080656 -1784490092 1024174696 1296341496 -1007981235 -583180501 328099653 1288025523 1230779105 219283096 -668609870 37672457 -1481199440 1724808937 -1242445356 2088387096 744432303
REM
CELL 1.54180   50.00000   50.00000   50.00000   90.00000   90.00000   90.00000
LATT -1
SFAC C  
C      1  0.5782030000000  0.5306540000000  0.5118280000000 1.0
C      1  0.5782020000000  0.4741360000000  0.5209360000000 1.0
C      1  0.5782030000000  0.4945070000000  0.4674360000000 1.0
C      1  0.4959390000000  0.4015810000000  0.4876900000000 1.0
C      1  0.4959400000000  0.5595770000000  0.4212240000000 1.0
C      1  0.4959390000000  0.5381400000000  0.5912850000000 1.0
C      1  0.4501870000000  0.4860050000000  0.5249610000000 1.0
C      1  0.4501870000000  0.4850880000000  0.4757010000000 1.0
C      1  0.4501870000000  0.5282060000000  0.4995370000000 1.0
C      1  0.5459910000000  0.5623500000000  0.5836050000000 1.0
C      1  0.5459900000000  0.3961270000000  0.5124970000000 1.0
C      1  0.5459920000000  0.5408200000000  0.4040980000000 1.0
C      1  0.4687730000000  0.4497580000000  0.4434500000000 1.0
C      1  0.4687730000000  0.5738010000000  0.4850660000000 1.0
C      1  0.4687720000000  0.4757400000000  0.5716830000000 1.0
C      1  0.4374260000000  0.4455400000000  0.4412240000000 1.0
C      1  0.4374270000000  0.5778390000000  0.4825260000000 1.0
C      1  0.4374260000000  0.4759210000000  0.5764490000000 1.0
C      1  0.4380190000000  0.4372780000000  0.5302390000000 1.0
C      1  0.4380200000000  0.5048800000000  0.4308630000000 1.0
C      1  0.4380200000000  0.5571410000000  0.5390970000000 1.0
C      1  0.5121290000000  0.5373330000000  0.4286980000000 1.0
C      1  0.5121290000000  0.5427890000000  0.5682840000000 1.0
C      1  0.5121290000000  0.4191760000000  0.5032170000000 1.0
C      1  0.5345590000000  0.4006400000000  0.4536820000000 1.0
C      1  0.5345600000000  0.5894990000000  0.4374140000000 1.0
C      1  0.5345590000000  0.5091580000000  0.6091040000000 1.0
C      1  0.4778800000000  0.5109590000000  0.3998880000000 1.0
C      1  0.4778790000000  0.5809270000000  0.5598490000000 1.0
C      1  0.4778790000000  0.4074120000000  0.5404620000000 1.0
C      1  0.5419350000000  0.5742990000000  0.4613760000000 1.0
C      1  0.5419340000000  0.4960060000000  0.5839600000000 1.0
C      1  0.5419350000000  0.4289920000000  0.4548640000000 1.0
C      1  0.4990470000000  0.4486550000000  0.4378480000000 1.0
C      1  0.4990470000000  0.5792050000000  0.4869130000000 1.0
C      1  0.4990460000000  0.4714380000000  0.5754390000000 1.0
C      1  0.5202870000000  0.4820320000000  0.4041530000000 1.0
C      1  0.5202870000000  0.5916970000000  0.5326660000000 1.0
C      1  0.5202860000000  0.4255690000000  0.5633810000000 1.0
C      1  0.5691450000000  0.4398870000000  0.4629980000000 1.0
C      1  0.5691460000000  0.5618080000000  0.4667440000000 1.0
C      1  0.5691450000000  0.4976030000000  0.5704580000000 1.0
C      1  0.5919170000000  0.5172070000000  0.4554490000000 1.0
C      1  0.5919170000000  0.5296850000000  0.5374800000000 1.0
C      1  0.5919160000000  0.4524050000000  0.5072710000000 1.0
C      1  0.4653970000000  0.5885060000000  0.5119860000000 1.0
C      1  0.4653960000000  0.4450740000000  0.5709570000000 1.0
C      1  0.4653970000000  0.4657190000000  0.4172560000000 1.0
C      1  0.5097840000000  0.5853070000000  0.4222950000000 1.0
C      1  0.5097830000000  0.5243480000000  0.6130330000000 1.0
C      1  0.5097830000000  0.3896440000000  0.4648710000000 1.0
C      1  0.4061710000000  0.5056880000000  0.5499050000000 1.0
C      1  0.4061710000000  0.4536440000000  0.4802740000000 1.0
C      1  0.4061710000000  0.5399680000000  0.4700180000000 1.0
C      1  0.5204250000000  0.5327440000000  0.4557940000000 1.0
C      1  0.5204240000000  0.5216190000000  0.5507620000000 1.0
C      1  0.5204240000000  0.4449360000000  0.4936440000000 1.0
C      1  0.5235900000000  0.3882240000000  0.5291900000000 1.0
C      1  0.5235910000000  0.5303150000000  0.3889070000000 1.0
C      1  0.5235910000000  0.5807590000000  0.5821030000000 1.0
C      1  0.4194300000000  0.5560600000000  0.4907160000000 1.0
C      1  0.4194300000000  0.4797180000000  0.5534930000000 1.0
C      1  0.4194300000000  0.4635220000000  0.4559900000000 1.0
C      1  0.5523250000000  0.4823750000000  0.5074660000000 1.0
C      1  0.5523250000000  0.5020530000000  0.4813060000000 1.0
C      1  0.5523250000000  0.5148700000000  0.5114280000000 1.0
C      1  0.4584360000000  0.5393350000000  0.4500700000000 1.0
C      1  0.4584350000000  0.5232800000000  0.5593320000000 1.0
C      1  0.4584350000000  0.4366840000000  0.4907970000000 1.0
C      1  0.4274670000000  0.5406730000000  0.5165850000000 1.0
C      1  0.4274660000000  0.4650080000000  0.5272330000000 1.0
C      1  0.4274670000000  0.4936190000000  0.4563810000000 1.0
C      1  0.5536330000000  0.5310920000000  0.4301360000000 1.0
C      1  0.5536320000000  0.5446640000000  0.5621610000000 1.0
C      1  0.5536320000000  0.4235410000000  0.5079030000000 1.0
C      1  0.5067320000000  0.4437440000000  0.5817940000000 1.0
C      1  0.5067330000000  0.4569990000000  0.4106860000000 1.0
C      1  0.5067330000000  0.5985550000000  0.5077190000000 1.0
C      1  0.5206190000000  0.5593170000000  0.4774980000000 1.0
C      1  0.5206190000000  0.4895360000000  0.5629230000000 1.0
C      1  0.5206190000000  0.4504450000000  0.4597790000000 1.0
C      1  0.5009210000000  0.4829760000000  0.5098860000000 1.0
C      1  0.5009210000000  0.4996570000000  0.4806160000000 1.0
C      1  0.5009210000000  0.5166650000000  0.5096970000000 1.0
C      1  0.5260750000000  0.5038180000000  0.4650850000000 1.0
C      1  0.5260750000000  0.5280350000000  0.5210670000000 1.0
C      1  0.5260750000000  0.4674450000000  0.5140480000000 1.0
C      1  0.5666540000000  0.5551610000000  0.4977580000000 1.0
C      1  0.5666540000000  0.4740680000000  0.5491950000000 1.0
C      1  0.5666540000000  0.4700690000000  0.4532480000000 1.0
C      1  0.5070000000000  0.5075200000000  0.3972220000000 1.0
C      1  0.5070000000000  0.5849550000000  0.5582040000000 1.0
C      1  0.5069990000000  0.4068230000000  0.5447730000000 1.0
C      1  0.5362480000000  0.4758600000000  0.4526950000000 1.0
C      1  0.5362480000000  0.5527440000000  0.5030500000000 1.0
C      1  0.5362480000000  0.4706930000000  0.5444560000000 1.0
C      1  0.4604220000000  0.4297870000000  0.5472840000000 1.0
C      1  0.4604230000000  0.4938640000000  0.4158540000000 1.0
C      1  0.4604230000000  0.5756480000000  0.5370610000000 1.0
C      1  0.4678680000000  0.5334190000000  0.5851640000000 1.0
C      1  0.4678670000000  0.4092430000000  0.4866610000000 1.0
C      1  0.4678680000000  0.5566370000000  0.4283740000000 1.0
C      1  0.5760170000000  0.4335640000000  0.4916030000000 1.0
C      1  0.5760170000000  0.5401960000000  0.4469660000000 1.0
C      1  0.5760170000000  0.5255370000000  0.5616310000000 1.0
C      1  0.4628550000000  0.4586810000000  0.4719480000000 1.0
C      1  0.4628550000000  0.5446600000000  0.4785440000000 1.0
C      1  0.4628550000000  0.4959580000000  0.5497070000000 1.0
C      1  0.4061150000000  0.5211530000000  0.5249260000000 1.0
C      1  0.4061150000000  0.4675440000000  0.5061570000000 1.0
C      1  0.4061150000000  0.5106030000000  0.4691150000000 1.0
C      1  0.4537870000000  0.4997660000000  0.5000660000000 1.0
END
