TITL C-862503-991-302 4.06700346256564e-06 125000 -1008.28017400859 0 0 168 (C4) n - 1
REM
REM in /home/nfs/bkarasulu/CARBON/AIRSS/Generating-Clusters/TERSOFF/Higher-Symm/FIRE-HFTN
REM
REM
REM
REM
REM
REM ./C.cell (b20cbc046b6831c77cfcea5457e17084)
REM AIRSS Version 0.9.1 bugfix July 2018 build 013d7b7c2542+ Fri, 06 Jul 2018 19:26:36 +0100
REM compiler GCC version 9.2.1 20190827 (Red Hat 9.2.1-1)
REM options -cpp -mtune=generic -march=x86-64 -g -O0 -fpre-include=/usr/include/finclude/math-vector-fortran.h
REM seed 1499132875 220030071 -1359210066 475384204 210387374 775628580 -791772651 -1158710128 -1916519558 673244080 755486295 1336725391 993638273 1681883519 -1766406972 1102396066 -751566395 -945210375 612433753 -267935136 1674746451 -878961591 -835579295 22892603 -1338096715 367418917 1043373521 -889344708 -981969828 592993776 62980217 301724443 -149959741
REM
CELL 1.54180   50.00000   50.00000   50.00000   90.00000   90.00000   90.00000
LATT -1
SFAC C  
C      1  0.3785330000000  0.5425620000000  0.5151290000000 1.0
C      1  0.5151290000000  0.5425620000000  0.6214670000000 1.0
C      1  0.6214670000000  0.5425620000000  0.4848710000000 1.0
C      1  0.4848710000000  0.5425620000000  0.3785330000000 1.0
C      1  0.6208910000000  0.5434410000000  0.5133520000000 1.0
C      1  0.4866480000000  0.5434410000000  0.6208910000000 1.0
C      1  0.3791090000000  0.5434410000000  0.4866480000000 1.0
C      1  0.5133520000000  0.5434410000000  0.3791090000000 1.0
C      1  0.4858290000000  0.4056840000000  0.4647750000000 1.0
C      1  0.4647750000000  0.4056840000000  0.5141710000000 1.0
C      1  0.5141710000000  0.4056840000000  0.5352250000000 1.0
C      1  0.5352250000000  0.4056840000000  0.4858290000000 1.0
C      1  0.5144410000000  0.4102740000000  0.4650860000000 1.0
C      1  0.5349140000000  0.4102740000000  0.5144410000000 1.0
C      1  0.4855590000000  0.4102740000000  0.5349140000000 1.0
C      1  0.4650860000000  0.4102740000000  0.4855590000000 1.0
C      1  0.5611140000000  0.4160870000000  0.5259710000000 1.0
C      1  0.5259710000000  0.4160870000000  0.4388860000000 1.0
C      1  0.4388860000000  0.4160870000000  0.4740290000000 1.0
C      1  0.4740290000000  0.4160870000000  0.5611140000000 1.0
C      1  0.4381010000000  0.4121520000000  0.5261540000000 1.0
C      1  0.4738460000000  0.4121520000000  0.4381010000000 1.0
C      1  0.5618990000000  0.4121520000000  0.4738460000000 1.0
C      1  0.5261540000000  0.4121520000000  0.5618990000000 1.0
C      1  0.5774640000000  0.5370060000000  0.5394980000000 1.0
C      1  0.5394980000000  0.5370060000000  0.4225360000000 1.0
C      1  0.4225360000000  0.5370060000000  0.4605020000000 1.0
C      1  0.4605020000000  0.5370060000000  0.5774640000000 1.0
C      1  0.4204540000000  0.5350680000000  0.5433740000000 1.0
C      1  0.4566260000000  0.5350680000000  0.4204540000000 1.0
C      1  0.5795460000000  0.5350680000000  0.4566260000000 1.0
C      1  0.5433740000000  0.5350680000000  0.5795460000000 1.0
C      1  0.4215480000000  0.4883330000000  0.3996970000000 1.0
C      1  0.3996970000000  0.4883330000000  0.5784520000000 1.0
C      1  0.5784520000000  0.4883330000000  0.6003030000000 1.0
C      1  0.6003030000000  0.4883330000000  0.4215480000000 1.0
C      1  0.5795890000000  0.4891150000000  0.4010790000000 1.0
C      1  0.5989210000000  0.4891150000000  0.5795890000000 1.0
C      1  0.4204110000000  0.4891150000000  0.5989210000000 1.0
C      1  0.4010790000000  0.4891150000000  0.4204110000000 1.0
C      1  0.3923390000000  0.4742900000000  0.4708430000000 1.0
C      1  0.4708430000000  0.4742900000000  0.6076610000000 1.0
C      1  0.6076610000000  0.4742900000000  0.5291570000000 1.0
C      1  0.5291570000000  0.4742900000000  0.3923390000000 1.0
C      1  0.6078840000000  0.4729050000000  0.4714320000000 1.0
C      1  0.5285680000000  0.4729050000000  0.6078840000000 1.0
C      1  0.3921160000000  0.4729050000000  0.5285680000000 1.0
C      1  0.4714320000000  0.4729050000000  0.3921160000000 1.0
C      1  0.4846890000000  0.4978430000000  0.5951290000000 1.0
C      1  0.5951290000000  0.4978430000000  0.5153110000000 1.0
C      1  0.5153110000000  0.4978430000000  0.4048710000000 1.0
C      1  0.4048710000000  0.4978430000000  0.4846890000000 1.0
C      1  0.5157130000000  0.4971260000000  0.5955930000000 1.0
C      1  0.4044070000000  0.4971260000000  0.5157130000000 1.0
C      1  0.4842870000000  0.4971260000000  0.4044070000000 1.0
C      1  0.5955930000000  0.4971260000000  0.4842870000000 1.0
C      1  0.4012050000000  0.4696550000000  0.4421230000000 1.0
C      1  0.4421230000000  0.4696550000000  0.5987950000000 1.0
C      1  0.5987950000000  0.4696550000000  0.5578770000000 1.0
C      1  0.5578770000000  0.4696550000000  0.4012050000000 1.0
C      1  0.5997260000000  0.4683230000000  0.4428330000000 1.0
C      1  0.5571670000000  0.4683230000000  0.5997260000000 1.0
C      1  0.4002740000000  0.4683230000000  0.5571670000000 1.0
C      1  0.4428330000000  0.4683230000000  0.4002740000000 1.0
C      1  0.5365540000000  0.5174580000000  0.4437770000000 1.0
C      1  0.4437770000000  0.5174580000000  0.4634460000000 1.0
C      1  0.4634460000000  0.5174580000000  0.5562230000000 1.0
C      1  0.5562230000000  0.5174580000000  0.5365540000000 1.0
C      1  0.4608430000000  0.5159750000000  0.4417920000000 1.0
C      1  0.5582080000000  0.5159750000000  0.4608430000000 1.0
C      1  0.5391570000000  0.5159750000000  0.5582080000000 1.0
C      1  0.4417920000000  0.5159750000000  0.5391570000000 1.0
C      1  0.4302960000000  0.3983230000000  0.4523510000000 1.0
C      1  0.4523510000000  0.3983230000000  0.5697040000000 1.0
C      1  0.5697040000000  0.3983230000000  0.5476490000000 1.0
C      1  0.5476490000000  0.3983230000000  0.4302960000000 1.0
C      1  0.5684880000000  0.3960950000000  0.4501560000000 1.0
C      1  0.5498440000000  0.3960950000000  0.5684880000000 1.0
C      1  0.4315120000000  0.3960950000000  0.5498440000000 1.0
C      1  0.4501560000000  0.3960950000000  0.4315120000000 1.0
C      1  0.4858740000000  0.6307610000000  0.4636460000000 1.0
C      1  0.4636460000000  0.6307610000000  0.5141260000000 1.0
C      1  0.5141260000000  0.6307610000000  0.5363540000000 1.0
C      1  0.5363540000000  0.6307610000000  0.4858740000000 1.0
C      1  0.5156230000000  0.6392220000000  0.4645270000000 1.0
C      1  0.5354730000000  0.6392220000000  0.5156230000000 1.0
C      1  0.4843770000000  0.6392220000000  0.5354730000000 1.0
C      1  0.4645270000000  0.6392220000000  0.4843770000000 1.0
C      1  0.5167610000000  0.5996690000000  0.5435990000000 1.0
C      1  0.5435990000000  0.5996690000000  0.4832390000000 1.0
C      1  0.4832390000000  0.5996690000000  0.4564010000000 1.0
C      1  0.4564010000000  0.5996690000000  0.5167610000000 1.0
C      1  0.4809750000000  0.6045680000000  0.5427460000000 1.0
C      1  0.4572540000000  0.6045680000000  0.4809750000000 1.0
C      1  0.5190250000000  0.6045680000000  0.4572540000000 1.0
C      1  0.5427460000000  0.6045680000000  0.5190250000000 1.0
C      1  0.4316880000000  0.4442520000000  0.4720440000000 1.0
C      1  0.4720440000000  0.4442520000000  0.5683120000000 1.0
C      1  0.5683120000000  0.4442520000000  0.5279560000000 1.0
C      1  0.5279560000000  0.4442520000000  0.4316880000000 1.0
C      1  0.5689070000000  0.4414700000000  0.4723430000000 1.0
C      1  0.5276570000000  0.4414700000000  0.5689070000000 1.0
C      1  0.4310930000000  0.4414700000000  0.5276570000000 1.0
C      1  0.4723430000000  0.4414700000000  0.4310930000000 1.0
C      1  0.4726070000000  0.5264220000000  0.6023400000000 1.0
C      1  0.6023400000000  0.5264220000000  0.5273930000000 1.0
C      1  0.5273930000000  0.5264220000000  0.3976600000000 1.0
C      1  0.3976600000000  0.5264220000000  0.4726070000000 1.0
C      1  0.5289050000000  0.5248590000000  0.6033400000000 1.0
C      1  0.3966600000000  0.5248590000000  0.5289050000000 1.0
C      1  0.4710950000000  0.5248590000000  0.3966600000000 1.0
C      1  0.6033400000000  0.5248590000000  0.4710950000000 1.0
C      1  0.4819600000000  0.4664070000000  0.5440320000000 1.0
C      1  0.5440320000000  0.4664070000000  0.5180400000000 1.0
C      1  0.5180400000000  0.4664070000000  0.4559680000000 1.0
C      1  0.4559680000000  0.4664070000000  0.4819600000000 1.0
C      1  0.5183710000000  0.4656340000000  0.5438280000000 1.0
C      1  0.4561720000000  0.4656340000000  0.5183710000000 1.0
C      1  0.4816290000000  0.4656340000000  0.4561720000000 1.0
C      1  0.5438280000000  0.4656340000000  0.4816290000000 1.0
C      1  0.5473230000000  0.5633470000000  0.5698040000000 1.0
C      1  0.5698040000000  0.5633470000000  0.4526770000000 1.0
C      1  0.4526770000000  0.5633470000000  0.4301960000000 1.0
C      1  0.4301960000000  0.5633470000000  0.5473230000000 1.0
C      1  0.4523720000000  0.5652700000000  0.5693920000000 1.0
C      1  0.4306080000000  0.5652700000000  0.4523720000000 1.0
C      1  0.5476280000000  0.5652700000000  0.4306080000000 1.0
C      1  0.5693920000000  0.5652700000000  0.5476280000000 1.0
C      1  0.4242400000000  0.4515150000000  0.4439910000000 1.0
C      1  0.4439910000000  0.4515150000000  0.5757600000000 1.0
C      1  0.5757600000000  0.4515150000000  0.5560090000000 1.0
C      1  0.5560090000000  0.4515150000000  0.4242400000000 1.0
C      1  0.5765150000000  0.4502670000000  0.4441470000000 1.0
C      1  0.5558530000000  0.4502670000000  0.5765150000000 1.0
C      1  0.4234850000000  0.4502670000000  0.5558530000000 1.0
C      1  0.4441470000000  0.4502670000000  0.4234850000000 1.0
C      1  0.5546610000000  0.5706550000000  0.4775120000000 1.0
C      1  0.4775120000000  0.5706550000000  0.4453390000000 1.0
C      1  0.4453390000000  0.5706550000000  0.5224880000000 1.0
C      1  0.5224880000000  0.5706550000000  0.5546610000000 1.0
C      1  0.4464020000000  0.5752360000000  0.4760690000000 1.0
C      1  0.5239310000000  0.5752360000000  0.4464020000000 1.0
C      1  0.5535980000000  0.5752360000000  0.5239310000000 1.0
C      1  0.4760690000000  0.5752360000000  0.5535980000000 1.0
C      1  0.4787630000000  0.4941440000000  0.5634460000000 1.0
C      1  0.5634460000000  0.4941440000000  0.5212370000000 1.0
C      1  0.5212370000000  0.4941440000000  0.4365540000000 1.0
C      1  0.4365540000000  0.4941440000000  0.4787630000000 1.0
C      1  0.5227490000000  0.4929930000000  0.5642270000000 1.0
C      1  0.4357730000000  0.4929930000000  0.5227490000000 1.0
C      1  0.4772510000000  0.4929930000000  0.4357730000000 1.0
C      1  0.5642270000000  0.4929930000000  0.4772510000000 1.0
C      1  0.4654850000000  0.5551400000000  0.4849780000000 1.0
C      1  0.4849780000000  0.5551400000000  0.5345150000000 1.0
C      1  0.5345150000000  0.5551400000000  0.5150220000000 1.0
C      1  0.5150220000000  0.5551400000000  0.4654850000000 1.0
C      1  0.5347810000000  0.5489400000000  0.4867770000000 1.0
C      1  0.5132230000000  0.5489400000000  0.5347810000000 1.0
C      1  0.4652190000000  0.5489400000000  0.5132230000000 1.0
C      1  0.4867770000000  0.5489400000000  0.4652190000000 1.0
C      1  0.4861730000000  0.4502070000000  0.4050800000000 1.0
C      1  0.4050800000000  0.4502070000000  0.5138270000000 1.0
C      1  0.5138270000000  0.4502070000000  0.5949200000000 1.0
C      1  0.5949200000000  0.4502070000000  0.4861730000000 1.0
C      1  0.5146880000000  0.4513030000000  0.4055900000000 1.0
C      1  0.5944100000000  0.4513030000000  0.5146880000000 1.0
C      1  0.4853120000000  0.4513030000000  0.5944100000000 1.0
C      1  0.4055900000000  0.4513030000000  0.4853120000000 1.0
END
