TITL C-862503-991-1497 2.04789295084914e-05 125000 -134.259904118552 0 0 25 (C2v) n - 1
REM
REM in /home/nfs/bkarasulu/CARBON/AIRSS/Generating-Clusters/TERSOFF/Higher-Symm/FIRE-HFTN
REM
REM
REM
REM
REM
REM ./C.cell (b20cbc046b6831c77cfcea5457e17084)
REM AIRSS Version 0.9.1 bugfix July 2018 build 013d7b7c2542+ Fri, 06 Jul 2018 19:26:36 +0100
REM compiler GCC version 9.2.1 20190827 (Red Hat 9.2.1-1)
REM options -cpp -mtune=generic -march=x86-64 -g -O0 -fpre-include=/usr/include/finclude/math-vector-fortran.h
REM seed -1251663190 -1584552736 -967319888 -857673424 601000647 258195546 493832610 -682952087 1050103518 -1318124031 -1734371678 -2063583239 125633119 1677544605 -944635952 -1546741594 -922700426 -1577794550 1925821208 546287577 -2094473506 1225615059 -1917487951 -183276444 -60241375 -380733403 -331381481 -2094260312 776512861 -1652525936 192636141 440671180 482934982
REM
CELL 1.54180   50.00000   50.00000   50.00000   90.00000   90.00000   90.00000
LATT -1
SFAC C  
C      1  0.5105680000000  0.4499450000000  0.5157540000000 1.0
C      1  0.5073270000000  0.4866300000000  0.4503160000000 1.0
C      1  0.5105670000000  0.5519270000000  0.4841690000000 1.0
C      1  0.5073270000000  0.5152410000000  0.5496070000000 1.0
C      1  0.5073270000000  0.4512900000000  0.4856560000000 1.0
C      1  0.5105680000000  0.4851420000000  0.5509520000000 1.0
C      1  0.5073270000000  0.5505810000000  0.5142670000000 1.0
C      1  0.5105680000000  0.5167290000000  0.4489710000000 1.0
C      1  0.4756240000000  0.5535280000000  0.5163690000000 1.0
C      1  0.4785270000000  0.4847840000000  0.5522230000000 1.0
C      1  0.4756250000000  0.4483430000000  0.4835540000000 1.0
C      1  0.4785270000000  0.5170870000000  0.4476990000000 1.0
C      1  0.4785270000000  0.5531980000000  0.4838110000000 1.0
C      1  0.4756240000000  0.4845280000000  0.4473690000000 1.0
C      1  0.4785280000000  0.4486730000000  0.5161120000000 1.0
C      1  0.4756240000000  0.5173430000000  0.5525540000000 1.0
C      1  0.4644550000000  0.4668120000000  0.5340840000000 1.0
C      1  0.4644550000000  0.5350580000000  0.4658390000000 1.0
C      1  0.4616310000000  0.5341780000000  0.5332050000000 1.0
C      1  0.4616320000000  0.4676920000000  0.4667180000000 1.0
C      1  0.5179750000000  0.4768560000000  0.4758820000000 1.0
C      1  0.5215850000000  0.5261440000000  0.4747530000000 1.0
C      1  0.5215850000000  0.4757270000000  0.5251700000000 1.0
C      1  0.5179750000000  0.5250150000000  0.5240410000000 1.0
C      1  0.5266150000000  0.5009360000000  0.4999620000000 1.0
END
