TITL C-862501-1041-87 -1.79149947842775e-05 125000 -711.802694002971 0 0 126 (C6) n - 1
REM
REM in /home/nfs/bkarasulu/CARBON/AIRSS/Generating-Clusters/TERSOFF/Higher-Symm/FIRE-HFTN
REM
REM
REM
REM
REM
REM ./C.cell (b20cbc046b6831c77cfcea5457e17084)
REM AIRSS Version 0.9.1 bugfix July 2018 build 013d7b7c2542+ Fri, 06 Jul 2018 19:26:36 +0100
REM compiler GCC version 9.2.1 20190827 (Red Hat 9.2.1-1)
REM options -cpp -mtune=generic -march=x86-64 -g -O0 -fpre-include=/usr/include/finclude/math-vector-fortran.h
REM seed -538634198 1182642243 1817640359 -355553631 -2140457067 -1819419706 1233057572 -1054061940 1284316170 -1693073524 673050908 15461664 783744604 1720875609 -1320038723 -826391182 -2082518828 1763648352 -1472221901 111355044 -962394052 1416897069 1957154675 -573856906 818742655 1267883196 -1412108102 1750401587 -2085992641 300433707 -445297317 -1417009443 -1869357103
REM
CELL 1.54180   50.00000   50.00000   50.00000   90.00000   90.00000   90.00000
LATT -1
SFAC C  
C      1  0.5964740000000  0.5291840000000  0.4959850000000 1.0
C      1  0.5964740000000  0.5111150000000  0.4727180000000 1.0
C      1  0.5964740000000  0.4819310000000  0.4767340000000 1.0
C      1  0.5964740000000  0.4708160000000  0.5040150000000 1.0
C      1  0.5964740000000  0.4888850000000  0.5272820000000 1.0
C      1  0.5964740000000  0.5180690000000  0.5232660000000 1.0
C      1  0.4311710000000  0.4146000000000  0.5331640000000 1.0
C      1  0.4311710000000  0.4860200000000  0.5905410000000 1.0
C      1  0.4311710000000  0.5714210000000  0.5573770000000 1.0
C      1  0.4311710000000  0.5854000000000  0.4668360000000 1.0
C      1  0.4311710000000  0.5139800000000  0.4094590000000 1.0
C      1  0.4311710000000  0.4285790000000  0.4426230000000 1.0
C      1  0.5055990000000  0.4342430000000  0.4405020000000 1.0
C      1  0.5055990000000  0.4155950000000  0.5271980000000 1.0
C      1  0.5055990000000  0.4813520000000  0.5866960000000 1.0
C      1  0.5055990000000  0.5657570000000  0.5594980000000 1.0
C      1  0.5055990000000  0.5844050000000  0.4728020000000 1.0
C      1  0.5055990000000  0.5186480000000  0.4133040000000 1.0
C      1  0.5439790000000  0.4843160000000  0.4727950000000 1.0
C      1  0.5439790000000  0.4685970000000  0.4999800000000 1.0
C      1  0.5439790000000  0.4842820000000  0.5271850000000 1.0
C      1  0.5439790000000  0.5156840000000  0.5272050000000 1.0
C      1  0.5439790000000  0.5314030000000  0.5000200000000 1.0
C      1  0.5439790000000  0.5157180000000  0.4728150000000 1.0
C      1  0.5034470000000  0.5444220000000  0.5820880000000 1.0
C      1  0.5034470000000  0.5933010000000  0.5025730000000 1.0
C      1  0.5034470000000  0.5488790000000  0.4204860000000 1.0
C      1  0.5034470000000  0.4555780000000  0.4179120000000 1.0
C      1  0.5034470000000  0.4066990000000  0.4974270000000 1.0
C      1  0.5034470000000  0.4511210000000  0.5795140000000 1.0
C      1  0.4148490000000  0.5245120000000  0.4558740000000 1.0
C      1  0.4148490000000  0.4740420000000  0.4567090000000 1.0
C      1  0.4148490000000  0.4495300000000  0.5008350000000 1.0
C      1  0.4148490000000  0.4754880000000  0.5441260000000 1.0
C      1  0.4148490000000  0.5259580000000  0.5432910000000 1.0
C      1  0.4148490000000  0.5504700000000  0.4991650000000 1.0
C      1  0.5338770000000  0.5955890000000  0.5119480000000 1.0
C      1  0.5338770000000  0.5581420000000  0.4231920000000 1.0
C      1  0.5338770000000  0.4625530000000  0.4112430000000 1.0
C      1  0.5338770000000  0.4044110000000  0.4880520000000 1.0
C      1  0.5338770000000  0.4418580000000  0.5768080000000 1.0
C      1  0.5338770000000  0.5374470000000  0.5887570000000 1.0
C      1  0.4938040000000  0.4479380000000  0.4927880000000 1.0
C      1  0.4938040000000  0.4677230000000  0.5414810000000 1.0
C      1  0.4938040000000  0.5197850000000  0.5486930000000 1.0
C      1  0.4938040000000  0.5520620000000  0.5072120000000 1.0
C      1  0.4938040000000  0.5322770000000  0.4585190000000 1.0
C      1  0.4938040000000  0.4802150000000  0.4513070000000 1.0
C      1  0.4250420000000  0.5776130000000  0.4972480000000 1.0
C      1  0.4250420000000  0.5364230000000  0.4314090000000 1.0
C      1  0.4250420000000  0.4588100000000  0.4341610000000 1.0
C      1  0.4250420000000  0.4223870000000  0.5027520000000 1.0
C      1  0.4250420000000  0.4635770000000  0.5685910000000 1.0
C      1  0.4250420000000  0.5411900000000  0.5658390000000 1.0
C      1  0.4888730000000  0.4331350000000  0.4643730000000 1.0
C      1  0.4888730000000  0.4357140000000  0.5400930000000 1.0
C      1  0.4888730000000  0.5025790000000  0.5757200000000 1.0
C      1  0.4888730000000  0.5668650000000  0.5356270000000 1.0
C      1  0.4888730000000  0.5642860000000  0.4599070000000 1.0
C      1  0.4888730000000  0.4974210000000  0.4242800000000 1.0
C      1  0.5339160000000  0.4252190000000  0.4421490000000 1.0
C      1  0.5339160000000  0.4125090000000  0.5358370000000 1.0
C      1  0.5339160000000  0.4872900000000  0.5936880000000 1.0
C      1  0.5339160000000  0.5747810000000  0.5578510000000 1.0
C      1  0.5339160000000  0.5874910000000  0.4641630000000 1.0
C      1  0.5339160000000  0.5127100000000  0.4063120000000 1.0
C      1  0.5117310000000  0.4883120000000  0.4718870000000 1.0
C      1  0.5117310000000  0.4698090000000  0.4960660000000 1.0
C      1  0.5117310000000  0.4814970000000  0.5241790000000 1.0
C      1  0.5117310000000  0.5116880000000  0.5281130000000 1.0
C      1  0.5117310000000  0.5301910000000  0.5039340000000 1.0
C      1  0.5117310000000  0.5185030000000  0.4758210000000 1.0
C      1  0.4352880000000  0.5146260000000  0.5252730000000 1.0
C      1  0.4352880000000  0.5292000000000  0.4999700000000 1.0
C      1  0.4352880000000  0.5145740000000  0.4746970000000 1.0
C      1  0.4352880000000  0.4853740000000  0.4747270000000 1.0
C      1  0.4352880000000  0.4708000000000  0.5000300000000 1.0
C      1  0.4352880000000  0.4854260000000  0.5253030000000 1.0
C      1  0.5785800000000  0.4666500000000  0.4570680000000 1.0
C      1  0.5785800000000  0.4461450000000  0.5074160000000 1.0
C      1  0.5785800000000  0.4794950000000  0.5503480000000 1.0
C      1  0.5785800000000  0.5333500000000  0.5429320000000 1.0
C      1  0.5785800000000  0.5538550000000  0.4925840000000 1.0
C      1  0.5785800000000  0.5205050000000  0.4496520000000 1.0
C      1  0.4609270000000  0.5235890000000  0.4578410000000 1.0
C      1  0.4609270000000  0.4752840000000  0.4584920000000 1.0
C      1  0.4609270000000  0.4516950000000  0.5006510000000 1.0
C      1  0.4609270000000  0.4764110000000  0.5421590000000 1.0
C      1  0.4609270000000  0.5247160000000  0.5415080000000 1.0
C      1  0.4609270000000  0.5483050000000  0.4993490000000 1.0
C      1  0.4606500000000  0.4444110000000  0.5309160000000 1.0
C      1  0.4606500000000  0.4989800000000  0.5636000000000 1.0
C      1  0.4606500000000  0.5545690000000  0.5326830000000 1.0
C      1  0.4606500000000  0.5555890000000  0.4690840000000 1.0
C      1  0.4606500000000  0.5010200000000  0.4364000000000 1.0
C      1  0.4606500000000  0.4454310000000  0.4673170000000 1.0
C      1  0.5459990000000  0.4339510000000  0.5510130000000 1.0
C      1  0.5459990000000  0.5111540000000  0.5827070000000 1.0
C      1  0.5459990000000  0.5772030000000  0.5316940000000 1.0
C      1  0.5459990000000  0.5660490000000  0.4489870000000 1.0
C      1  0.5459990000000  0.4888460000000  0.4172930000000 1.0
C      1  0.5459990000000  0.4227970000000  0.4683060000000 1.0
C      1  0.5671950000000  0.4916490000000  0.4386560000000 1.0
C      1  0.5671950000000  0.4426990000000  0.4765610000000 1.0
C      1  0.5671950000000  0.4510500000000  0.5379040000000 1.0
C      1  0.5671950000000  0.5083510000000  0.5613440000000 1.0
C      1  0.5671950000000  0.5573010000000  0.5234390000000 1.0
C      1  0.5671950000000  0.5489500000000  0.4620960000000 1.0
C      1  0.4429010000000  0.4374830000000  0.5585440000000 1.0
C      1  0.4429010000000  0.5194420000000  0.5834140000000 1.0
C      1  0.4429010000000  0.5819590000000  0.5248690000000 1.0
C      1  0.4429010000000  0.5625170000000  0.4414560000000 1.0
C      1  0.4429010000000  0.4805580000000  0.4165860000000 1.0
C      1  0.4429010000000  0.4180410000000  0.4751310000000 1.0
C      1  0.4772170000000  0.5932290000000  0.5221740000000 1.0
C      1  0.4772170000000  0.5658180000000  0.4303490000000 1.0
C      1  0.4772170000000  0.4725890000000  0.4081750000000 1.0
C      1  0.4772170000000  0.4067710000000  0.4778260000000 1.0
C      1  0.4772170000000  0.4341820000000  0.5696510000000 1.0
C      1  0.4772170000000  0.5274110000000  0.5918250000000 1.0
C      1  0.5484810000000  0.4003130000000  0.5135120000000 1.0
C      1  0.5484810000000  0.4618580000000  0.5930880000000 1.0
C      1  0.5484810000000  0.5615460000000  0.5795760000000 1.0
C      1  0.5484810000000  0.5996870000000  0.4864880000000 1.0
C      1  0.5484810000000  0.5381420000000  0.4069120000000 1.0
C      1  0.5484810000000  0.4384540000000  0.4204240000000 1.0
END
