TITL C-862130-1496-706 3.94539088016009 125000 -569.535971433763 0 0 97 (C3) n - 1
REM
REM in /home/nfs/bkarasulu/CARBON/AIRSS/Generating-Clusters/TERSOFF/Higher-Symm/FIRE-HFTN
REM
REM
REM
REM
REM
REM ./C.cell (b20cbc046b6831c77cfcea5457e17084)
REM AIRSS Version 0.9.1 bugfix July 2018 build 013d7b7c2542+ Fri, 06 Jul 2018 19:26:36 +0100
REM compiler GCC version 9.2.1 20190827 (Red Hat 9.2.1-1)
REM options -cpp -mtune=generic -march=x86-64 -g -O0 -fpre-include=/usr/include/finclude/math-vector-fortran.h
REM seed 59369155 -1288993712 1873917284 536741511 -2017856106 -591676591 456719278 -2001937884 613046601 1663247008 -1874683655 607710589 1390601301 -1378392150 1764694651 -1559919469 -1785008292 1179740227 1695858084 -1397987495 578245195 1113098576 -464841720 2141833148 -1577669242 -1529048231 -1127754148 1551784028 -747426689 -1804325731 -355158432 1157021569 -201806466
REM
CELL 1.54180   50.00000   50.00000   50.00000   90.00000   90.00000   90.00000
LATT -1
SFAC C  
C      1  0.5076300000000  0.4891360000000  0.5282790000000 1.0
C      1  0.5209990000000  0.4891370000000  0.4783580000000 1.0
C      1  0.4710810000000  0.4891360000000  0.4917410000000 1.0
C      1  0.5118420000000  0.5164800000000  0.5365050000000 1.0
C      1  0.5260170000000  0.5164800000000  0.4705970000000 1.0
C      1  0.4618510000000  0.5164790000000  0.4912750000000 1.0
C      1  0.4159120000000  0.4724620000000  0.5144090000000 1.0
C      1  0.5548460000000  0.4724640000000  0.5647230000000 1.0
C      1  0.5289530000000  0.4724640000000  0.4192450000000 1.0
C      1  0.4361590000000  0.5087870000000  0.4485480000000 1.0
C      1  0.4876840000000  0.5087870000000  0.5801190000000 1.0
C      1  0.5758660000000  0.5087890000000  0.4697110000000 1.0
C      1  0.4719820000000  0.5686100000000  0.5022950000000 1.0
C      1  0.5163180000000  0.5686100000000  0.5222220000000 1.0
C      1  0.5114070000000  0.5686100000000  0.4738620000000 1.0
C      1  0.5922050000000  0.5374960000000  0.5774920000000 1.0
C      1  0.5213300000000  0.5374960000000  0.3805070000000 1.0
C      1  0.3861730000000  0.5374930000000  0.5403790000000 1.0
C      1  0.5148100000000  0.5599060000000  0.3976700000000 1.0
C      1  0.4042960000000  0.5599040000000  0.5374440000000 1.0
C      1  0.5806000000000  0.5599060000000  0.5632650000000 1.0
C      1  0.5424470000000  0.4114290000000  0.4623060000000 1.0
C      1  0.4464580000000  0.4114270000000  0.4811920000000 1.0
C      1  0.5108080000000  0.4114280000000  0.5548780000000 1.0
C      1  0.5556640000000  0.5662940000000  0.4904480000000 1.0
C      1  0.4642170000000  0.5662930000000  0.4556740000000 1.0
C      1  0.4798250000000  0.5662920000000  0.5522570000000 1.0
C      1  0.4484060000000  0.5315170000000  0.5733790000000 1.0
C      1  0.5896680000000  0.5315190000000  0.5070970000000 1.0
C      1  0.4616350000000  0.5315180000000  0.4179020000000 1.0
C      1  0.5692770000000  0.5520120000000  0.5130560000000 1.0
C      1  0.4769900000000  0.5520110000000  0.4325810000000 1.0
C      1  0.4534400000000  0.5520100000000  0.5527410000000 1.0
C      1  0.5807580000000  0.4684950000000  0.4981810000000 1.0
C      1  0.4583700000000  0.4684930000000  0.4300770000000 1.0
C      1  0.4605840000000  0.4684920000000  0.5701200000000 1.0
C      1  0.5536340000000  0.4228350000000  0.4889450000000 1.0
C      1  0.4639340000000  0.4228340000000  0.4581840000000 1.0
C      1  0.4821440000000  0.4228340000000  0.5512470000000 1.0
C      1  0.5831850000000  0.5004900000000  0.4991250000000 1.0
C      1  0.4579730000000  0.5004890000000  0.4275030000000 1.0
C      1  0.4585520000000  0.5004880000000  0.5717500000000 1.0
C      1  0.5584080000000  0.4538020000000  0.4861050000000 1.0
C      1  0.4590870000000  0.4538010000000  0.4554700000000 1.0
C      1  0.4822170000000  0.4538010000000  0.5568020000000 1.0
C      1  0.6128270000000  0.5201450000000  0.5669590000000 1.0
C      1  0.5018980000000  0.5201440000000  0.3679150000000 1.0
C      1  0.3849840000000  0.5201420000000  0.5635040000000 1.0
C      1  0.5175170000000  0.4479000000000  0.5081030000000 1.0
C      1  0.4985840000000  0.4479000000000  0.4798840000000 1.0
C      1  0.4836110000000  0.4479000000000  0.5103900000000 1.0
C      1  0.5474940000000  0.4294310000000  0.4394190000000 1.0
C      1  0.4241130000000  0.4294290000000  0.4882640000000 1.0
C      1  0.5281050000000  0.4294300000000  0.5706930000000 1.0
C      1  0.5137190000000  0.4038100000000  0.4621940000000 1.0
C      1  0.4607260000000  0.4038090000000  0.5061270000000 1.0
C      1  0.5252690000000  0.4038100000000  0.5300540000000 1.0
C      1  0.4300530000000  0.4572880000000  0.4943770000000 1.0
C      1  0.5304280000000  0.4572890000000  0.5624930000000 1.0
C      1  0.5392310000000  0.4572900000000  0.4415080000000 1.0
C      1  0.4932120000000  0.4245410000000  0.4641310000000 1.0
C      1  0.4726560000000  0.4245400000000  0.5229180000000 1.0
C      1  0.5338450000000  0.4245410000000  0.5113260000000 1.0
C      1  0.4876250000000  0.5777520000000  0.5261150000000 1.0
C      1  0.5291250000000  0.5777530000000  0.4967640000000 1.0
C      1  0.4829560000000  0.5777530000000  0.4755000000000 1.0
C      1  0.5394010000000  0.4676990000000  0.4687540000000 1.0
C      1  0.4535640000000  0.4676980000000  0.4806050000000 1.0
C      1  0.5067460000000  0.4676980000000  0.5490180000000 1.0
C      1  0.5092380000000  0.5379900000000  0.5166380000000 1.0
C      1  0.5101120000000  0.5379910000000  0.4827850000000 1.0
C      1  0.4803580000000  0.5379900000000  0.4989550000000 1.0
C      1  0.5841650000000  0.4974790000000  0.5310720000000 1.0
C      1  0.4851490000000  0.4974790000000  0.4106800000000 1.0
C      1  0.4303950000000  0.4974770000000  0.5566260000000 1.0
C      1  0.5372280000000  0.4662610000000  0.3920900000000 1.0
C      1  0.3882580000000  0.4662580000000  0.5208200000000 1.0
C      1  0.5742260000000  0.4662600000000  0.5854670000000 1.0
C      1  0.4421380000000  0.5666870000000  0.5028220000000 1.0
C      1  0.5316960000000  0.5666880000000  0.5478040000000 1.0
C      1  0.5258730000000  0.5666890000000  0.4477530000000 1.0
C      1  0.5066410000000  0.5576980000000  0.4256190000000 1.0
C      1  0.4325850000000  0.5576960000000  0.5305440000000 1.0
C      1  0.5604810000000  0.5576980000000  0.5422160000000 1.0
C      1  0.5533560000000  0.5542790000000  0.4612860000000 1.0
C      1  0.4401160000000  0.5542770000000  0.4722540000000 1.0
C      1  0.5062350000000  0.5542770000000  0.5648390000000 1.0
C      1  0.4847760000000  0.5016910000000  0.3820050000000 1.0
C      1  0.4057480000000  0.5016890000000  0.5712870000000 1.0
C      1  0.6091860000000  0.5016920000000  0.5450860000000 1.0
C      1  0.5102900000000  0.4939440000000  0.4243470000000 1.0
C      1  0.4296610000000  0.4939420000000  0.5280200000000 1.0
C      1  0.5597590000000  0.4939440000000  0.5460100000000 1.0
C      1  0.5058170000000  0.5246710000000  0.5637150000000 1.0
C      1  0.5525920000000  0.5246730000000  0.4622090000000 1.0
C      1  0.4412990000000  0.5246710000000  0.4724540000000 1.0
C      1  0.4999030000000  0.4849660000000  0.4994590000000 1.0
END
