TITL C-862505-1648-487 1.24835873635737 125000 -276.237474559895 0 0 51 (C1) n - 1
REM
REM in /home/nfs/bkarasulu/CARBON/AIRSS/Generating-Clusters/TERSOFF/Higher-Symm/FIRE-HFTN
REM
REM
REM
REM
REM
REM ./C.cell (b20cbc046b6831c77cfcea5457e17084)
REM AIRSS Version 0.9.1 bugfix July 2018 build 013d7b7c2542+ Fri, 06 Jul 2018 19:26:36 +0100
REM compiler GCC version 9.2.1 20190827 (Red Hat 9.2.1-1)
REM options -cpp -mtune=generic -march=x86-64 -g -O0 -fpre-include=/usr/include/finclude/math-vector-fortran.h
REM seed 331402286 3658949 -697909587 1121373586 -1680236979 -1508394197 -1438288042 -837582547 1959156154 -649138515 -1951319063 986064265 922112332 319577748 691145935 -754159993 -732490986 974294254 1457973031 -1601033853 -664983062 -1431907900 -1602554821 767906901 236239882 -293003725 -1519335509 -10978649 1561604582 73090681 783817014 739610080 2135673121
REM
CELL 1.54180   50.00000   50.00000   50.00000   90.00000   90.00000   90.00000
LATT -1
SFAC C  
C      1  0.4249190000000  0.5002560000000  0.4654040000000 1.0
C      1  0.5730810000000  0.5138050000000  0.5377990000000 1.0
C      1  0.4782460000000  0.5112740000000  0.4912060000000 1.0
C      1  0.5202920000000  0.5126840000000  0.5150520000000 1.0
C      1  0.5391320000000  0.4853900000000  0.5657760000000 1.0
C      1  0.4637900000000  0.4798400000000  0.4367760000000 1.0
C      1  0.4501180000000  0.5260270000000  0.5411470000000 1.0
C      1  0.5389450000000  0.5366610000000  0.4640890000000 1.0
C      1  0.5138260000000  0.4906460000000  0.4387850000000 1.0
C      1  0.4874090000000  0.4862640000000  0.5631540000000 1.0
C      1  0.5081980000000  0.5189260000000  0.4317410000000 1.0
C      1  0.4862040000000  0.5150550000000  0.5699750000000 1.0
C      1  0.5412490000000  0.4877410000000  0.4494240000000 1.0
C      1  0.4606680000000  0.4773430000000  0.5537650000000 1.0
C      1  0.4338740000000  0.5349310000000  0.5177190000000 1.0
C      1  0.5508630000000  0.5473820000000  0.4894450000000 1.0
C      1  0.4430540000000  0.5008470000000  0.5544020000000 1.0
C      1  0.5528320000000  0.5145410000000  0.4509070000000 1.0
C      1  0.5470290000000  0.5084240000000  0.5052250000000 1.0
C      1  0.4520810000000  0.5012020000000  0.5005550000000 1.0
C      1  0.4560420000000  0.4600840000000  0.4790280000000 1.0
C      1  0.5513090000000  0.4677560000000  0.5231350000000 1.0
C      1  0.5550130000000  0.4813510000000  0.4975810000000 1.0
C      1  0.4502450000000  0.4724410000000  0.5047740000000 1.0
C      1  0.5606100000000  0.4872140000000  0.5453210000000 1.0
C      1  0.4425800000000  0.4770300000000  0.4572950000000 1.0
C      1  0.4913530000000  0.4728160000000  0.4460340000000 1.0
C      1  0.5134750000000  0.4731780000000  0.5562060000000 1.0
C      1  0.4816910000000  0.5236340000000  0.4639520000000 1.0
C      1  0.5123020000000  0.5283580000000  0.5399200000000 1.0
C      1  0.4276050000000  0.5164090000000  0.4928380000000 1.0
C      1  0.5673630000000  0.5296210000000  0.5103780000000 1.0
C      1  0.5475560000000  0.4704740000000  0.4717940000000 1.0
C      1  0.4573500000000  0.4609340000000  0.5302850000000 1.0
C      1  0.4964490000000  0.5646750000000  0.4731020000000 1.0
C      1  0.4814560000000  0.5618570000000  0.5267830000000 1.0
C      1  0.5078870000000  0.5413550000000  0.4551500000000 1.0
C      1  0.4798060000000  0.5375780000000  0.5468390000000 1.0
C      1  0.4864330000000  0.4585710000000  0.4738770000000 1.0
C      1  0.5220970000000  0.4614770000000  0.5281460000000 1.0
C      1  0.5021900000000  0.4612160000000  0.5025580000000 1.0
C      1  0.4992460000000  0.4100330000000  0.5164240000000 1.0
C      1  0.4879200000000  0.4366230000000  0.5148540000000 1.0
C      1  0.4857970000000  0.3858300000000  0.5079920000000 1.0
C      1  0.5284510000000  0.6053110000000  0.5154430000000 1.0
C      1  0.5010690000000  0.5627950000000  0.5037690000000 1.0
C      1  0.4982270000000  0.4914820000000  0.5071870000000 1.0
C      1  0.4988430000000  0.3603750000000  0.5035620000000 1.0
C      1  0.5153810000000  0.6254560000000  0.4992840000000 1.0
C      1  0.5260700000000  0.5767560000000  0.5113520000000 1.0
C      1  0.5027010000000  0.5324090000000  0.4992400000000 1.0
END
