TITL C-862502-1143-338 7.76106762635272e-05 125000 -725.854047925314 0 0 119 (C1) n - 1
REM
REM in /home/nfs/bkarasulu/CARBON/AIRSS/Generating-Clusters/TERSOFF/Higher-Symm/FIRE-HFTN
REM
REM
REM
REM
REM
REM ./C.cell (b20cbc046b6831c77cfcea5457e17084)
REM AIRSS Version 0.9.1 bugfix July 2018 build 013d7b7c2542+ Fri, 06 Jul 2018 19:26:36 +0100
REM compiler GCC version 9.2.1 20190827 (Red Hat 9.2.1-1)
REM options -cpp -mtune=generic -march=x86-64 -g -O0 -fpre-include=/usr/include/finclude/math-vector-fortran.h
REM seed 1060448343 -1205694581 657057097 -169637975 2109578414 548765100 -1666222522 -1987856247 847863796 971162724 1858959387 247441071 -1566257907 -954771032 1851613587 -595335497 -1922071798 2117760630 896135334 -42913414 34029195 710869002 279987705 -1320460467 -1848430620 181195039 1519799783 -1279013992 2070252446 1651684707 -666252037 1452704029 -285085135
REM
CELL 1.54180   50.00000   50.00000   50.00000   90.00000   90.00000   90.00000
LATT -1
SFAC C  
C      1  0.4510370000000  0.4741870000000  0.5895430000000 1.0
C      1  0.4492820000000  0.5221160000000  0.5883090000000 1.0
C      1  0.4855580000000  0.5536260000000  0.5882590000000 1.0
C      1  0.5326990000000  0.5450060000000  0.5890510000000 1.0
C      1  0.5553880000000  0.5026160000000  0.5902140000000 1.0
C      1  0.5363730000000  0.4585430000000  0.5911890000000 1.0
C      1  0.4899330000000  0.4460010000000  0.5909990000000 1.0
C      1  0.5523750000000  0.5031050000000  0.4181490000000 1.0
C      1  0.5318320000000  0.4640590000000  0.4261340000000 1.0
C      1  0.4905780000000  0.4439510000000  0.4141540000000 1.0
C      1  0.4494240000000  0.4743910000000  0.4141690000000 1.0
C      1  0.4532110000000  0.5194400000000  0.4245070000000 1.0
C      1  0.4840020000000  0.5535390000000  0.4167890000000 1.0
C      1  0.5301660000000  0.5431050000000  0.4223850000000 1.0
C      1  0.4682190000000  0.4546580000000  0.5208740000000 1.0
C      1  0.4470130000000  0.4967780000000  0.5180400000000 1.0
C      1  0.4659070000000  0.5398920000000  0.5193510000000 1.0
C      1  0.5107090000000  0.5530540000000  0.5186690000000 1.0
C      1  0.5480130000000  0.5243130000000  0.5202930000000 1.0
C      1  0.5501980000000  0.4774290000000  0.5197780000000 1.0
C      1  0.5154540000000  0.4460380000000  0.5223400000000 1.0
C      1  0.4996150000000  0.4120130000000  0.4640760000000 1.0
C      1  0.4310230000000  0.4463610000000  0.4636800000000 1.0
C      1  0.4122870000000  0.5210130000000  0.4647630000000 1.0
C      1  0.4617580000000  0.5810380000000  0.4649270000000 1.0
C      1  0.5395940000000  0.5804950000000  0.4647280000000 1.0
C      1  0.5873330000000  0.5186720000000  0.4641850000000 1.0
C      1  0.5701400000000  0.4432170000000  0.4642050000000 1.0
C      1  0.4904040000000  0.5329970000000  0.3939620000000 1.0
C      1  0.5189900000000  0.5283840000000  0.3983520000000 1.0
C      1  0.5322510000000  0.5027090000000  0.3940660000000 1.0
C      1  0.5198270000000  0.4773800000000  0.4020400000000 1.0
C      1  0.4938110000000  0.4671600000000  0.3931000000000 1.0
C      1  0.4697850000000  0.4843060000000  0.3923840000000 1.0
C      1  0.4700610000000  0.5127490000000  0.4004880000000 1.0
C      1  0.4906070000000  0.5365090000000  0.5627300000000 1.0
C      1  0.5227850000000  0.5306270000000  0.5631960000000 1.0
C      1  0.5385450000000  0.5011150000000  0.5638530000000 1.0
C      1  0.5257040000000  0.4708360000000  0.5645220000000 1.0
C      1  0.4932720000000  0.4619630000000  0.5645470000000 1.0
C      1  0.4664860000000  0.4816900000000  0.5633120000000 1.0
C      1  0.4654790000000  0.5144500000000  0.5626800000000 1.0
C      1  0.5534440000000  0.4197040000000  0.5042040000000 1.0
C      1  0.4712620000000  0.4086850000000  0.5038590000000 1.0
C      1  0.4114990000000  0.4660140000000  0.5037920000000 1.0
C      1  0.4191750000000  0.5482070000000  0.5050690000000 1.0
C      1  0.4874070000000  0.5943480000000  0.5049670000000 1.0
C      1  0.5661830000000  0.5681020000000  0.5045810000000 1.0
C      1  0.5952770000000  0.4909430000000  0.5041700000000 1.0
C      1  0.4907970000000  0.4463710000000  0.5383050000000 1.0
C      1  0.4540820000000  0.4745090000000  0.5360180000000 1.0
C      1  0.4530680000000  0.5197340000000  0.5351880000000 1.0
C      1  0.4870570000000  0.5500780000000  0.5355850000000 1.0
C      1  0.5315150000000  0.5418390000000  0.5360640000000 1.0
C      1  0.5530180000000  0.5013090000000  0.5366830000000 1.0
C      1  0.5357750000000  0.4590830000000  0.5379540000000 1.0
C      1  0.4885930000000  0.5323180000000  0.4437200000000 1.0
C      1  0.5170400000000  0.5307560000000  0.4536800000000 1.0
C      1  0.5316070000000  0.5041490000000  0.4443780000000 1.0
C      1  0.5219870000000  0.4775100000000  0.4556200000000 1.0
C      1  0.4931180000000  0.4652040000000  0.4424940000000 1.0
C      1  0.4690940000000  0.4818270000000  0.4398610000000 1.0
C      1  0.4674670000000  0.5088750000000  0.4535850000000 1.0
C      1  0.4102970000000  0.4672460000000  0.4540580000000 1.0
C      1  0.4170760000000  0.5505030000000  0.4558380000000 1.0
C      1  0.4870910000000  0.5957350000000  0.4548860000000 1.0
C      1  0.5671800000000  0.5691530000000  0.4550130000000 1.0
C      1  0.5958080000000  0.4907750000000  0.4538270000000 1.0
C      1  0.5527790000000  0.4191430000000  0.4547290000000 1.0
C      1  0.4704490000000  0.4102790000000  0.4539720000000 1.0
C      1  0.4640810000000  0.4998150000000  0.6294520000000 1.0
C      1  0.4762900000000  0.5279260000000  0.6289780000000 1.0
C      1  0.5059260000000  0.5360020000000  0.6292950000000 1.0
C      1  0.5307190000000  0.5179370000000  0.6299100000000 1.0
C      1  0.5319970000000  0.4873480000000  0.6307040000000 1.0
C      1  0.5087720000000  0.4673070000000  0.6309540000000 1.0
C      1  0.4785560000000  0.4728370000000  0.6303820000000 1.0
C      1  0.5090580000000  0.5327000000000  0.4888850000000 1.0
C      1  0.5301390000000  0.5138950000000  0.4983470000000 1.0
C      1  0.5298660000000  0.4838500000000  0.4903770000000 1.0
C      1  0.5086400000000  0.4661320000000  0.5012190000000 1.0
C      1  0.4803610000000  0.4715060000000  0.4979180000000 1.0
C      1  0.4677990000000  0.4991220000000  0.4884430000000 1.0
C      1  0.4802040000000  0.5250330000000  0.4972520000000 1.0
C      1  0.4119270000000  0.5198860000000  0.4938960000000 1.0
C      1  0.4612510000000  0.5811160000000  0.4939700000000 1.0
C      1  0.5398130000000  0.5815440000000  0.4938270000000 1.0
C      1  0.5882170000000  0.5192860000000  0.4932630000000 1.0
C      1  0.5715100000000  0.4429080000000  0.4933500000000 1.0
C      1  0.5006340000000  0.4096170000000  0.4931790000000 1.0
C      1  0.4299220000000  0.4434210000000  0.4928480000000 1.0
C      1  0.5751210000000  0.4685310000000  0.5087340000000 1.0
C      1  0.5233390000000  0.4218520000000  0.5092800000000 1.0
C      1  0.4537260000000  0.4331820000000  0.5087690000000 1.0
C      1  0.4201950000000  0.4947630000000  0.5082780000000 1.0
C      1  0.4475690000000  0.5587850000000  0.5086420000000 1.0
C      1  0.5139860000000  0.5797390000000  0.5091150000000 1.0
C      1  0.5702170000000  0.5378950000000  0.5085520000000 1.0
C      1  0.5115640000000  0.5666100000000  0.4240880000000 1.0
C      1  0.5585960000000  0.5325120000000  0.4241720000000 1.0
C      1  0.5603300000000  0.4734040000000  0.4245930000000 1.0
C      1  0.5190890000000  0.4374370000000  0.4246600000000 1.0
C      1  0.4599060000000  0.4455140000000  0.4209000000000 1.0
C      1  0.4314770000000  0.4989540000000  0.4229510000000 1.0
C      1  0.4548040000000  0.5492780000000  0.4252500000000 1.0
C      1  0.5731790000000  0.5403060000000  0.4471440000000 1.0
C      1  0.5770650000000  0.4680750000000  0.4467860000000 1.0
C      1  0.5235650000000  0.4204130000000  0.4468330000000 1.0
C      1  0.4526380000000  0.4334310000000  0.4458930000000 1.0
C      1  0.4159290000000  0.4960090000000  0.4465690000000 1.0
C      1  0.4437580000000  0.5624170000000  0.4477450000000 1.0
C      1  0.5133540000000  0.5826890000000  0.4473180000000 1.0
C      1  0.5098540000000  0.5548970000000  0.6049930000000 1.0
C      1  0.5483880000000  0.5266270000000  0.6059630000000 1.0
C      1  0.5504590000000  0.4789370000000  0.6072280000000 1.0
C      1  0.5142730000000  0.4477290000000  0.6075590000000 1.0
C      1  0.4672240000000  0.4563240000000  0.6067030000000 1.0
C      1  0.4446810000000  0.4983880000000  0.6052760000000 1.0
C      1  0.4637560000000  0.5421790000000  0.6044680000000 1.0
END
