TITL C-862500-986-1470 1.0124225414214e-05 125000 -356.394128593477 0 0 62 (Cs) n - 1
REM
REM in /home/nfs/bkarasulu/CARBON/AIRSS/Generating-Clusters/TERSOFF/Higher-Symm/FIRE-HFTN
REM
REM
REM
REM
REM
REM ./C.cell (b20cbc046b6831c77cfcea5457e17084)
REM AIRSS Version 0.9.1 bugfix July 2018 build 013d7b7c2542+ Fri, 06 Jul 2018 19:26:36 +0100
REM compiler GCC version 9.2.1 20190827 (Red Hat 9.2.1-1)
REM options -cpp -mtune=generic -march=x86-64 -g -O0 -fpre-include=/usr/include/finclude/math-vector-fortran.h
REM seed 2028000898 1105422877 906928384 -1623430528 -666295152 1510063213 460247870 -1939946636 -1440624504 1581263178 374324028 527462621 1237319075 -1636985525 -2085811018 1464588978 -2078169769 -1805048159 1071429060 315811025 -364635195 825440246 -1541173032 2113810848 1910596927 1942234871 719718728 1022567080 -867996849 -1783135364 -896840560 1237013097 -1340253689
REM
CELL 1.54180   50.00000   50.00000   50.00000   90.00000   90.00000   90.00000
LATT -1
SFAC C  
C      1  0.4562520000000  0.5466860000000  0.4235530000000 1.0
C      1  0.4562520000000  0.5466860000000  0.5764470000000 1.0
C      1  0.5048500000000  0.4351250000000  0.4697930000000 1.0
C      1  0.5048500000000  0.4351250000000  0.5302070000000 1.0
C      1  0.5110860000000  0.4798310000000  0.4694460000000 1.0
C      1  0.5110860000000  0.4798310000000  0.5305540000000 1.0
C      1  0.5332950000000  0.5037210000000  0.5785420000000 1.0
C      1  0.5332950000000  0.5037210000000  0.4214580000000 1.0
C      1  0.5480540000000  0.4877930000000  0.5584350000000 1.0
C      1  0.5480540000000  0.4877930000000  0.4415650000000 1.0
C      1  0.5504100000000  0.4511220000000  0.5284270000000 1.0
C      1  0.5504100000000  0.4511220000000  0.4715730000000 1.0
C      1  0.5372310000000  0.4978950000000  0.4694200000000 1.0
C      1  0.5372310000000  0.4978950000000  0.5305800000000 1.0
C      1  0.4670460000000  0.5601250000000  0.5535770000000 1.0
C      1  0.4670460000000  0.5601250000000  0.4464230000000 1.0
C      1  0.5142420000000  0.5521640000000  0.5749220000000 1.0
C      1  0.5142420000000  0.5521640000000  0.4250780000000 1.0
C      1  0.4391980000000  0.4970520000000  0.4705790000000 1.0
C      1  0.4391980000000  0.4970520000000  0.5294210000000 1.0
C      1  0.4553790000000  0.4490570000000  0.5159490000000 1.0
C      1  0.4553790000000  0.4490570000000  0.4840510000000 1.0
C      1  0.4609040000000  0.4750440000000  0.4709870000000 1.0
C      1  0.4609040000000  0.4750440000000  0.5290130000000 1.0
C      1  0.4778380000000  0.5042880000000  0.5596110000000 1.0
C      1  0.4778380000000  0.5042880000000  0.4403890000000 1.0
C      1  0.4816880000000  0.5118570000000  0.5292530000000 1.0
C      1  0.4816880000000  0.5118570000000  0.4707470000000 1.0
C      1  0.5305360000000  0.4340230000000  0.4851410000000 1.0
C      1  0.5305360000000  0.4340230000000  0.5148590000000 1.0
C      1  0.4797950000000  0.4287700000000  0.4839740000000 1.0
C      1  0.4797950000000  0.4287700000000  0.5160260000000 1.0
C      1  0.5568450000000  0.5426580000000  0.5148150000000 1.0
C      1  0.5568450000000  0.5426580000000  0.4851850000000 1.0
C      1  0.4974740000000  0.5635480000000  0.5535370000000 1.0
C      1  0.4974740000000  0.5635480000000  0.4464630000000 1.0
C      1  0.5085620000000  0.5494660000000  0.4710910000000 1.0
C      1  0.5085620000000  0.5494660000000  0.5289090000000 1.0
C      1  0.4412020000000  0.5236290000000  0.5150940000000 1.0
C      1  0.4412020000000  0.5236290000000  0.4849060000000 1.0
C      1  0.4766350000000  0.4737810000000  0.4435590000000 1.0
C      1  0.4766350000000  0.4737810000000  0.5564410000000 1.0
C      1  0.5551350000000  0.4777920000000  0.5143450000000 1.0
C      1  0.5551350000000  0.4777920000000  0.4856550000000 1.0
C      1  0.5103990000000  0.4832580000000  0.4204520000000 1.0
C      1  0.5103990000000  0.4832580000000  0.5795480000000 1.0
C      1  0.4853700000000  0.5382160000000  0.4850910000000 1.0
C      1  0.4853700000000  0.5382160000000  0.5149090000000 1.0
C      1  0.5319900000000  0.5309590000000  0.5651370000000 1.0
C      1  0.5319900000000  0.5309590000000  0.4348630000000 1.0
C      1  0.5060040000000  0.4585440000000  0.4443820000000 1.0
C      1  0.5060040000000  0.4585440000000  0.5556180000000 1.0
C      1  0.5350370000000  0.5308340000000  0.5320330000000 1.0
C      1  0.5350370000000  0.5308340000000  0.4679670000000 1.0
C      1  0.4585740000000  0.5479380000000  0.4734560000000 1.0
C      1  0.4585740000000  0.5479380000000  0.5265440000000 1.0
C      1  0.4619430000000  0.5189820000000  0.4210020000000 1.0
C      1  0.4619430000000  0.5189820000000  0.5789980000000 1.0
C      1  0.4867440000000  0.4870100000000  0.5143690000000 1.0
C      1  0.4867440000000  0.4870100000000  0.4856310000000 1.0
C      1  0.5402820000000  0.4588290000000  0.5558090000000 1.0
C      1  0.5402820000000  0.4588290000000  0.4441910000000 1.0
END
