TITL C-862130-1496-1224 0.000103184433446613 125000 -716.698711026621 0 0 134 (D2) n - 1
REM
REM in /home/nfs/bkarasulu/CARBON/AIRSS/Generating-Clusters/TERSOFF/Higher-Symm/FIRE-HFTN
REM
REM
REM
REM
REM
REM ./C.cell (b20cbc046b6831c77cfcea5457e17084)
REM AIRSS Version 0.9.1 bugfix July 2018 build 013d7b7c2542+ Fri, 06 Jul 2018 19:26:36 +0100
REM compiler GCC version 9.2.1 20190827 (Red Hat 9.2.1-1)
REM options -cpp -mtune=generic -march=x86-64 -g -O0 -fpre-include=/usr/include/finclude/math-vector-fortran.h
REM seed -213145827 281947238 -2120453870 376893224 402189373 -561063805 1812605334 457591981 -898081982 -469898844 -1381720083 -202324140 -749219122 1460100931 -417642339 1774845510 1355488372 -1073193340 -2103164410 1620033540 1395893880 -475065808 43048967 -1340222879 -193967077 1551036607 -592081408 522452832 2119630953 -1349121822 886779156 320986141 874596679
REM
CELL 1.54180   50.00000   50.00000   50.00000   90.00000   90.00000   90.00000
LATT -1
SFAC C  
C      1  0.5827670000000  0.4014080000000  0.5069770000000 1.0
C      1  0.6001000000000  0.5830920000000  0.5068420000000 1.0
C      1  0.4174820000000  0.5992380000000  0.5069730000000 1.0
C      1  0.4001490000000  0.4175540000000  0.5068410000000 1.0
C      1  0.4174680000000  0.4014200000000  0.4908810000000 1.0
C      1  0.4001620000000  0.5831060000000  0.4910120000000 1.0
C      1  0.5827820000000  0.5992260000000  0.4908810000000 1.0
C      1  0.6000880000000  0.4175400000000  0.4910160000000 1.0
C      1  0.4927310000000  0.4675720000000  0.5950690000000 1.0
C      1  0.5330830000000  0.4931540000000  0.5936140000000 1.0
C      1  0.5075160000000  0.5330760000000  0.5950680000000 1.0
C      1  0.4671640000000  0.5074940000000  0.5936130000000 1.0
C      1  0.5075140000000  0.4675690000000  0.4027880000000 1.0
C      1  0.4671650000000  0.4931570000000  0.4042420000000 1.0
C      1  0.4927380000000  0.5330760000000  0.4027870000000 1.0
C      1  0.5330860000000  0.5074880000000  0.4042430000000 1.0
C      1  0.5386940000000  0.5682980000000  0.5323470000000 1.0
C      1  0.4323890000000  0.5387680000000  0.5304820000000 1.0
C      1  0.4615550000000  0.4323490000000  0.5323480000000 1.0
C      1  0.5678600000000  0.4618790000000  0.5304840000000 1.0
C      1  0.4615660000000  0.5683030000000  0.4655070000000 1.0
C      1  0.5678660000000  0.5387570000000  0.4673730000000 1.0
C      1  0.5386840000000  0.4323430000000  0.4655090000000 1.0
C      1  0.4323840000000  0.4618880000000  0.4673720000000 1.0
C      1  0.4893450000000  0.4609010000000  0.4477880000000 1.0
C      1  0.5401080000000  0.4900420000000  0.4501300000000 1.0
C      1  0.5109060000000  0.5397440000000  0.4477870000000 1.0
C      1  0.4601430000000  0.5106040000000  0.4501290000000 1.0
C      1  0.5108990000000  0.4609000000000  0.5500690000000 1.0
C      1  0.4601400000000  0.4900480000000  0.5477260000000 1.0
C      1  0.4893490000000  0.5397470000000  0.5500680000000 1.0
C      1  0.5401080000000  0.5105990000000  0.5477270000000 1.0
C      1  0.4972280000000  0.4102180000000  0.5334610000000 1.0
C      1  0.5898790000000  0.4975180000000  0.5332350000000 1.0
C      1  0.5030210000000  0.5904290000000  0.5334590000000 1.0
C      1  0.4103700000000  0.5031290000000  0.5332330000000 1.0
C      1  0.5030090000000  0.4102170000000  0.4643970000000 1.0
C      1  0.4103700000000  0.4975300000000  0.4646210000000 1.0
C      1  0.4972420000000  0.5904290000000  0.4643950000000 1.0
C      1  0.5898800000000  0.5031150000000  0.4646230000000 1.0
C      1  0.5185750000000  0.5388460000000  0.5389720000000 1.0
C      1  0.4620490000000  0.5192370000000  0.5366260000000 1.0
C      1  0.4816740000000  0.4618010000000  0.5389720000000 1.0
C      1  0.5382000000000  0.4814100000000  0.5366270000000 1.0
C      1  0.4816800000000  0.5388480000000  0.4588840000000 1.0
C      1  0.5382030000000  0.5192310000000  0.4612300000000 1.0
C      1  0.5185700000000  0.4617980000000  0.4588850000000 1.0
C      1  0.4620470000000  0.4814150000000  0.4612290000000 1.0
C      1  0.4900670000000  0.5750990000000  0.4342810000000 1.0
C      1  0.4253080000000  0.4907180000000  0.4358100000000 1.0
C      1  0.5101840000000  0.4255460000000  0.4342830000000 1.0
C      1  0.5749430000000  0.5099270000000  0.4358110000000 1.0
C      1  0.5101930000000  0.5750990000000  0.5635730000000 1.0
C      1  0.5749400000000  0.4907080000000  0.5620460000000 1.0
C      1  0.4900550000000  0.4255490000000  0.5635740000000 1.0
C      1  0.4253080000000  0.5099390000000  0.5620440000000 1.0
C      1  0.5088510000000  0.5517410000000  0.4209420000000 1.0
C      1  0.4488120000000  0.5089810000000  0.4229800000000 1.0
C      1  0.4914000000000  0.4489040000000  0.4209430000000 1.0
C      1  0.5514400000000  0.4916640000000  0.4229810000000 1.0
C      1  0.4914060000000  0.5517430000000  0.5769130000000 1.0
C      1  0.5514390000000  0.5089750000000  0.5748750000000 1.0
C      1  0.5088420000000  0.4489040000000  0.5769140000000 1.0
C      1  0.4488090000000  0.4916730000000  0.5748750000000 1.0
C      1  0.4377210000000  0.5677320000000  0.4455910000000 1.0
C      1  0.4322040000000  0.4389260000000  0.4465340000000 1.0
C      1  0.5625300000000  0.4329130000000  0.4455940000000 1.0
C      1  0.5680470000000  0.5617190000000  0.4465340000000 1.0
C      1  0.5625380000000  0.5677240000000  0.5522630000000 1.0
C      1  0.5680370000000  0.4389170000000  0.5513230000000 1.0
C      1  0.4377100000000  0.4329230000000  0.5522630000000 1.0
C      1  0.4322120000000  0.5617300000000  0.5513210000000 1.0
C      1  0.4767930000000  0.4424680000000  0.4697140000000 1.0
C      1  0.5591420000000  0.4755810000000  0.4719970000000 1.0
C      1  0.5234570000000  0.5581780000000  0.4697130000000 1.0
C      1  0.4411080000000  0.5250640000000  0.4719950000000 1.0
C      1  0.5234490000000  0.4424650000000  0.5281430000000 1.0
C      1  0.4411040000000  0.4755900000000  0.5258600000000 1.0
C      1  0.4768000000000  0.5581820000000  0.5281410000000 1.0
C      1  0.5591450000000  0.5250560000000  0.5258600000000 1.0
C      1  0.5672790000000  0.4619720000000  0.5724560000000 1.0
C      1  0.5392900000000  0.5669860000000  0.5742730000000 1.0
C      1  0.4329690000000  0.5386750000000  0.5724540000000 1.0
C      1  0.4609580000000  0.4336610000000  0.5742730000000 1.0
C      1  0.4329650000000  0.4619810000000  0.4254010000000 1.0
C      1  0.4609690000000  0.5669910000000  0.4235820000000 1.0
C      1  0.5672860000000  0.5386640000000  0.4254010000000 1.0
C      1  0.5392820000000  0.4336540000000  0.4235840000000 1.0
C      1  0.4763790000000  0.5323610000000  0.5109510000000 1.0
C      1  0.4672660000000  0.4687880000000  0.5124250000000 1.0
C      1  0.5238710000000  0.4682860000000  0.5109520000000 1.0
C      1  0.5329830000000  0.5318580000000  0.5124260000000 1.0
C      1  0.5238750000000  0.5323570000000  0.4869040000000 1.0
C      1  0.5329790000000  0.4687840000000  0.4854310000000 1.0
C      1  0.4763740000000  0.4682890000000  0.4869040000000 1.0
C      1  0.4672710000000  0.5318620000000  0.4854300000000 1.0
C      1  0.4557800000000  0.5353260000000  0.5918170000000 1.0
C      1  0.4647200000000  0.4568380000000  0.5930900000000 1.0
C      1  0.5444670000000  0.4653220000000  0.5918180000000 1.0
C      1  0.5355280000000  0.5438100000000  0.5930890000000 1.0
C      1  0.5444740000000  0.5353180000000  0.4060390000000 1.0
C      1  0.5355240000000  0.4568310000000  0.4047670000000 1.0
C      1  0.4557770000000  0.4653270000000  0.4060380000000 1.0
C      1  0.4647280000000  0.5438130000000  0.4047660000000 1.0
C      1  0.5467040000000  0.4256990000000  0.5329870000000 1.0
C      1  0.5768050000000  0.5468530000000  0.5336780000000 1.0
C      1  0.4535450000000  0.5749470000000  0.5329850000000 1.0
C      1  0.4234440000000  0.4537940000000  0.5336770000000 1.0
C      1  0.4535350000000  0.4257050000000  0.4648700000000 1.0
C      1  0.4234520000000  0.5468630000000  0.4641770000000 1.0
C      1  0.5467160000000  0.5749400000000  0.4648690000000 1.0
C      1  0.5767990000000  0.4537830000000  0.4641790000000 1.0
C      1  0.4089080000000  0.5386360000000  0.5108910000000 1.0
C      1  0.4614840000000  0.4101420000000  0.5114970000000 1.0
C      1  0.5913420000000  0.4620110000000  0.5108930000000 1.0
C      1  0.5387650000000  0.5905040000000  0.5114960000000 1.0
C      1  0.5913470000000  0.5386220000000  0.4869650000000 1.0
C      1  0.5387530000000  0.4101370000000  0.4863610000000 1.0
C      1  0.4089020000000  0.4620230000000  0.4869630000000 1.0
C      1  0.4614970000000  0.5905090000000  0.4863580000000 1.0
C      1  0.5936030000000  0.4453500000000  0.4868770000000 1.0
C      1  0.5551510000000  0.5915090000000  0.4875460000000 1.0
C      1  0.4066460000000  0.5552960000000  0.4868740000000 1.0
C      1  0.4450990000000  0.4091370000000  0.4875460000000 1.0
C      1  0.4066380000000  0.4453640000000  0.5109800000000 1.0
C      1  0.4451120000000  0.5915170000000  0.5103080000000 1.0
C      1  0.5936110000000  0.5552830000000  0.5109810000000 1.0
C      1  0.5551380000000  0.4091290000000  0.5103110000000 1.0
C      1  0.4211020000000  0.5003290000000  0.4989270000000 1.0
C      1  0.5001190000000  0.4204950000000  0.4989290000000 1.0
C      1  0.5791470000000  0.5003170000000  0.4989290000000 1.0
C      1  0.5001300000000  0.5801510000000  0.4989270000000 1.0
C      1  0.5001260000000  0.5003220000000  0.4001630000000 1.0
C      1  0.5001240000000  0.5003240000000  0.5976930000000 1.0
END
