TITL C-862134-6730-116 39.3179934580593 125000 -953.427153272065 0 0 166 (C1) n - 1
REM
REM in /home/nfs/bkarasulu/CARBON/AIRSS/Generating-Clusters/TERSOFF/Higher-Symm/FIRE-HFTN
REM
REM
REM
REM
REM
REM ./C.cell (b20cbc046b6831c77cfcea5457e17084)
REM AIRSS Version 0.9.1 bugfix July 2018 build 013d7b7c2542+ Fri, 06 Jul 2018 19:26:36 +0100
REM compiler GCC version 9.2.1 20190827 (Red Hat 9.2.1-1)
REM options -cpp -mtune=generic -march=x86-64 -g -O0 -fpre-include=/usr/include/finclude/math-vector-fortran.h
REM seed 368147678 -1746212171 1664583144 126028764 -139792620 893392322 -1370817840 -504113410 154921835 677718992 2046145840 -1762301533 -1530909867 1235408537 -2090194211 1996794280 2104923418 -317611192 -1801488382 -1053458256 -318482518 188337099 1263033864 1071067299 1946651393 962955856 -2094424358 -1350975846 -593633573 1487070956 -434734136 -1610662590 642282623
REM
CELL 1.54180   50.00000   50.00000   50.00000   90.00000   90.00000   90.00000
LATT -1
SFAC C  
C      1  0.4767960000000  0.5908190000000  0.5173250000000 1.0
C      1  0.4972420000000  0.5908370000000  0.4708330000000 1.0
C      1  0.5275270000000  0.5910510000000  0.5118880000000 1.0
C      1  0.4429780000000  0.5069110000000  0.4804240000000 1.0
C      1  0.5459620000000  0.5083720000000  0.4582600000000 1.0
C      1  0.5132060000000  0.5072590000000  0.5580850000000 1.0
C      1  0.5290630000000  0.5580070000000  0.4752740000000 1.0
C      1  0.5071020000000  0.5590810000000  0.5381460000000 1.0
C      1  0.4656630000000  0.5571300000000  0.4874700000000 1.0
C      1  0.5416460000000  0.5287900000000  0.4357980000000 1.0
C      1  0.5352140000000  0.5269650000000  0.5659680000000 1.0
C      1  0.4260780000000  0.5268940000000  0.4961900000000 1.0
C      1  0.5009480000000  0.4348730000000  0.4209910000000 1.0
C      1  0.5707280000000  0.4372820000000  0.5342360000000 1.0
C      1  0.4367720000000  0.4429310000000  0.5427780000000 1.0
C      1  0.4361360000000  0.4558660000000  0.5849990000000 1.0
C      1  0.4619200000000  0.4533680000000  0.4041580000000 1.0
C      1  0.5952270000000  0.4626840000000  0.5114820000000 1.0
C      1  0.4664870000000  0.5858720000000  0.4296630000000 1.0
C      1  0.5784680000000  0.5859380000000  0.5062500000000 1.0
C      1  0.4564370000000  0.5851590000000  0.5644720000000 1.0
C      1  0.4847600000000  0.4748750000000  0.4000950000000 1.0
C      1  0.5996250000000  0.4774570000000  0.5381170000000 1.0
C      1  0.4183980000000  0.4755650000000  0.5685810000000 1.0
C      1  0.4611900000000  0.5000450000000  0.4288840000000 1.0
C      1  0.5818780000000  0.5007950000000  0.4999510000000 1.0
C      1  0.4589520000000  0.5008020000000  0.5694170000000 1.0
C      1  0.5348080000000  0.5774130000000  0.5740780000000 1.0
C      1  0.4195160000000  0.5774720000000  0.4927820000000 1.0
C      1  0.5468370000000  0.5796210000000  0.4336270000000 1.0
C      1  0.4623790000000  0.4420840000000  0.5776960000000 1.0
C      1  0.4480910000000  0.4398450000000  0.4285450000000 1.0
C      1  0.6018860000000  0.4430400000000  0.4891060000000 1.0
C      1  0.6353930000000  0.5071370000000  0.5198310000000 1.0
C      1  0.4172750000000  0.5059580000000  0.6082810000000 1.0
C      1  0.4496770000000  0.5016040000000  0.3757570000000 1.0
C      1  0.3935590000000  0.5437260000000  0.4622280000000 1.0
C      1  0.5874900000000  0.5475910000000  0.4272710000000 1.0
C      1  0.5216330000000  0.5426810000000  0.6113420000000 1.0
C      1  0.4169870000000  0.4455470000000  0.4970110000000 1.0
C      1  0.5476380000000  0.4445010000000  0.4352040000000 1.0
C      1  0.5385510000000  0.4442230000000  0.5715620000000 1.0
C      1  0.4132410000000  0.5499530000000  0.4825130000000 1.0
C      1  0.5594890000000  0.5524610000000  0.4327130000000 1.0
C      1  0.5295740000000  0.5495760000000  0.5843150000000 1.0
C      1  0.4354100000000  0.6215580000000  0.4941270000000 1.0
C      1  0.5374160000000  0.6220570000000  0.4460140000000 1.0
C      1  0.5296550000000  0.6220300000000  0.5593700000000 1.0
C      1  0.4889660000000  0.4437370000000  0.5931940000000 1.0
C      1  0.4216450000000  0.4449280000000  0.4432240000000 1.0
C      1  0.5943320000000  0.4467180000000  0.4602440000000 1.0
C      1  0.4794360000000  0.3955040000000  0.5668410000000 1.0
C      1  0.4509690000000  0.3996820000000  0.4491100000000 1.0
C      1  0.5681820000000  0.4041170000000  0.4915040000000 1.0
C      1  0.5147570000000  0.4674990000000  0.3984350000000 1.0
C      1  0.5860540000000  0.4676140000000  0.5629180000000 1.0
C      1  0.4018090000000  0.4660550000000  0.5452250000000 1.0
C      1  0.3916290000000  0.4909770000000  0.4979990000000 1.0
C      1  0.5554570000000  0.4917790000000  0.4052230000000 1.0
C      1  0.5537060000000  0.4902880000000  0.5938270000000 1.0
C      1  0.5038850000000  0.5876290000000  0.5299750000000 1.0
C      1  0.4731460000000  0.5861820000000  0.4878170000000 1.0
C      1  0.5248220000000  0.5868710000000  0.4823010000000 1.0
C      1  0.5054560000000  0.4439470000000  0.5310190000000 1.0
C      1  0.4690170000000  0.4434290000000  0.4939820000000 1.0
C      1  0.5191040000000  0.4445690000000  0.4802020000000 1.0
C      1  0.4503480000000  0.6027550000000  0.4779690000000 1.0
C      1  0.5442820000000  0.6041050000000  0.4676560000000 1.0
C      1  0.5064490000000  0.6057530000000  0.5535100000000 1.0
C      1  0.5552340000000  0.4500450000000  0.5133800000000 1.0
C      1  0.4556770000000  0.4644380000000  0.5427830000000 1.0
C      1  0.4867020000000  0.4531900000000  0.4380670000000 1.0
C      1  0.5568700000000  0.5848970000000  0.5543690000000 1.0
C      1  0.4254540000000  0.5842420000000  0.5218080000000 1.0
C      1  0.5188210000000  0.5859830000000  0.4241000000000 1.0
C      1  0.5159060000000  0.5151370000000  0.6199500000000 1.0
C      1  0.3885070000000  0.5164910000000  0.4525860000000 1.0
C      1  0.5994930000000  0.5209130000000  0.4263830000000 1.0
C      1  0.4941950000000  0.5895220000000  0.4414610000000 1.0
C      1  0.5543450000000  0.5893840000000  0.5241830000000 1.0
C      1  0.4528170000000  0.5885420000000  0.5345500000000 1.0
C      1  0.5338950000000  0.5113110000000  0.4832030000000 1.0
C      1  0.4959660000000  0.5133020000000  0.5370590000000 1.0
C      1  0.4703130000000  0.5105880000000  0.4765100000000 1.0
C      1  0.4138390000000  0.5268160000000  0.5629140000000 1.0
C      1  0.4887560000000  0.5265740000000  0.3943220000000 1.0
C      1  0.5967960000000  0.5280260000000  0.5434250000000 1.0
C      1  0.4351850000000  0.4032840000000  0.4727120000000 1.0
C      1  0.5601450000000  0.4058430000000  0.4640400000000 1.0
C      1  0.5074700000000  0.4013670000000  0.5657610000000 1.0
C      1  0.6346630000000  0.5080100000000  0.4909840000000 1.0
C      1  0.4424230000000  0.5087000000000  0.6215240000000 1.0
C      1  0.4252390000000  0.5084740000000  0.3888400000000 1.0
C      1  0.6039620000000  0.5479180000000  0.4788920000000 1.0
C      1  0.4693890000000  0.5456060000000  0.5980570000000 1.0
C      1  0.4307880000000  0.5465620000000  0.4231330000000 1.0
C      1  0.5509560000000  0.5386190000000  0.5206650000000 1.0
C      1  0.4554480000000  0.5396290000000  0.5341140000000 1.0
C      1  0.4937230000000  0.5393870000000  0.4441460000000 1.0
C      1  0.4038840000000  0.4691190000000  0.4337070000000 1.0
C      1  0.6062340000000  0.4720480000000  0.4459230000000 1.0
C      1  0.4916990000000  0.4673810000000  0.6144240000000 1.0
C      1  0.5351290000000  0.5370500000000  0.4950040000000 1.0
C      1  0.4855750000000  0.5392490000000  0.5359520000000 1.0
C      1  0.4789810000000  0.5368390000000  0.4704770000000 1.0
C      1  0.5039100000000  0.3952960000000  0.5075200000000 1.0
C      1  0.4743450000000  0.4043600000000  0.5102160000000 1.0
C      1  0.5082470000000  0.4015640000000  0.4763940000000 1.0
C      1  0.5675620000000  0.4439730000000  0.5621460000000 1.0
C      1  0.4118090000000  0.4433910000000  0.5267680000000 1.0
C      1  0.5278510000000  0.4423540000000  0.4121060000000 1.0
C      1  0.5325340000000  0.3948640000000  0.4595410000000 1.0
C      1  0.5201870000000  0.3937760000000  0.5389300000000 1.0
C      1  0.4485890000000  0.3931750000000  0.4981140000000 1.0
C      1  0.4898550000000  0.4261950000000  0.4700540000000 1.0
C      1  0.5232910000000  0.4231420000000  0.5090670000000 1.0
C      1  0.4734660000000  0.4297370000000  0.5272020000000 1.0
C      1  0.4997100000000  0.4729090000000  0.4543740000000 1.0
C      1  0.5378620000000  0.4727230000000  0.5177590000000 1.0
C      1  0.4656440000000  0.4769030000000  0.5190930000000 1.0
C      1  0.4871120000000  0.5094420000000  0.4380410000000 1.0
C      1  0.5593740000000  0.5087570000000  0.5164830000000 1.0
C      1  0.4544670000000  0.5099060000000  0.5425300000000 1.0
C      1  0.5342300000000  0.5459420000000  0.5427380000000 1.0
C      1  0.4466120000000  0.5454500000000  0.5076050000000 1.0
C      1  0.5210560000000  0.5466220000000  0.4486000000000 1.0
C      1  0.4754490000000  0.4136530000000  0.4466710000000 1.0
C      1  0.5493360000000  0.4084710000000  0.5125070000000 1.0
C      1  0.4623870000000  0.4105260000000  0.5499950000000 1.0
C      1  0.4051370000000  0.5125710000000  0.5113650000000 1.0
C      1  0.5388980000000  0.5147710000000  0.4100130000000 1.0
C      1  0.5587680000000  0.5123040000000  0.5760410000000 1.0
C      1  0.5244300000000  0.4876590000000  0.4968990000000 1.0
C      1  0.4887320000000  0.4935880000000  0.5179570000000 1.0
C      1  0.4877990000000  0.4872910000000  0.4764800000000 1.0
C      1  0.5184530000000  0.4587860000000  0.5546330000000 1.0
C      1  0.4424740000000  0.4588320000000  0.4889320000000 1.0
C      1  0.5390120000000  0.4593830000000  0.4594470000000 1.0
C      1  0.6121060000000  0.5040930000000  0.5367050000000 1.0
C      1  0.4144760000000  0.5027640000000  0.5798160000000 1.0
C      1  0.4753190000000  0.5009970000000  0.3888490000000 1.0
C      1  0.4232780000000  0.5174810000000  0.4163660000000 1.0
C      1  0.6124110000000  0.5185280000000  0.4751550000000 1.0
C      1  0.4670360000000  0.5167730000000  0.6084580000000 1.0
C      1  0.6039640000000  0.5037080000000  0.4498940000000 1.0
C      1  0.4920380000000  0.4996700000000  0.6119980000000 1.0
C      1  0.4072680000000  0.5007670000000  0.4361340000000 1.0
C      1  0.5933860000000  0.5602130000000  0.5043040000000 1.0
C      1  0.4501610000000  0.5596080000000  0.5791720000000 1.0
C      1  0.4572030000000  0.5602240000000  0.4170350000000 1.0
C      1  0.4172800000000  0.4281320000000  0.4714800000000 1.0
C      1  0.5708070000000  0.4287540000000  0.4472370000000 1.0
C      1  0.5147230000000  0.4266360000000  0.5818050000000 1.0
C      1  0.4453480000000  0.4795440000000  0.4419730000000 1.0
C      1  0.5805040000000  0.4824120000000  0.4774580000000 1.0
C      1  0.4782730000000  0.4809470000000  0.5770170000000 1.0
C      1  0.5599030000000  0.4830020000000  0.4559190000000 1.0
C      1  0.5077050000000  0.4821100000000  0.5715470000000 1.0
C      1  0.4338160000000  0.4815100000000  0.4697640000000 1.0
C      1  0.4816910000000  0.5449120000000  0.4162510000000 1.0
C      1  0.5812090000000  0.5437520000000  0.5243030000000 1.0
C      1  0.4368230000000  0.5446490000000  0.5581550000000 1.0
C      1  0.5693020000000  0.4796340000000  0.4274490000000 1.0
C      1  0.5268400000000  0.4797420000000  0.5950630000000 1.0
C      1  0.4038220000000  0.4799020000000  0.4742750000000 1.0
C      1  0.4977250000000  0.4557160000000  0.5021860000000 1.0
END
