TITL C-862130-1496-1200 0.0505612741163867 125000 -613.918518749441 0 0 114 (C1) n - 1
REM
REM in /home/nfs/bkarasulu/CARBON/AIRSS/Generating-Clusters/TERSOFF/Higher-Symm/FIRE-HFTN
REM
REM
REM
REM
REM
REM ./C.cell (b20cbc046b6831c77cfcea5457e17084)
REM AIRSS Version 0.9.1 bugfix July 2018 build 013d7b7c2542+ Fri, 06 Jul 2018 19:26:36 +0100
REM compiler GCC version 9.2.1 20190827 (Red Hat 9.2.1-1)
REM options -cpp -mtune=generic -march=x86-64 -g -O0 -fpre-include=/usr/include/finclude/math-vector-fortran.h
REM seed 787410602 1103428001 1310566221 1183946165 1458708751 -676154898 606253348 711757137 -706059384 560339731 658097485 -1646500424 -655621455 -1388231930 604213108 1897436834 1760621869 -39665106 173671377 172975310 1134106866 -1098801111 872445790 1936413367 307945601 -1805681 1041085758 205609880 587161456 274947685 -1137206948 464716860 -2056506957
REM
CELL 1.54180   50.00000   50.00000   50.00000   90.00000   90.00000   90.00000
LATT -1
SFAC C  
C      1  0.5654660000000  0.4390850000000  0.4768660000000 1.0
C      1  0.4470840000000  0.4385620000000  0.4548360000000 1.0
C      1  0.4876520000000  0.4396690000000  0.5678730000000 1.0
C      1  0.4802490000000  0.4938620000000  0.5033350000000 1.0
C      1  0.5132290000000  0.4925360000000  0.5151950000000 1.0
C      1  0.5070660000000  0.4921710000000  0.4806860000000 1.0
C      1  0.4774390000000  0.5359790000000  0.4810350000000 1.0
C      1  0.4943390000000  0.5395750000000  0.5289100000000 1.0
C      1  0.5278370000000  0.5368080000000  0.4904330000000 1.0
C      1  0.5176680000000  0.4877570000000  0.5935810000000 1.0
C      1  0.5723270000000  0.4871950000000  0.4372550000000 1.0
C      1  0.4095240000000  0.4869060000000  0.4682670000000 1.0
C      1  0.5675100000000  0.4376980000000  0.5368020000000 1.0
C      1  0.4982590000000  0.4370340000000  0.4231610000000 1.0
C      1  0.4345910000000  0.4370560000000  0.5398670000000 1.0
C      1  0.5164450000000  0.5314940000000  0.5481080000000 1.0
C      1  0.5334850000000  0.5303390000000  0.4612870000000 1.0
C      1  0.4493070000000  0.5291120000000  0.4899500000000 1.0
C      1  0.5111860000000  0.4630710000000  0.4086680000000 1.0
C      1  0.4152540000000  0.4629020000000  0.5356320000000 1.0
C      1  0.5735770000000  0.4636610000000  0.5552760000000 1.0
C      1  0.4566300000000  0.4517680000000  0.5611030000000 1.0
C      1  0.5753230000000  0.4515640000000  0.5070820000000 1.0
C      1  0.4685480000000  0.4510770000000  0.4311950000000 1.0
C      1  0.5789190000000  0.5257250000000  0.4685840000000 1.0
C      1  0.4334990000000  0.5255710000000  0.4470180000000 1.0
C      1  0.4866940000000  0.5261220000000  0.5833170000000 1.0
C      1  0.5678870000000  0.5128180000000  0.5453520000000 1.0
C      1  0.5053400000000  0.5124160000000  0.4183620000000 1.0
C      1  0.4265550000000  0.5122640000000  0.5357390000000 1.0
C      1  0.5584670000000  0.5639480000000  0.5380030000000 1.0
C      1  0.5046760000000  0.5640460000000  0.4304890000000 1.0
C      1  0.4369090000000  0.5651500000000  0.5291820000000 1.0
C      1  0.5563280000000  0.4104430000000  0.4812580000000 1.0
C      1  0.4555790000000  0.4100440000000  0.4609600000000 1.0
C      1  0.4888370000000  0.4108890000000  0.5581570000000 1.0
C      1  0.5470820000000  0.4961320000000  0.5911160000000 1.0
C      1  0.5553350000000  0.4956990000000  0.4132510000000 1.0
C      1  0.3972590000000  0.4955510000000  0.4949690000000 1.0
C      1  0.4701960000000  0.4997950000000  0.5521400000000 1.0
C      1  0.5608260000000  0.4992850000000  0.4991760000000 1.0
C      1  0.4689300000000  0.4990310000000  0.4474290000000 1.0
C      1  0.5939640000000  0.4757930000000  0.5098480000000 1.0
C      1  0.4616690000000  0.4753330000000  0.4135240000000 1.0
C      1  0.4448550000000  0.4759810000000  0.5756910000000 1.0
C      1  0.4744080000000  0.4618860000000  0.5115200000000 1.0
C      1  0.5231810000000  0.4610580000000  0.5163870000000 1.0
C      1  0.5028330000000  0.4608050000000  0.4717690000000 1.0
C      1  0.4466730000000  0.4746840000000  0.5263320000000 1.0
C      1  0.5499320000000  0.4753800000000  0.5326560000000 1.0
C      1  0.5035610000000  0.4746870000000  0.4404790000000 1.0
C      1  0.4738480000000  0.5053100000000  0.4174350000000 1.0
C      1  0.4417000000000  0.5053260000000  0.5630360000000 1.0
C      1  0.5844570000000  0.5056120000000  0.5183500000000 1.0
C      1  0.5224970000000  0.5660160000000  0.5029970000000 1.0
C      1  0.4888490000000  0.5653700000000  0.4779530000000 1.0
C      1  0.4853860000000  0.5706920000000  0.5220820000000 1.0
C      1  0.4478480000000  0.5259420000000  0.5195600000000 1.0
C      1  0.5427940000000  0.5253480000000  0.5344480000000 1.0
C      1  0.5083720000000  0.5251560000000  0.4454730000000 1.0
C      1  0.4294040000000  0.5458980000000  0.4723220000000 1.0
C      1  0.5111980000000  0.5470110000000  0.5748850000000 1.0
C      1  0.5590820000000  0.5462860000000  0.4522520000000 1.0
C      1  0.5196340000000  0.4479620000000  0.5604480000000 1.0
C      1  0.5428940000000  0.4471760000000  0.4526660000000 1.0
C      1  0.4374200000000  0.4465020000000  0.4864540000000 1.0
C      1  0.5240690000000  0.6018130000000  0.5021890000000 1.0
C      1  0.4934450000000  0.5943240000000  0.4883160000000 1.0
C      1  0.4946090000000  0.6025890000000  0.5201380000000 1.0
C      1  0.5353720000000  0.5828420000000  0.4667380000000 1.0
C      1  0.4526090000000  0.5855600000000  0.4844470000000 1.0
C      1  0.5127610000000  0.5820820000000  0.5518290000000 1.0
C      1  0.5354520000000  0.5528430000000  0.4258810000000 1.0
C      1  0.4183300000000  0.5525310000000  0.5059360000000 1.0
C      1  0.5459560000000  0.5536870000000  0.5681140000000 1.0
C      1  0.5370670000000  0.4991090000000  0.4646220000000 1.0
C      1  0.4504350000000  0.4980150000000  0.4850490000000 1.0
C      1  0.5120130000000  0.5000490000000  0.5491270000000 1.0
C      1  0.4792070000000  0.4479120000000  0.4830100000000 1.0
C      1  0.4956750000000  0.4481450000000  0.5260160000000 1.0
C      1  0.5249740000000  0.4474960000000  0.4905940000000 1.0
C      1  0.5315340000000  0.4180290000000  0.4953060000000 1.0
C      1  0.4800700000000  0.4182500000000  0.4752140000000 1.0
C      1  0.4886770000000  0.4186580000000  0.5296590000000 1.0
C      1  0.5053570000000  0.4100320000000  0.4636190000000 1.0
C      1  0.4660560000000  0.4098970000000  0.5137780000000 1.0
C      1  0.5291600000000  0.4101310000000  0.5231340000000 1.0
C      1  0.4749430000000  0.5160220000000  0.5265060000000 1.0
C      1  0.5358810000000  0.5139930000000  0.5081010000000 1.0
C      1  0.4890700000000  0.5136430000000  0.4648110000000 1.0
C      1  0.4424290000000  0.4266490000000  0.5119060000000 1.0
C      1  0.5392840000000  0.4276810000000  0.5439480000000 1.0
C      1  0.5185410000000  0.4270500000000  0.4441510000000 1.0
C      1  0.4485890000000  0.5680070000000  0.4611050000000 1.0
C      1  0.4885960000000  0.5688130000000  0.5645510000000 1.0
C      1  0.5594090000000  0.5679610000000  0.4753500000000 1.0
C      1  0.4375960000000  0.4971750000000  0.4568230000000 1.0
C      1  0.4940800000000  0.4979090000000  0.5745100000000 1.0
C      1  0.5680260000000  0.4974120000000  0.4672220000000 1.0
C      1  0.5104640000000  0.5700790000000  0.4585530000000 1.0
C      1  0.4581040000000  0.5753690000000  0.5117850000000 1.0
C      1  0.5301160000000  0.5695740000000  0.5318660000000 1.0
C      1  0.4694540000000  0.5583510000000  0.4352250000000 1.0
C      1  0.4574110000000  0.5582090000000  0.5579710000000 1.0
C      1  0.5711110000000  0.5581540000000  0.5056020000000 1.0
C      1  0.4085930000000  0.4919990000000  0.5231160000000 1.0
C      1  0.5660280000000  0.4926500000000  0.5673430000000 1.0
C      1  0.5252890000000  0.4921290000000  0.4091090000000 1.0
C      1  0.5862220000000  0.5326680000000  0.4980030000000 1.0
C      1  0.4553770000000  0.5325730000000  0.4261630000000 1.0
C      1  0.4572030000000  0.5326100000000  0.5748150000000 1.0
C      1  0.5294260000000  0.4762900000000  0.5549350000000 1.0
C      1  0.5331700000000  0.4753870000000  0.4467800000000 1.0
C      1  0.4369890000000  0.4746220000000  0.4975600000000 1.0
END
