TITL C-862500-986-934 0.000300838082839588 125000 -320.030368857852 0 0 54 (C2) n - 1
REM
REM in /home/nfs/bkarasulu/CARBON/AIRSS/Generating-Clusters/TERSOFF/Higher-Symm/FIRE-HFTN
REM
REM
REM
REM
REM
REM ./C.cell (b20cbc046b6831c77cfcea5457e17084)
REM AIRSS Version 0.9.1 bugfix July 2018 build 013d7b7c2542+ Fri, 06 Jul 2018 19:26:36 +0100
REM compiler GCC version 9.2.1 20190827 (Red Hat 9.2.1-1)
REM options -cpp -mtune=generic -march=x86-64 -g -O0 -fpre-include=/usr/include/finclude/math-vector-fortran.h
REM seed 1271424847 1311668559 -1878769386 950109084 987551377 -1258054701 143880434 -1114289005 -912937285 856983314 487993508 -1026494509 -774766886 -785990055 -52624534 1688189477 -186129281 1072872352 -885661537 500315517 -2093412171 1308863578 -2003171032 1859124369 1997489134 -876519694 1638241841 -711154872 -754993673 -1528333661 -1958355397 -938125940 -1107885524
REM
CELL 1.54180   50.00000   50.00000   50.00000   90.00000   90.00000   90.00000
LATT -1
SFAC C  
C      1  0.5054000000000  0.5543450000000  0.5607530000000 1.0
C      1  0.4613420000000  0.5299270000000  0.5629840000000 1.0
C      1  0.4559220000000  0.4783520000000  0.5638440000000 1.0
C      1  0.4946320000000  0.4457490000000  0.5608390000000 1.0
C      1  0.5386910000000  0.4701700000000  0.5630100000000 1.0
C      1  0.5441110000000  0.5217470000000  0.5637880000000 1.0
C      1  0.5202510000000  0.4506760000000  0.5736290000000 1.0
C      1  0.4709820000000  0.4560250000000  0.5744910000000 1.0
C      1  0.4558070000000  0.5046640000000  0.5772180000000 1.0
C      1  0.4797870000000  0.5494380000000  0.5735630000000 1.0
C      1  0.5290560000000  0.5440900000000  0.5744080000000 1.0
C      1  0.5442330000000  0.4954560000000  0.5772030000000 1.0
C      1  0.4791160000000  0.5444070000000  0.5179110000000 1.0
C      1  0.4489680000000  0.5045460000000  0.5226990000000 1.0
C      1  0.4683830000000  0.4585600000000  0.5193850000000 1.0
C      1  0.5208930000000  0.4556220000000  0.5179680000000 1.0
C      1  0.5510440000000  0.4954890000000  0.5226800000000 1.0
C      1  0.5316270000000  0.5414710000000  0.5193050000000 1.0
C      1  0.4943100000000  0.4480030000000  0.5304540000000 1.0
C      1  0.4540020000000  0.4788870000000  0.5346990000000 1.0
C      1  0.4601000000000  0.5286280000000  0.5338130000000 1.0
C      1  0.5057060000000  0.5520440000000  0.5303710000000 1.0
C      1  0.5460160000000  0.5211680000000  0.5346430000000 1.0
C      1  0.5399180000000  0.4714250000000  0.5338360000000 1.0
C      1  0.4168560000000  0.4748450000000  0.4762840000000 1.0
C      1  0.4717860000000  0.4500430000000  0.4213950000000 1.0
C      1  0.5293110000000  0.4487500000000  0.4904270000000 1.0
C      1  0.5831320000000  0.5251190000000  0.4762030000000 1.0
C      1  0.5281740000000  0.5498370000000  0.4213040000000 1.0
C      1  0.4706840000000  0.5512370000000  0.4903630000000 1.0
C      1  0.4255450000000  0.5371580000000  0.4738880000000 1.0
C      1  0.4824540000000  0.5355530000000  0.4171490000000 1.0
C      1  0.5430760000000  0.5490500000000  0.4933850000000 1.0
C      1  0.5744420000000  0.4628030000000  0.4739070000000 1.0
C      1  0.5175040000000  0.4643210000000  0.4171950000000 1.0
C      1  0.4569210000000  0.4509410000000  0.4934830000000 1.0
C      1  0.5591500000000  0.5118400000000  0.4640150000000 1.0
C      1  0.5191040000000  0.5401300000000  0.4481980000000 1.0
C      1  0.4721850000000  0.5296680000000  0.4679210000000 1.0
C      1  0.4408320000000  0.4881060000000  0.4640630000000 1.0
C      1  0.4808690000000  0.4597920000000  0.4482690000000 1.0
C      1  0.5277980000000  0.4702830000000  0.4679520000000 1.0
C      1  0.5548330000000  0.4829520000000  0.4637780000000 1.0
C      1  0.5093230000000  0.4681200000000  0.4458090000000 1.0
C      1  0.4631760000000  0.4684360000000  0.4692400000000 1.0
C      1  0.4451480000000  0.5169940000000  0.4637800000000 1.0
C      1  0.4906500000000  0.5317980000000  0.4457650000000 1.0
C      1  0.5368090000000  0.5315170000000  0.4691730000000 1.0
C      1  0.5734960000000  0.5485230000000  0.4917890000000 1.0
C      1  0.5587990000000  0.4414160000000  0.4873550000000 1.0
C      1  0.4411950000000  0.5585660000000  0.4872950000000 1.0
C      1  0.4265000000000  0.4514650000000  0.4919010000000 1.0
C      1  0.4943740000000  0.4529590000000  0.4019860000000 1.0
C      1  0.5055760000000  0.5468910000000  0.4019110000000 1.0
END
