TITL C-862128-1543-16 0.44635729781087 125000 -1064.60292123783 0 0 179 (C1) n - 1
REM
REM in /home/nfs/bkarasulu/CARBON/AIRSS/Generating-Clusters/TERSOFF/Higher-Symm/FIRE-HFTN
REM
REM
REM
REM
REM
REM ./C.cell (b20cbc046b6831c77cfcea5457e17084)
REM AIRSS Version 0.9.1 bugfix July 2018 build 013d7b7c2542+ Fri, 06 Jul 2018 19:26:36 +0100
REM compiler GCC version 9.2.1 20190827 (Red Hat 9.2.1-1)
REM options -cpp -mtune=generic -march=x86-64 -g -O0 -fpre-include=/usr/include/finclude/math-vector-fortran.h
REM seed -1808990864 1770516586 49787227 221271979 -1474648813 646803443 1375249630 -1481908431 -1729777273 839989504 1970634254 -1154546382 1738871707 -342760864 -1087533508 970475363 857748263 -393743156 863663344 -225726544 -778896796 -1126477425 1782132548 649248554 -1194117153 983750268 -1384694946 1086211346 -1334036915 -1564030955 484669562 -1360475788 1437355419
REM
CELL 1.54180   50.00000   50.00000   50.00000   90.00000   90.00000   90.00000
LATT -1
SFAC C  
C      1  0.6212890000000  0.4947400000000  0.5229450000000 1.0
C      1  0.3793750000000  0.5051800000000  0.4763440000000 1.0
C      1  0.6163680000000  0.4472730000000  0.5062270000000 1.0
C      1  0.3842130000000  0.5526320000000  0.4930970000000 1.0
C      1  0.6190050000000  0.4860060000000  0.4735950000000 1.0
C      1  0.3815910000000  0.5138760000000  0.5257040000000 1.0
C      1  0.5494770000000  0.5141670000000  0.4240410000000 1.0
C      1  0.4505900000000  0.4853990000000  0.5763300000000 1.0
C      1  0.4875210000000  0.5619160000000  0.4337810000000 1.0
C      1  0.5130080000000  0.4380580000000  0.5653040000000 1.0
C      1  0.5595830000000  0.5407860000000  0.6270610000000 1.0
C      1  0.4411740000000  0.4587990000000  0.3724380000000 1.0
C      1  0.3991510000000  0.4648590000000  0.5187800000000 1.0
C      1  0.6014020000000  0.5350410000000  0.4806100000000 1.0
C      1  0.4760330000000  0.5554130000000  0.5423830000000 1.0
C      1  0.5242450000000  0.4441560000000  0.4566070000000 1.0
C      1  0.6230240000000  0.5160940000000  0.4742770000000 1.0
C      1  0.3775150000000  0.4838060000000  0.5249870000000 1.0
C      1  0.4843380000000  0.5895200000000  0.4438280000000 1.0
C      1  0.5163890000000  0.4104700000000  0.5552150000000 1.0
C      1  0.4287880000000  0.5090340000000  0.5851750000000 1.0
C      1  0.5713930000000  0.4908330000000  0.4145390000000 1.0
C      1  0.5448850000000  0.3833190000000  0.5187480000000 1.0
C      1  0.4557950000000  0.6165160000000  0.4803470000000 1.0
C      1  0.4987470000000  0.4918330000000  0.5883660000000 1.0
C      1  0.5017100000000  0.5078050000000  0.4114900000000 1.0
C      1  0.4608200000000  0.5076110000000  0.5421850000000 1.0
C      1  0.5391120000000  0.4920510000000  0.4582090000000 1.0
C      1  0.5405080000000  0.5409370000000  0.4698760000000 1.0
C      1  0.4599150000000  0.4589180000000  0.5295640000000 1.0
C      1  0.4569760000000  0.5789060000000  0.5483120000000 1.0
C      1  0.5434560000000  0.4207650000000  0.4507280000000 1.0
C      1  0.5079870000000  0.5572470000000  0.4107190000000 1.0
C      1  0.4926610000000  0.4425170000000  0.5886710000000 1.0
C      1  0.5142150000000  0.4493430000000  0.6098800000000 1.0
C      1  0.4866030000000  0.5502350000000  0.3894370000000 1.0
C      1  0.4381600000000  0.5596400000000  0.4045670000000 1.0
C      1  0.5626350000000  0.4400710000000  0.5945520000000 1.0
C      1  0.4743190000000  0.4539420000000  0.4711740000000 1.0
C      1  0.5259810000000  0.5455350000000  0.5278760000000 1.0
C      1  0.4199830000000  0.4865740000000  0.4255350000000 1.0
C      1  0.5805180000000  0.5132260000000  0.5737730000000 1.0
C      1  0.4831770000000  0.4322330000000  0.4130130000000 1.0
C      1  0.5173390000000  0.5674420000000  0.5860720000000 1.0
C      1  0.5564040000000  0.5101120000000  0.5543060000000 1.0
C      1  0.4441310000000  0.4895820000000  0.4449590000000 1.0
C      1  0.6190650000000  0.4757260000000  0.5011000000000 1.0
C      1  0.3815840000000  0.5241720000000  0.4982030000000 1.0
C      1  0.5108770000000  0.6016620000000  0.4331070000000 1.0
C      1  0.4899390000000  0.3981560000000  0.5659410000000 1.0
C      1  0.4736350000000  0.4087810000000  0.5224190000000 1.0
C      1  0.5268220000000  0.5911460000000  0.4768080000000 1.0
C      1  0.4664890000000  0.5753320000000  0.5780980000000 1.0
C      1  0.5340820000000  0.4243550000000  0.4209060000000 1.0
C      1  0.5506900000000  0.4819060000000  0.5672440000000 1.0
C      1  0.4499510000000  0.5177750000000  0.4320180000000 1.0
C      1  0.4610420000000  0.4042540000000  0.4746410000000 1.0
C      1  0.5393290000000  0.5952570000000  0.5246440000000 1.0
C      1  0.5254140000000  0.5169840000000  0.4583070000000 1.0
C      1  0.4744990000000  0.4826940000000  0.5419580000000 1.0
C      1  0.4326770000000  0.5304690000000  0.4085260000000 1.0
C      1  0.5680170000000  0.4692570000000  0.5907020000000 1.0
C      1  0.5178600000000  0.5388890000000  0.5786550000000 1.0
C      1  0.4826160000000  0.4607470000000  0.4206200000000 1.0
C      1  0.5729820000000  0.5104810000000  0.5267600000000 1.0
C      1  0.4276470000000  0.4892910000000  0.4725580000000 1.0
C      1  0.5152190000000  0.4859150000000  0.5061700000000 1.0
C      1  0.4751130000000  0.5162200000000  0.4935770000000 1.0
C      1  0.5548670000000  0.3913320000000  0.4915350000000 1.0
C      1  0.4457140000000  0.6083270000000  0.5074650000000 1.0
C      1  0.5708610000000  0.5311330000000  0.4426070000000 1.0
C      1  0.4297100000000  0.4685030000000  0.5570750000000 1.0
C      1  0.5857820000000  0.4469490000000  0.4354060000000 1.0
C      1  0.4146430000000  0.5528870000000  0.5639550000000 1.0
C      1  0.4427410000000  0.4836340000000  0.4974340000000 1.0
C      1  0.5579210000000  0.5160350000000  0.5018700000000 1.0
C      1  0.5623990000000  0.4819040000000  0.6169840000000 1.0
C      1  0.4383680000000  0.5177150000000  0.3823080000000 1.0
C      1  0.5929300000000  0.4884150000000  0.4602170000000 1.0
C      1  0.4076690000000  0.5113300000000  0.5390830000000 1.0
C      1  0.4324330000000  0.5859290000000  0.4480690000000 1.0
C      1  0.5682780000000  0.4140530000000  0.5508890000000 1.0
C      1  0.5026570000000  0.4420950000000  0.4762320000000 1.0
C      1  0.4975760000000  0.5572260000000  0.5225990000000 1.0
C      1  0.3849710000000  0.5495420000000  0.5644980000000 1.0
C      1  0.6154760000000  0.4502370000000  0.4348410000000 1.0
C      1  0.5071340000000  0.4151630000000  0.4136140000000 1.0
C      1  0.4934400000000  0.5845420000000  0.5852900000000 1.0
C      1  0.5732710000000  0.5601320000000  0.5093070000000 1.0
C      1  0.4270410000000  0.4394310000000  0.4898500000000 1.0
C      1  0.4292670000000  0.4707080000000  0.5227630000000 1.0
C      1  0.5712590000000  0.5292370000000  0.4766570000000 1.0
C      1  0.4274520000000  0.5716130000000  0.5452030000000 1.0
C      1  0.5729310000000  0.4281990000000  0.4540790000000 1.0
C      1  0.4852780000000  0.5203970000000  0.3898900000000 1.0
C      1  0.5154310000000  0.4791990000000  0.6097090000000 1.0
C      1  0.3907870000000  0.4618070000000  0.4525750000000 1.0
C      1  0.6097430000000  0.5380560000000  0.5467920000000 1.0
C      1  0.5323930000000  0.5308200000000  0.5541850000000 1.0
C      1  0.4679600000000  0.4686930000000  0.4450140000000 1.0
C      1  0.3868410000000  0.5729230000000  0.5135970000000 1.0
C      1  0.6135060000000  0.4269900000000  0.4857440000000 1.0
C      1  0.4592980000000  0.3939110000000  0.5018820000000 1.0
C      1  0.5412010000000  0.6057850000000  0.4974810000000 1.0
C      1  0.4273100000000  0.4386480000000  0.5652410000000 1.0
C      1  0.5732800000000  0.5608830000000  0.4340990000000 1.0
C      1  0.5476380000000  0.5670870000000  0.5236810000000 1.0
C      1  0.4526660000000  0.4324190000000  0.4754650000000 1.0
C      1  0.5474900000000  0.5470560000000  0.3931550000000 1.0
C      1  0.4530270000000  0.4520070000000  0.6064540000000 1.0
C      1  0.4597840000000  0.4293500000000  0.5365200000000 1.0
C      1  0.5405430000000  0.5704880000000  0.4626880000000 1.0
C      1  0.5909740000000  0.4877850000000  0.5840420000000 1.0
C      1  0.4096370000000  0.5120340000000  0.4151970000000 1.0
C      1  0.4342840000000  0.4386940000000  0.3927110000000 1.0
C      1  0.5663100000000  0.5609940000000  0.6068370000000 1.0
C      1  0.4254290000000  0.5798870000000  0.4207180000000 1.0
C      1  0.5753620000000  0.4199560000000  0.5782440000000 1.0
C      1  0.5432980000000  0.4013010000000  0.5424080000000 1.0
C      1  0.4574060000000  0.5987070000000  0.4565750000000 1.0
C      1  0.6021980000000  0.5161850000000  0.5283940000000 1.0
C      1  0.3984040000000  0.4836640000000  0.4709600000000 1.0
C      1  0.5301550000000  0.4690760000000  0.4443190000000 1.0
C      1  0.4703660000000  0.5307740000000  0.5553200000000 1.0
C      1  0.4163830000000  0.4258850000000  0.5147060000000 1.0
C      1  0.5839290000000  0.5737890000000  0.4845280000000 1.0
C      1  0.4725030000000  0.4723650000000  0.5929010000000 1.0
C      1  0.5278970000000  0.5271770000000  0.4071900000000 1.0
C      1  0.6310830000000  0.4677300000000  0.4529600000000 1.0
C      1  0.3694370000000  0.5321050000000  0.5462990000000 1.0
C      1  0.4618600000000  0.5658250000000  0.3885580000000 1.0
C      1  0.5389660000000  0.4337500000000  0.6105570000000 1.0
C      1  0.4694330000000  0.4746430000000  0.4918180000000 1.0
C      1  0.5311680000000  0.5247470000000  0.5074640000000 1.0
C      1  0.5688810000000  0.5767620000000  0.4588890000000 1.0
C      1  0.4314980000000  0.4228900000000  0.5403100000000 1.0
C      1  0.4850840000000  0.3965380000000  0.4590260000000 1.0
C      1  0.5153200000000  0.6029810000000  0.5402820000000 1.0
C      1  0.5361810000000  0.5230100000000  0.6260470000000 1.0
C      1  0.4645920000000  0.4765500000000  0.3735280000000 1.0
C      1  0.4563960000000  0.5509300000000  0.5919840000000 1.0
C      1  0.5441470000000  0.4488590000000  0.4071980000000 1.0
C      1  0.4908370000000  0.6123370000000  0.5269530000000 1.0
C      1  0.5096370000000  0.3874340000000  0.4724080000000 1.0
C      1  0.5896110000000  0.5598000000000  0.5890700000000 1.0
C      1  0.4108580000000  0.4399940000000  0.4103080000000 1.0
C      1  0.4120230000000  0.5833040000000  0.5234440000000 1.0
C      1  0.5882060000000  0.4167270000000  0.4760630000000 1.0
C      1  0.4786020000000  0.5413330000000  0.4790420000000 1.0
C      1  0.5186910000000  0.4600020000000  0.5196070000000 1.0
C      1  0.4756940000000  0.5338730000000  0.6048970000000 1.0
C      1  0.5247860000000  0.4659890000000  0.3945100000000 1.0
C      1  0.4829740000000  0.5392360000000  0.4502860000000 1.0
C      1  0.5172960000000  0.4609690000000  0.5488870000000 1.0
C      1  0.4319110000000  0.5382350000000  0.5826430000000 1.0
C      1  0.5685140000000  0.4616230000000  0.4167570000000 1.0
C      1  0.5882970000000  0.5048620000000  0.4368480000000 1.0
C      1  0.4121830000000  0.4949570000000  0.5625200000000 1.0
C      1  0.4989870000000  0.5890570000000  0.4830590000000 1.0
C      1  0.5014460000000  0.4110370000000  0.5161180000000 1.0
C      1  0.4631970000000  0.6028680000000  0.5313980000000 1.0
C      1  0.5372790000000  0.3967660000000  0.4676600000000 1.0
C      1  0.4976560000000  0.5213100000000  0.5910740000000 1.0
C      1  0.5028710000000  0.4783840000000  0.4085370000000 1.0
C      1  0.5100910000000  0.4365290000000  0.5040460000000 1.0
C      1  0.4901190000000  0.5634620000000  0.4948200000000 1.0
C      1  0.4443860000000  0.4293570000000  0.5888700000000 1.0
C      1  0.5562830000000  0.5699390000000  0.4103460000000 1.0
C      1  0.4038510000000  0.4629210000000  0.4266070000000 1.0
C      1  0.5965910000000  0.5369130000000  0.5727080000000 1.0
C      1  0.5069890000000  0.3867460000000  0.5010290000000 1.0
C      1  0.4935760000000  0.6132690000000  0.4983440000000 1.0
C      1  0.5011950000000  0.5187720000000  0.4419800000000 1.0
C      1  0.4988130000000  0.4809080000000  0.5580750000000 1.0
C      1  0.4633940000000  0.5055790000000  0.3775370000000 1.0
C      1  0.5373900000000  0.4939970000000  0.6219270000000 1.0
C      1  0.4742170000000  0.4174000000000  0.5851960000000 1.0
C      1  0.5265840000000  0.5822850000000  0.4139180000000 1.0
C      1  0.4942970000000  0.5053110000000  0.5126290000000 1.0
END
