TITL C-862128-1543-453 1.46518995775653e-05 125000 -1063.98077515257 0 0 185 (D3) n - 1
REM
REM in /home/nfs/bkarasulu/CARBON/AIRSS/Generating-Clusters/TERSOFF/Higher-Symm/FIRE-HFTN
REM
REM
REM
REM
REM
REM ./C.cell (b20cbc046b6831c77cfcea5457e17084)
REM AIRSS Version 0.9.1 bugfix July 2018 build 013d7b7c2542+ Fri, 06 Jul 2018 19:26:36 +0100
REM compiler GCC version 9.2.1 20190827 (Red Hat 9.2.1-1)
REM options -cpp -mtune=generic -march=x86-64 -g -O0 -fpre-include=/usr/include/finclude/math-vector-fortran.h
REM seed -1942716187 355979247 1279324550 533434371 1972703215 2140562343 -2016838430 1509001547 1967660939 -306924602 -1370189928 2072430645 -1246429418 1077314931 31792302 1917650644 1887177251 -2046000934 322854447 1544752701 -1358813842 311883026 -1042315396 535133086 143945279 1973201241 -526354208 -1107643239 -196293474 315987834 901647140 298257345 586831243
REM
CELL 1.54180   50.00000   50.00000   50.00000   90.00000   90.00000   90.00000
LATT -1
SFAC C  
C      1  0.5404270000000  0.4045640000000  0.5078060000000 1.0
C      1  0.3971070000000  0.5128470000000  0.5078060000000 1.0
C      1  0.5625440000000  0.5828240000000  0.5078060000000 1.0
C      1  0.5404280000000  0.5955930000000  0.4930420000000 1.0
C      1  0.3971070000000  0.4873100000000  0.4930420000000 1.0
C      1  0.5625430000000  0.4173320000000  0.4930420000000 1.0
C      1  0.5578320000000  0.5289860000000  0.4787420000000 1.0
C      1  0.4961580000000  0.4355630000000  0.4787420000000 1.0
C      1  0.4460880000000  0.5356860000000  0.4787420000000 1.0
C      1  0.5578320000000  0.4711700000000  0.5221060000000 1.0
C      1  0.4961590000000  0.5645940000000  0.5221060000000 1.0
C      1  0.4460880000000  0.4644710000000  0.5221060000000 1.0
C      1  0.5293860000000  0.3954660000000  0.4543580000000 1.0
C      1  0.3947490000000  0.5269580000000  0.4543580000000 1.0
C      1  0.5759430000000  0.5778110000000  0.4543580000000 1.0
C      1  0.5293870000000  0.6046900000000  0.5464900000000 1.0
C      1  0.3947490000000  0.4731990000000  0.5464890000000 1.0
C      1  0.5759420000000  0.4223450000000  0.5464900000000 1.0
C      1  0.4669250000000  0.4717370000000  0.5012860000000 1.0
C      1  0.4920330000000  0.5429150000000  0.5012860000000 1.0
C      1  0.5411210000000  0.4855820000000  0.5012860000000 1.0
C      1  0.4669250000000  0.5284200000000  0.4995610000000 1.0
C      1  0.4920320000000  0.4572420000000  0.4995610000000 1.0
C      1  0.5411210000000  0.5145740000000  0.4995610000000 1.0
C      1  0.5669950000000  0.4465280000000  0.4874190000000 1.0
C      1  0.4201650000000  0.4688570000000  0.4874190000000 1.0
C      1  0.5129180000000  0.5848510000000  0.4874190000000 1.0
C      1  0.5669960000000  0.5536280000000  0.5134290000000 1.0
C      1  0.4201650000000  0.5313010000000  0.5134290000000 1.0
C      1  0.5129170000000  0.4153060000000  0.5134290000000 1.0
C      1  0.5380430000000  0.4768310000000  0.4097110000000 1.0
C      1  0.4608850000000  0.4787790000000  0.4097110000000 1.0
C      1  0.5011510000000  0.5446260000000  0.4097110000000 1.0
C      1  0.5380430000000  0.5233260000000  0.5911370000000 1.0
C      1  0.4608850000000  0.5213780000000  0.5911370000000 1.0
C      1  0.5011500000000  0.4555310000000  0.5911370000000 1.0
C      1  0.3770120000000  0.5530080000000  0.4961540000000 1.0
C      1  0.6073720000000  0.5801470000000  0.4961540000000 1.0
C      1  0.5156950000000  0.3670800000000  0.4961540000000 1.0
C      1  0.3770110000000  0.4471500000000  0.5046940000000 1.0
C      1  0.6073710000000  0.4200090000000  0.5046940000000 1.0
C      1  0.5156960000000  0.6330770000000  0.5046940000000 1.0
C      1  0.5127560000000  0.4054970000000  0.5434580000000 1.0
C      1  0.4117510000000  0.5363440000000  0.5434580000000 1.0
C      1  0.5755700000000  0.5583940000000  0.5434580000000 1.0
C      1  0.5127570000000  0.5946590000000  0.4573900000000 1.0
C      1  0.4117510000000  0.4638130000000  0.4573900000000 1.0
C      1  0.5755700000000  0.4417630000000  0.4573900000000 1.0
C      1  0.5939670000000  0.5654170000000  0.4742520000000 1.0
C      1  0.5096410000000  0.3860540000000  0.4742520000000 1.0
C      1  0.3964710000000  0.5487640000000  0.4742520000000 1.0
C      1  0.5939660000000  0.4347390000000  0.5265960000000 1.0
C      1  0.5096410000000  0.6141030000000  0.5265960000000 1.0
C      1  0.3964700000000  0.4513930000000  0.5265950000000 1.0
C      1  0.4457040000000  0.6016110000000  0.4855840000000 1.0
C      1  0.6151170000000  0.4963560000000  0.4855840000000 1.0
C      1  0.4392570000000  0.4022670000000  0.4855840000000 1.0
C      1  0.4457030000000  0.3985460000000  0.5152640000000 1.0
C      1  0.6151170000000  0.5038000000000  0.5152640000000 1.0
C      1  0.4392580000000  0.5978900000000  0.5152640000000 1.0
C      1  0.5037100000000  0.5344130000000  0.5593980000000 1.0
C      1  0.5279190000000  0.4797210000000  0.5593980000000 1.0
C      1  0.4684490000000  0.4861010000000  0.5593980000000 1.0
C      1  0.5037100000000  0.4657430000000  0.4414500000000 1.0
C      1  0.5279190000000  0.5204360000000  0.4414500000000 1.0
C      1  0.4684490000000  0.5140560000000  0.4414500000000 1.0
C      1  0.4232610000000  0.5162760000000  0.5626190000000 1.0
C      1  0.5524360000000  0.5584610000000  0.5626190000000 1.0
C      1  0.5243810000000  0.4254990000000  0.5626190000000 1.0
C      1  0.4232600000000  0.4838810000000  0.4382290000000 1.0
C      1  0.5524360000000  0.4416960000000  0.4382290000000 1.0
C      1  0.5243820000000  0.5746580000000  0.4382290000000 1.0
C      1  0.5724820000000  0.5099250000000  0.5439020000000 1.0
C      1  0.4723260000000  0.4324070000000  0.5439020000000 1.0
C      1  0.4552710000000  0.5579040000000  0.5439020000000 1.0
C      1  0.5724820000000  0.4902310000000  0.4569460000000 1.0
C      1  0.4723260000000  0.5677500000000  0.4569460000000 1.0
C      1  0.4552710000000  0.4422530000000  0.4569460000000 1.0
C      1  0.5108310000000  0.5270090000000  0.6015530000000 1.0
C      1  0.5179470000000  0.4772550000000  0.6015530000000 1.0
C      1  0.4713000000000  0.4959700000000  0.6015530000000 1.0
C      1  0.5108310000000  0.4731470000000  0.3992950000000 1.0
C      1  0.5179470000000  0.5229010000000  0.3992950000000 1.0
C      1  0.4713010000000  0.5041870000000  0.3992950000000 1.0
C      1  0.4994980000000  0.5581950000000  0.4777600000000 1.0
C      1  0.5506200000000  0.4714780000000  0.4777600000000 1.0
C      1  0.4499600000000  0.4705630000000  0.4777600000000 1.0
C      1  0.4994970000000  0.4419620000000  0.5230880000000 1.0
C      1  0.5506210000000  0.5286790000000  0.5230880000000 1.0
C      1  0.4499600000000  0.5295940000000  0.5230880000000 1.0
C      1  0.4637780000000  0.5890410000000  0.5327710000000 1.0
C      1  0.5951930000000  0.4869890000000  0.5327720000000 1.0
C      1  0.4411060000000  0.4242060000000  0.5327710000000 1.0
C      1  0.4637780000000  0.4111160000000  0.4680760000000 1.0
C      1  0.5951940000000  0.5131670000000  0.4680760000000 1.0
C      1  0.4411070000000  0.5759510000000  0.4680760000000 1.0
C      1  0.5922240000000  0.5346820000000  0.5456330000000 1.0
C      1  0.4838950000000  0.4029310000000  0.5456330000000 1.0
C      1  0.4239590000000  0.5626220000000  0.5456330000000 1.0
C      1  0.5922240000000  0.4654740000000  0.4552150000000 1.0
C      1  0.4838950000000  0.5972260000000  0.4552150000000 1.0
C      1  0.4239590000000  0.4375350000000  0.4552150000000 1.0
C      1  0.5431260000000  0.6256750000000  0.4914090000000 1.0
C      1  0.5872460000000  0.3999550000000  0.4914090000000 1.0
C      1  0.3697060000000  0.4746050000000  0.4914090000000 1.0
C      1  0.5431250000000  0.3744810000000  0.5094390000000 1.0
C      1  0.5872470000000  0.6002010000000  0.5094390000000 1.0
C      1  0.3697070000000  0.5255520000000  0.5094390000000 1.0
C      1  0.4567680000000  0.4664240000000  0.5969680000000 1.0
C      1  0.4925090000000  0.5543680000000  0.5969680000000 1.0
C      1  0.5508010000000  0.4794430000000  0.5969680000000 1.0
C      1  0.4567680000000  0.5337330000000  0.4038800000000 1.0
C      1  0.4925090000000  0.4457890000000  0.4038800000000 1.0
C      1  0.5508010000000  0.5207130000000  0.4038800000000 1.0
C      1  0.6141720000000  0.5334200000000  0.5257190000000 1.0
C      1  0.4718280000000  0.3845540000000  0.5257190000000 1.0
C      1  0.4140780000000  0.5822610000000  0.5257190000000 1.0
C      1  0.6141720000000  0.4667360000000  0.4751290000000 1.0
C      1  0.4718290000000  0.6156030000000  0.4751290000000 1.0
C      1  0.4140780000000  0.4178960000000  0.4751290000000 1.0
C      1  0.4831900000000  0.4599580000000  0.5646720000000 1.0
C      1  0.4736990000000  0.5347190000000  0.5646720000000 1.0
C      1  0.5431890000000  0.5055580000000  0.5646720000000 1.0
C      1  0.4831900000000  0.5401980000000  0.4361760000000 1.0
C      1  0.4736990000000  0.4654380000000  0.4361760000000 1.0
C      1  0.5431890000000  0.4945990000000  0.4361760000000 1.0
C      1  0.4442680000000  0.5257700000000  0.4524410000000 1.0
C      1  0.5501550000000  0.5355210000000  0.4524410000000 1.0
C      1  0.5056560000000  0.4389450000000  0.4524410000000 1.0
C      1  0.4442680000000  0.4743870000000  0.5484070000000 1.0
C      1  0.5501540000000  0.4646360000000  0.5484070000000 1.0
C      1  0.5056560000000  0.5612120000000  0.5484070000000 1.0
C      1  0.4895050000000  0.6378560000000  0.4881000000000 1.0
C      1  0.6246060000000  0.4403010000000  0.4881000000000 1.0
C      1  0.3859670000000  0.4220780000000  0.4881000000000 1.0
C      1  0.4895040000000  0.3623010000000  0.5127480000000 1.0
C      1  0.6246060000000  0.5598550000000  0.5127480000000 1.0
C      1  0.3859680000000  0.5780790000000  0.5127480000000 1.0
C      1  0.5282630000000  0.4228100000000  0.4435250000000 1.0
C      1  0.4189920000000  0.5142580000000  0.4435250000000 1.0
C      1  0.5528240000000  0.5631660000000  0.4435250000000 1.0
C      1  0.5282630000000  0.5773460000000  0.5573230000000 1.0
C      1  0.4189910000000  0.4858990000000  0.5573230000000 1.0
C      1  0.5528230000000  0.4369900000000  0.5573230000000 1.0
C      1  0.4360590000000  0.4257920000000  0.5650320000000 1.0
C      1  0.4676750000000  0.5926180000000  0.5650320000000 1.0
C      1  0.5963430000000  0.4818250000000  0.5650320000000 1.0
C      1  0.4360600000000  0.5743650000000  0.4358160000000 1.0
C      1  0.4676750000000  0.4075390000000  0.4358160000000 1.0
C      1  0.5963440000000  0.5183310000000  0.4358160000000 1.0
C      1  0.5587340000000  0.4553150000000  0.4105890000000 1.0
C      1  0.4319060000000  0.4716180000000  0.4105890000000 1.0
C      1  0.5094380000000  0.5733030000000  0.4105890000000 1.0
C      1  0.5587340000000  0.5448410000000  0.5902590000000 1.0
C      1  0.4319060000000  0.5285390000000  0.5902590000000 1.0
C      1  0.5094380000000  0.4268540000000  0.5902590000000 1.0
C      1  0.5779520000000  0.5050640000000  0.4152140000000 1.0
C      1  0.4653810000000  0.4301000000000  0.4152140000000 1.0
C      1  0.4567460000000  0.5650710000000  0.4152140000000 1.0
C      1  0.5779520000000  0.4950920000000  0.5856340000000 1.0
C      1  0.4653810000000  0.5700570000000  0.5856340000000 1.0
C      1  0.4567450000000  0.4350860000000  0.5856340000000 1.0
C      1  0.4550640000000  0.5148830000000  0.5501260000000 1.0
C      1  0.5353290000000  0.5316140000000  0.5501260000000 1.0
C      1  0.5096860000000  0.4537370000000  0.5501260000000 1.0
C      1  0.4550640000000  0.4852740000000  0.4507220000000 1.0
C      1  0.5353280000000  0.4685420000000  0.4507220000000 1.0
C      1  0.5096860000000  0.5464190000000  0.4507220000000 1.0
C      1  0.5814140000000  0.4757670000000  0.4092010000000 1.0
C      1  0.4382770000000  0.4417500000000  0.4092010000000 1.0
C      1  0.4803870000000  0.5827180000000  0.4092010000000 1.0
C      1  0.5814140000000  0.5243900000000  0.5916470000000 1.0
C      1  0.4382780000000  0.5584070000000  0.5916470000000 1.0
C      1  0.4803860000000  0.4174380000000  0.5916470000000 1.0
C      1  0.4915390000000  0.4069440000000  0.4862090000000 1.0
C      1  0.4236130000000  0.5539960000000  0.4862090000000 1.0
C      1  0.5849260000000  0.5392950000000  0.4862100000000 1.0
C      1  0.4915390000000  0.5932130000000  0.5146380000000 1.0
C      1  0.4236130000000  0.4461620000000  0.5146380000000 1.0
C      1  0.5849260000000  0.4608610000000  0.5146380000000 1.0
C      1  0.3539010000000  0.5000790000000  0.5004240000000 1.0
C      1  0.5730880000000  0.3735300000000  0.5004240000000 1.0
C      1  0.5730890000000  0.6266260000000  0.5004240000000 1.0
C      1  0.5000260000000  0.5000780000000  0.6070060000000 1.0
C      1  0.5000260000000  0.5000780000000  0.3938420000000 1.0
END
