TITL C-862507-1800-1113 9.77725831620458 125000 -364.078925391691 0 0 66 (C1) n - 1
REM
REM in /home/nfs/bkarasulu/CARBON/AIRSS/Generating-Clusters/TERSOFF/Higher-Symm/FIRE-HFTN
REM
REM
REM
REM
REM
REM ./C.cell (b20cbc046b6831c77cfcea5457e17084)
REM AIRSS Version 0.9.1 bugfix July 2018 build 013d7b7c2542+ Fri, 06 Jul 2018 19:26:36 +0100
REM compiler GCC version 9.2.1 20190827 (Red Hat 9.2.1-1)
REM options -cpp -mtune=generic -march=x86-64 -g -O0 -fpre-include=/usr/include/finclude/math-vector-fortran.h
REM seed 1368518654 -346741471 1027490511 1976713089 1221451729 2127766039 -26541176 337422184 -636375367 -1075791696 -1602328286 -1499392124 1707301814 -1327117188 -1705879065 -365124428 409835838 2510972 -167183424 1466888512 986619738 -525511065 -1309130221 406016431 2040650729 -758352291 29382040 1887842788 -1657969804 -170691333 -1037418542 1744834262 -1296032242
REM
CELL 1.54180   50.00000   50.00000   50.00000   90.00000   90.00000   90.00000
LATT -1
SFAC C  
C      1  0.4992980000000  0.5057730000000  0.5817340000000 1.0
C      1  0.5719690000000  0.4901700000000  0.4924520000000 1.0
C      1  0.4978600000000  0.5163010000000  0.4356280000000 1.0
C      1  0.4253560000000  0.4851250000000  0.4935820000000 1.0
C      1  0.4465790000000  0.5109080000000  0.4317460000000 1.0
C      1  0.4383600000000  0.4991370000000  0.5415500000000 1.0
C      1  0.5557640000000  0.5001820000000  0.5605160000000 1.0
C      1  0.5653560000000  0.4917850000000  0.4397290000000 1.0
C      1  0.5140320000000  0.4726540000000  0.5298970000000 1.0
C      1  0.5227080000000  0.5280650000000  0.5020420000000 1.0
C      1  0.5037460000000  0.4757710000000  0.4813010000000 1.0
C      1  0.4743180000000  0.5232120000000  0.5055080000000 1.0
C      1  0.4833010000000  0.5303880000000  0.5793690000000 1.0
C      1  0.5800790000000  0.4666320000000  0.5075620000000 1.0
C      1  0.5146160000000  0.5400560000000  0.4349000000000 1.0
C      1  0.4328200000000  0.4614000000000  0.4783600000000 1.0
C      1  0.5400510000000  0.4877450000000  0.4238980000000 1.0
C      1  0.4253390000000  0.5135530000000  0.4519740000000 1.0
C      1  0.4509760000000  0.4842950000000  0.5655440000000 1.0
C      1  0.5749610000000  0.5147120000000  0.5405590000000 1.0
C      1  0.4846400000000  0.4321800000000  0.5229480000000 1.0
C      1  0.5187320000000  0.5723790000000  0.4916820000000 1.0
C      1  0.4889490000000  0.4325370000000  0.4811830000000 1.0
C      1  0.4728830000000  0.5674320000000  0.4873840000000 1.0
C      1  0.5660070000000  0.5154480000000  0.5100440000000 1.0
C      1  0.5133510000000  0.4899450000000  0.4386410000000 1.0
C      1  0.4336570000000  0.5114610000000  0.4807460000000 1.0
C      1  0.4806060000000  0.4796030000000  0.5687860000000 1.0
C      1  0.5025160000000  0.4412600000000  0.4561250000000 1.0
C      1  0.4432200000000  0.5627630000000  0.4880100000000 1.0
C      1  0.4811570000000  0.4302740000000  0.5522160000000 1.0
C      1  0.5446730000000  0.5637980000000  0.5041930000000 1.0
C      1  0.5649990000000  0.4598180000000  0.5312490000000 1.0
C      1  0.5360820000000  0.5408240000000  0.4545000000000 1.0
C      1  0.4574130000000  0.4616980000000  0.4627240000000 1.0
C      1  0.4675590000000  0.5351310000000  0.5553750000000 1.0
C      1  0.5032710000000  0.4147940000000  0.5044940000000 1.0
C      1  0.4984710000000  0.5583130000000  0.4690850000000 1.0
C      1  0.4688590000000  0.4500580000000  0.5014070000000 1.0
C      1  0.4923850000000  0.5809020000000  0.5081950000000 1.0
C      1  0.5290430000000  0.5207610000000  0.4753630000000 1.0
C      1  0.4759800000000  0.4817100000000  0.4747370000000 1.0
C      1  0.4691150000000  0.5115630000000  0.5325460000000 1.0
C      1  0.5422840000000  0.4797390000000  0.5357180000000 1.0
C      1  0.4485130000000  0.4849870000000  0.4184490000000 1.0
C      1  0.4232090000000  0.5234630000000  0.5509630000000 1.0
C      1  0.5702760000000  0.4778870000000  0.5756420000000 1.0
C      1  0.5779020000000  0.5180060000000  0.4371000000000 1.0
C      1  0.4883050000000  0.4512950000000  0.5713850000000 1.0
C      1  0.5625600000000  0.5419020000000  0.4954390000000 1.0
C      1  0.4962490000000  0.4651320000000  0.4399950000000 1.0
C      1  0.4300130000000  0.5373970000000  0.4953430000000 1.0
C      1  0.5219830000000  0.5096220000000  0.5570140000000 1.0
C      1  0.5557030000000  0.4853300000000  0.4677140000000 1.0
C      1  0.4709580000000  0.5183130000000  0.4477750000000 1.0
C      1  0.4231320000000  0.4830110000000  0.5223630000000 1.0
C      1  0.5779120000000  0.4558210000000  0.5577250000000 1.0
C      1  0.5637480000000  0.5418450000000  0.4452100000000 1.0
C      1  0.4549340000000  0.4611960000000  0.4335610000000 1.0
C      1  0.4402540000000  0.5456120000000  0.5582870000000 1.0
C      1  0.5365130000000  0.5128700000000  0.5238680000000 1.0
C      1  0.5255880000000  0.4918570000000  0.4675010000000 1.0
C      1  0.4652260000000  0.5099310000000  0.4789880000000 1.0
C      1  0.4936290000000  0.4921840000000  0.5425420000000 1.0
C      1  0.4975090000000  0.5392870000000  0.5064550000000 1.0
C      1  0.5093170000000  0.4607950000000  0.5046450000000 1.0
END
