TITL C-862129-6180-46 0.317630900626085 125000 -504.958321409451 0 0 95 (C1) n - 1
REM
REM in /home/nfs/bkarasulu/CARBON/AIRSS/Generating-Clusters/TERSOFF/Higher-Symm/FIRE-HFTN
REM
REM
REM
REM
REM
REM ./C.cell (b20cbc046b6831c77cfcea5457e17084)
REM AIRSS Version 0.9.1 bugfix July 2018 build 013d7b7c2542+ Fri, 06 Jul 2018 19:26:36 +0100
REM compiler GCC version 9.2.1 20190827 (Red Hat 9.2.1-1)
REM options -cpp -mtune=generic -march=x86-64 -g -O0 -fpre-include=/usr/include/finclude/math-vector-fortran.h
REM seed 1106698731 -32417495 727870153 945367176 904108271 -1945842117 1426730928 320804083 914354536 -87378268 276585105 -155373374 361096388 638753174 -1514316505 688403112 -2044084985 1787431150 -236351576 931420701 1860081773 -1087896854 1549831127 -993363111 -789586485 1066222188 -347779750 1346088701 2098425023 1485824520 -196885355 282822311 902005177
REM
CELL 1.54180   50.00000   50.00000   50.00000   90.00000   90.00000   90.00000
LATT -1
SFAC C  
C      1  0.5270820000000  0.4260980000000  0.5006740000000 1.0
C      1  0.4720290000000  0.5742800000000  0.4981920000000 1.0
C      1  0.4716800000000  0.4249350000000  0.4983690000000 1.0
C      1  0.5274310000000  0.5727290000000  0.5010610000000 1.0
C      1  0.4859840000000  0.5777830000000  0.4706400000000 1.0
C      1  0.5158360000000  0.4220660000000  0.4726940000000 1.0
C      1  0.5165360000000  0.5767160000000  0.4730020000000 1.0
C      1  0.4852430000000  0.4212100000000  0.4707100000000 1.0
C      1  0.5256710000000  0.5550890000000  0.4549380000000 1.0
C      1  0.4783870000000  0.4433270000000  0.4514280000000 1.0
C      1  0.4795080000000  0.5555300000000  0.4513300000000 1.0
C      1  0.5248980000000  0.4435870000000  0.4544300000000 1.0
C      1  0.5623360000000  0.4415340000000  0.4733230000000 1.0
C      1  0.4354750000000  0.5577220000000  0.4734910000000 1.0
C      1  0.4352030000000  0.4417180000000  0.4735800000000 1.0
C      1  0.5628920000000  0.5573270000000  0.4742280000000 1.0
C      1  0.5548190000000  0.4405430000000  0.5059120000000 1.0
C      1  0.4448970000000  0.5585080000000  0.5056720000000 1.0
C      1  0.4446250000000  0.4408350000000  0.5057880000000 1.0
C      1  0.5549890000000  0.5581030000000  0.5065380000000 1.0
C      1  0.5117390000000  0.5205700000000  0.4241660000000 1.0
C      1  0.4789990000000  0.4786960000000  0.4209460000000 1.0
C      1  0.4785410000000  0.5206810000000  0.4209720000000 1.0
C      1  0.5122180000000  0.4786700000000  0.4234790000000 1.0
C      1  0.5575470000000  0.4680680000000  0.5533900000000 1.0
C      1  0.4458800000000  0.5348990000000  0.5548910000000 1.0
C      1  0.4458850000000  0.4644570000000  0.5549040000000 1.0
C      1  0.5575040000000  0.5320730000000  0.5548320000000 1.0
C      1  0.5372380000000  0.4541360000000  0.5346820000000 1.0
C      1  0.4641590000000  0.5458670000000  0.5338920000000 1.0
C      1  0.4640980000000  0.4534240000000  0.5338870000000 1.0
C      1  0.5372060000000  0.5447660000000  0.5352470000000 1.0
C      1  0.4624740000000  0.5154260000000  0.5727680000000 1.0
C      1  0.5418410000000  0.4843900000000  0.5743090000000 1.0
C      1  0.5416510000000  0.5150050000000  0.5748940000000 1.0
C      1  0.4626160000000  0.4838950000000  0.5726560000000 1.0
C      1  0.4699310000000  0.5174940000000  0.4949340000000 1.0
C      1  0.5287030000000  0.4818860000000  0.4984690000000 1.0
C      1  0.5284830000000  0.5168110000000  0.4988240000000 1.0
C      1  0.4697930000000  0.4816650000000  0.4948990000000 1.0
C      1  0.5143340000000  0.4774370000000  0.5633200000000 1.0
C      1  0.4898280000000  0.5256440000000  0.5799980000000 1.0
C      1  0.4900070000000  0.4736380000000  0.5798310000000 1.0
C      1  0.5141950000000  0.5215940000000  0.5636820000000 1.0
C      1  0.5562880000000  0.4718120000000  0.5017610000000 1.0
C      1  0.4426190000000  0.5272430000000  0.5014490000000 1.0
C      1  0.4424480000000  0.4721420000000  0.5015720000000 1.0
C      1  0.5559270000000  0.5268530000000  0.5022460000000 1.0
C      1  0.4768530000000  0.5245700000000  0.4627400000000 1.0
C      1  0.5215750000000  0.4752600000000  0.4655210000000 1.0
C      1  0.5211880000000  0.5231850000000  0.4661730000000 1.0
C      1  0.4762420000000  0.4742430000000  0.4625990000000 1.0
C      1  0.5153190000000  0.5889550000000  0.5232840000000 1.0
C      1  0.4836730000000  0.4087360000000  0.5212370000000 1.0
C      1  0.4839720000000  0.5904620000000  0.5211320000000 1.0
C      1  0.5150050000000  0.4101990000000  0.5231550000000 1.0
C      1  0.4183580000000  0.4842570000000  0.4868350000000 1.0
C      1  0.5786210000000  0.5146830000000  0.4859370000000 1.0
C      1  0.5788540000000  0.4838200000000  0.4855760000000 1.0
C      1  0.4184480000000  0.5152450000000  0.4867550000000 1.0
C      1  0.5852210000000  0.4763150000000  0.5446090000000 1.0
C      1  0.4168900000000  0.5265380000000  0.5425270000000 1.0
C      1  0.4168530000000  0.4728470000000  0.5425870000000 1.0
C      1  0.5855060000000  0.5247070000000  0.5469190000000 1.0
C      1  0.5134040000000  0.4816040000000  0.5314830000000 1.0
C      1  0.4809430000000  0.5164280000000  0.5272920000000 1.0
C      1  0.4809280000000  0.4827750000000  0.5271540000000 1.0
C      1  0.5134320000000  0.5173070000000  0.5318770000000 1.0
C      1  0.5665580000000  0.5302870000000  0.4605080000000 1.0
C      1  0.4297550000000  0.4688740000000  0.4608910000000 1.0
C      1  0.4300250000000  0.5305820000000  0.4607850000000 1.0
C      1  0.5664180000000  0.4687120000000  0.4598190000000 1.0
C      1  0.4899410000000  0.4383780000000  0.4245160000000 1.0
C      1  0.5208140000000  0.5613380000000  0.4262360000000 1.0
C      1  0.5190650000000  0.4374810000000  0.4259330000000 1.0
C      1  0.4916490000000  0.5603500000000  0.4246270000000 1.0
C      1  0.3999570000000  0.4825390000000  0.5147480000000 1.0
C      1  0.5948090000000  0.5201150000000  0.5166040000000 1.0
C      1  0.5934260000000  0.4870170000000  0.5153660000000 1.0
C      1  0.4000540000000  0.5168880000000  0.5146810000000 1.0
C      1  0.5130280000000  0.4535020000000  0.5003770000000 1.0
C      1  0.4856740000000  0.5458510000000  0.4978380000000 1.0
C      1  0.4854990000000  0.4532650000000  0.4977640000000 1.0
C      1  0.5131540000000  0.5454560000000  0.5008230000000 1.0
C      1  0.5419980000000  0.4841860000000  0.4432230000000 1.0
C      1  0.4535530000000  0.5151780000000  0.4443200000000 1.0
C      1  0.4532860000000  0.4842450000000  0.4441720000000 1.0
C      1  0.5418620000000  0.5152420000000  0.4435510000000 1.0
C      1  0.5176990000000  0.5669620000000  0.5461610000000 1.0
C      1  0.4836770000000  0.4312800000000  0.5432190000000 1.0
C      1  0.4837380000000  0.5679690000000  0.5431850000000 1.0
C      1  0.5177610000000  0.4321400000000  0.5460670000000 1.0
C      1  0.4302740000000  0.4996740000000  0.5382140000000 1.0
C      1  0.5947650000000  0.4998870000000  0.5602440000000 1.0
C      1  0.4986580000000  0.4989320000000  0.4576130000000 1.0
END
