TITL C-862130-1496-544 0.0512219961019326 125000 -615.057119970813 0 0 109 (C1) n - 1
REM
REM in /home/nfs/bkarasulu/CARBON/AIRSS/Generating-Clusters/TERSOFF/Higher-Symm/FIRE-HFTN
REM
REM
REM
REM
REM
REM ./C.cell (b20cbc046b6831c77cfcea5457e17084)
REM AIRSS Version 0.9.1 bugfix July 2018 build 013d7b7c2542+ Fri, 06 Jul 2018 19:26:36 +0100
REM compiler GCC version 9.2.1 20190827 (Red Hat 9.2.1-1)
REM options -cpp -mtune=generic -march=x86-64 -g -O0 -fpre-include=/usr/include/finclude/math-vector-fortran.h
REM seed -1708446826 445572507 -995345530 851536179 -582731037 -96644930 160602837 -437941311 105327491 -936417950 -339439662 -347333468 -466521913 541837242 -2132644138 1143947789 -1057800895 -1413884068 -489230553 1153523807 1273529512 -1415785754 2059416898 -1732886902 -402660398 842997280 1295372105 -1411288321 -1185474588 1542924615 -2138601639 -500024891 1486060774
REM
CELL 1.54180   50.00000   50.00000   50.00000   90.00000   90.00000   90.00000
LATT -1
SFAC C  
C      1  0.5178000000000  0.5301240000000  0.4634030000000 1.0
C      1  0.5417800000000  0.5046930000000  0.4658510000000 1.0
C      1  0.5281130000000  0.4739740000000  0.4670990000000 1.0
C      1  0.4953860000000  0.4638200000000  0.4672840000000 1.0
C      1  0.4666610000000  0.4818160000000  0.4651940000000 1.0
C      1  0.4615550000000  0.5157480000000  0.4628980000000 1.0
C      1  0.4832230000000  0.5405840000000  0.4601350000000 1.0
C      1  0.5724350000000  0.4247660000000  0.5251450000000 1.0
C      1  0.4865330000000  0.3976190000000  0.5242930000000 1.0
C      1  0.4118670000000  0.4481760000000  0.5250020000000 1.0
C      1  0.4055940000000  0.5383970000000  0.5257600000000 1.0
C      1  0.4710230000000  0.5978990000000  0.5248170000000 1.0
C      1  0.5569390000000  0.5848150000000  0.5244170000000 1.0
C      1  0.6036870000000  0.5088710000000  0.5254930000000 1.0
C      1  0.5360060000000  0.4194760000000  0.4733810000000 1.0
C      1  0.4585260000000  0.4220430000000  0.4719460000000 1.0
C      1  0.4115260000000  0.4845630000000  0.4721640000000 1.0
C      1  0.4315770000000  0.5601390000000  0.4721850000000 1.0
C      1  0.5032180000000  0.5897730000000  0.4712740000000 1.0
C      1  0.5715160000000  0.5522770000000  0.4738810000000 1.0
C      1  0.5862980000000  0.4773430000000  0.4744640000000 1.0
C      1  0.4196160000000  0.4546420000000  0.4728070000000 1.0
C      1  0.4126650000000  0.5355710000000  0.4730520000000 1.0
C      1  0.4723740000000  0.5903470000000  0.4721930000000 1.0
C      1  0.5518370000000  0.5755000000000  0.4727120000000 1.0
C      1  0.5935130000000  0.5070950000000  0.4737920000000 1.0
C      1  0.5636350000000  0.4325830000000  0.4737940000000 1.0
C      1  0.4865440000000  0.4093000000000  0.4727020000000 1.0
C      1  0.4748520000000  0.4394320000000  0.5519430000000 1.0
C      1  0.4390690000000  0.4839040000000  0.5510100000000 1.0
C      1  0.4517770000000  0.5382340000000  0.5502910000000 1.0
C      1  0.4998340000000  0.5628720000000  0.5507690000000 1.0
C      1  0.5498090000000  0.5414190000000  0.5526250000000 1.0
C      1  0.5656370000000  0.4874000000000  0.5537930000000 1.0
C      1  0.5323110000000  0.4409840000000  0.5533950000000 1.0
C      1  0.4439230000000  0.5599290000000  0.5016410000000 1.0
C      1  0.5100900000000  0.5805540000000  0.5013130000000 1.0
C      1  0.5686720000000  0.5402050000000  0.5030050000000 1.0
C      1  0.5756570000000  0.4720690000000  0.5039320000000 1.0
C      1  0.5254850000000  0.4237900000000  0.5028140000000 1.0
C      1  0.4559450000000  0.4320150000000  0.5018320000000 1.0
C      1  0.4184360000000  0.4932380000000  0.5019190000000 1.0
C      1  0.5035700000000  0.4443810000000  0.4405350000000 1.0
C      1  0.4567160000000  0.4636920000000  0.4393200000000 1.0
C      1  0.4409230000000  0.5121190000000  0.4375720000000 1.0
C      1  0.4691140000000  0.5546470000000  0.4347870000000 1.0
C      1  0.5207470000000  0.5526150000000  0.4382370000000 1.0
C      1  0.5575250000000  0.5169770000000  0.4391760000000 1.0
C      1  0.5483850000000  0.4674780000000  0.4404330000000 1.0
C      1  0.4998290000000  0.4070120000000  0.4999390000000 1.0
C      1  0.4267210000000  0.4427580000000  0.5000410000000 1.0
C      1  0.4090990000000  0.5229300000000  0.5005830000000 1.0
C      1  0.4606260000000  0.5857370000000  0.4998480000000 1.0
C      1  0.5407960000000  0.5836600000000  0.4996440000000 1.0
C      1  0.5916550000000  0.5200500000000  0.5010010000000 1.0
C      1  0.5732090000000  0.4415100000000  0.5010680000000 1.0
C      1  0.5795390000000  0.5276070000000  0.4560380000000 1.0
C      1  0.5706090000000  0.4563580000000  0.4566670000000 1.0
C      1  0.5092460000000  0.4195090000000  0.4558730000000 1.0
C      1  0.4413660000000  0.4434720000000  0.4551810000000 1.0
C      1  0.4164770000000  0.5114630000000  0.4550540000000 1.0
C      1  0.4549220000000  0.5731310000000  0.4542010000000 1.0
C      1  0.5270820000000  0.5765560000000  0.4549540000000 1.0
C      1  0.5574680000000  0.4728370000000  0.5302060000000 1.0
C      1  0.5151240000000  0.4367140000000  0.5303490000000 1.0
C      1  0.4590550000000  0.4485680000000  0.5292380000000 1.0
C      1  0.4351430000000  0.5017440000000  0.5283030000000 1.0
C      1  0.4628810000000  0.5509080000000  0.5266480000000 1.0
C      1  0.5149530000000  0.5604490000000  0.5262890000000 1.0
C      1  0.5563640000000  0.5264580000000  0.5289490000000 1.0
C      1  0.4985930000000  0.4606760000000  0.5220330000000 1.0
C      1  0.4666640000000  0.4759560000000  0.5182690000000 1.0
C      1  0.4608310000000  0.5109100000000  0.5141610000000 1.0
C      1  0.4847470000000  0.5352150000000  0.5116470000000 1.0
C      1  0.5166040000000  0.5328520000000  0.5144770000000 1.0
C      1  0.5354750000000  0.5072610000000  0.5186370000000 1.0
C      1  0.5284040000000  0.4760880000000  0.5221110000000 1.0
C      1  0.5892110000000  0.5045070000000  0.5509400000000 1.0
C      1  0.5601170000000  0.4327200000000  0.5506500000000 1.0
C      1  0.4858000000000  0.4125650000000  0.5495890000000 1.0
C      1  0.4239440000000  0.4588730000000  0.5498370000000 1.0
C      1  0.4225150000000  0.5353150000000  0.5501370000000 1.0
C      1  0.4781800000000  0.5826960000000  0.5494380000000 1.0
C      1  0.5503160000000  0.5706110000000  0.5496550000000 1.0
C      1  0.4438660000000  0.4858570000000  0.4245860000000 1.0
C      1  0.4496010000000  0.5362190000000  0.4224190000000 1.0
C      1  0.4963060000000  0.5576940000000  0.4225430000000 1.0
C      1  0.5431570000000  0.5383400000000  0.4251780000000 1.0
C      1  0.5582520000000  0.4907990000000  0.4260250000000 1.0
C      1  0.5281640000000  0.4514930000000  0.4266260000000 1.0
C      1  0.4785390000000  0.4494880000000  0.4259410000000 1.0
C      1  0.4874280000000  0.4481860000000  0.4946820000000 1.0
C      1  0.4493360000000  0.4772250000000  0.4920420000000 1.0
C      1  0.4497140000000  0.5261210000000  0.4903830000000 1.0
C      1  0.4876470000000  0.5550070000000  0.4889340000000 1.0
C      1  0.5345600000000  0.5396680000000  0.4908140000000 1.0
C      1  0.5538160000000  0.4992290000000  0.4948170000000 1.0
C      1  0.5314880000000  0.4586450000000  0.4960030000000 1.0
C      1  0.5224630000000  0.4628340000000  0.5731270000000 1.0
C      1  0.4865950000000  0.4617570000000  0.5701050000000 1.0
C      1  0.4650580000000  0.4883450000000  0.5679170000000 1.0
C      1  0.4714100000000  0.5212310000000  0.5677140000000 1.0
C      1  0.5000050000000  0.5378990000000  0.5693900000000 1.0
C      1  0.5316420000000  0.5265210000000  0.5725740000000 1.0
C      1  0.5430400000000  0.4923990000000  0.5742000000000 1.0
C      1  0.5005930000000  0.5049650000000  0.4738890000000 1.0
C      1  0.4964450000000  0.5011760000000  0.5326470000000 1.0
C      1  0.4986520000000  0.4969270000000  0.5014220000000 1.0
C      1  0.5049310000000  0.4976360000000  0.5586720000000 1.0
END
