TITL C-862506-1665-1314 -6.48256917481932e-05 125000 -130.996166596156 0 0 30 (C2v) n - 1
REM
REM in /home/nfs/bkarasulu/CARBON/AIRSS/Generating-Clusters/TERSOFF/Higher-Symm/FIRE-HFTN
REM
REM
REM
REM
REM
REM ./C.cell (b20cbc046b6831c77cfcea5457e17084)
REM AIRSS Version 0.9.1 bugfix July 2018 build 013d7b7c2542+ Fri, 06 Jul 2018 19:26:36 +0100
REM compiler GCC version 9.2.1 20190827 (Red Hat 9.2.1-1)
REM options -cpp -mtune=generic -march=x86-64 -g -O0 -fpre-include=/usr/include/finclude/math-vector-fortran.h
REM seed 766485188 -1036906146 343439456 -1067860157 928495178 -1252060514 1136086390 177527132 1410237985 -1765901294 396281908 -1837026465 -1559770047 -1619658067 -1754735708 2137105361 1869632841 727756743 606704207 35799770 1754002720 -1293628773 5476611 -2050329144 -1381347390 1923966235 -2127428906 -598350125 1966511278 -115195482 -1926197025 908073113 1977457533
REM
CELL 1.54180   50.00000   50.00000   50.00000   90.00000   90.00000   90.00000
LATT -1
SFAC C  
C      1  0.4729680000000  0.4661500000000  0.5229280000000 1.0
C      1  0.5236810000000  0.4673200000000  0.5228210000000 1.0
C      1  0.5405850000000  0.5151480000000  0.5229280000000 1.0
C      1  0.4997750000000  0.5483140000000  0.5236040000000 1.0
C      1  0.4541590000000  0.5152590000000  0.5236040000000 1.0
C      1  0.4729680000000  0.4661500000000  0.4759390000000 1.0
C      1  0.5236810000000  0.4673200000000  0.4760460000000 1.0
C      1  0.5405850000000  0.5151480000000  0.4759390000000 1.0
C      1  0.4997750000000  0.5483140000000  0.4752620000000 1.0
C      1  0.4541590000000  0.5152590000000  0.4752620000000 1.0
C      1  0.5417290000000  0.5692940000000  0.4994330000000 1.0
C      1  0.5181830000000  0.4236550000000  0.4994330000000 1.0
C      1  0.4444440000000  0.5481770000000  0.4994330000000 1.0
C      1  0.4340390000000  0.4528360000000  0.4994330000000 1.0
C      1  0.5782810000000  0.4885750000000  0.4994330000000 1.0
C      1  0.5362350000000  0.4499950000000  0.4994330000000 1.0
C      1  0.4318380000000  0.5140780000000  0.4994330000000 1.0
C      1  0.4654120000000  0.4459290000000  0.4994330000000 1.0
C      1  0.5621530000000  0.5160310000000  0.4994330000000 1.0
C      1  0.5078470000000  0.5691570000000  0.4994330000000 1.0
C      1  0.4715180000000  0.5677960000000  0.4994330000000 1.0
C      1  0.5668870000000  0.4589480000000  0.4994330000000 1.0
C      1  0.4211570000000  0.4819230000000  0.4994330000000 1.0
C      1  0.4864810000000  0.4220530000000  0.4994330000000 1.0
C      1  0.5653590000000  0.5479950000000  0.4994330000000 1.0
C      1  0.4830460000000  0.4840060000000  0.4994330000000 1.0
C      1  0.4737140000000  0.5115030000000  0.4994330000000 1.0
C      1  0.5204790000000  0.5111300000000  0.4994330000000 1.0
C      1  0.4972540000000  0.5285610000000  0.4994330000000 1.0
C      1  0.5116090000000  0.4839790000000  0.4994330000000 1.0
END
