TITL C-862132-7359-208 -0.000381932121645424 125000 -362.023188616886 0 0 65 (Cs) n - 1
REM
REM in /home/nfs/bkarasulu/CARBON/AIRSS/Generating-Clusters/TERSOFF/Higher-Symm/FIRE-HFTN
REM
REM
REM
REM
REM
REM ./C.cell (b20cbc046b6831c77cfcea5457e17084)
REM AIRSS Version 0.9.1 bugfix July 2018 build 013d7b7c2542+ Fri, 06 Jul 2018 19:26:36 +0100
REM compiler GCC version 9.2.1 20190827 (Red Hat 9.2.1-1)
REM options -cpp -mtune=generic -march=x86-64 -g -O0 -fpre-include=/usr/include/finclude/math-vector-fortran.h
REM seed -1991700087 -860451723 -1613230566 -112400867 108114037 2020125867 500121584 -1576928500 1901886182 -1370393998 -1766831388 966091583 -152212060 -304962746 1558584368 -542996071 -28521157 -671484789 173400653 -1718099172 1109782476 -219840241 -305000596 -788892686 -1406957462 1623362380 31192992 107324379 9858269 571195238 -1281962095 1317105302 352806432
REM
CELL 1.54180   50.00000   50.00000   50.00000   90.00000   90.00000   90.00000
LATT -1
SFAC C  
C      1  0.5566370000000  0.5231250000000  0.5215290000000 1.0
C      1  0.5543040000000  0.4749720000000  0.4795610000000 1.0
C      1  0.5566260000000  0.5231180000000  0.4795600000000 1.0
C      1  0.5543150000000  0.4749790000000  0.5215440000000 1.0
C      1  0.5859680000000  0.5188040000000  0.4795510000000 1.0
C      1  0.5839720000000  0.4768790000000  0.5215340000000 1.0
C      1  0.5859790000000  0.5188110000000  0.5215240000000 1.0
C      1  0.5839610000000  0.4768720000000  0.4795560000000 1.0
C      1  0.5252990000000  0.4496160000000  0.4478280000000 1.0
C      1  0.5324100000000  0.5522340000000  0.5535620000000 1.0
C      1  0.5253250000000  0.4496330000000  0.5533000000000 1.0
C      1  0.5323840000000  0.5522170000000  0.4475290000000 1.0
C      1  0.4824060000000  0.5253620000000  0.5442860000000 1.0
C      1  0.4828510000000  0.4789370000000  0.4568470000000 1.0
C      1  0.4823840000000  0.5253470000000  0.4568390000000 1.0
C      1  0.4828730000000  0.4789510000000  0.5442920000000 1.0
C      1  0.4537160000000  0.4862640000000  0.5384170000000 1.0
C      1  0.4553400000000  0.5162440000000  0.4641740000000 1.0
C      1  0.4536970000000  0.4862520000000  0.4627350000000 1.0
C      1  0.4553590000000  0.5162560000000  0.5369680000000 1.0
C      1  0.4429680000000  0.4568890000000  0.5278820000000 1.0
C      1  0.4373330000000  0.5328280000000  0.4795860000000 1.0
C      1  0.4429550000000  0.4568800000000  0.4732850000000 1.0
C      1  0.4373440000000  0.5328350000000  0.5215590000000 1.0
C      1  0.4985060000000  0.4468020000000  0.5663270000000 1.0
C      1  0.5085140000000  0.5576110000000  0.4309230000000 1.0
C      1  0.4984730000000  0.4467810000000  0.4348160000000 1.0
C      1  0.5085490000000  0.5576330000000  0.5701790000000 1.0
C      1  0.5221870000000  0.5521920000000  0.4775300000000 1.0
C      1  0.5178100000000  0.4489030000000  0.5228180000000 1.0
C      1  0.5221990000000  0.5521990000000  0.5235660000000 1.0
C      1  0.5177990000000  0.4488960000000  0.4783130000000 1.0
C      1  0.4915830000000  0.4324830000000  0.4762810000000 1.0
C      1  0.4932510000000  0.5668060000000  0.5251490000000 1.0
C      1  0.4915950000000  0.4324910000000  0.5248700000000 1.0
C      1  0.4932390000000  0.5667980000000  0.4759580000000 1.0
C      1  0.5024220000000  0.4757200000000  0.5215610000000 1.0
C      1  0.5036870000000  0.5262820000000  0.4795590000000 1.0
C      1  0.5024120000000  0.4757130000000  0.4795700000000 1.0
C      1  0.5036970000000  0.5262880000000  0.5215550000000 1.0
C      1  0.4727470000000  0.4464980000000  0.5468490000000 1.0
C      1  0.4843240000000  0.5548140000000  0.4481200000000 1.0
C      1  0.4727230000000  0.4464830000000  0.4543060000000 1.0
C      1  0.4843510000000  0.5548310000000  0.5529940000000 1.0
C      1  0.5403310000000  0.4752780000000  0.5486860000000 1.0
C      1  0.5432810000000  0.5246840000000  0.4525600000000 1.0
C      1  0.5403070000000  0.4752630000000  0.4524260000000 1.0
C      1  0.5433050000000  0.5246990000000  0.5485350000000 1.0
C      1  0.4979690000000  0.5020510000000  0.5591890000000 1.0
C      1  0.4979400000000  0.5020320000000  0.4419360000000 1.0
C      1  0.5409130000000  0.4490210000000  0.5005600000000 1.0
C      1  0.5445240000000  0.5495850000000  0.5005430000000 1.0
C      1  0.4492310000000  0.5552540000000  0.5005660000000 1.0
C      1  0.4512260000000  0.4352780000000  0.5005850000000 1.0
C      1  0.4174980000000  0.5197730000000  0.5005800000000 1.0
C      1  0.4296820000000  0.4712020000000  0.5005850000000 1.0
C      1  0.4769780000000  0.5658770000000  0.5005570000000 1.0
C      1  0.4782010000000  0.4252870000000  0.5005800000000 1.0
C      1  0.5282610000000  0.5008350000000  0.4437160000000 1.0
C      1  0.5282900000000  0.5008540000000  0.5573940000000 1.0
C      1  0.5991040000000  0.4971880000000  0.5005380000000 1.0
C      1  0.5420590000000  0.4994990000000  0.5005520000000 1.0
C      1  0.5104570000000  0.5005310000000  0.5005590000000 1.0
C      1  0.3812440000000  0.4848940000000  0.5005940000000 1.0
C      1  0.4094410000000  0.4919590000000  0.5005860000000 1.0
END
