TITL C-862502-1143-675 -84.4323032404529 125000 -255.472372346911 0 0 50 (C3) n - 1
REM
REM in /home/nfs/bkarasulu/CARBON/AIRSS/Generating-Clusters/TERSOFF/Higher-Symm/FIRE-HFTN
REM
REM
REM
REM
REM
REM ./C.cell (b20cbc046b6831c77cfcea5457e17084)
REM AIRSS Version 0.9.1 bugfix July 2018 build 013d7b7c2542+ Fri, 06 Jul 2018 19:26:36 +0100
REM compiler GCC version 9.2.1 20190827 (Red Hat 9.2.1-1)
REM options -cpp -mtune=generic -march=x86-64 -g -O0 -fpre-include=/usr/include/finclude/math-vector-fortran.h
REM seed -1847292513 -970633186 -2007361039 1321663088 -604127867 -268841859 890309316 -1675631167 -2005013114 -70832073 2060006305 -1157825554 -1224493797 -1739821920 1109606764 -586676317 1293694332 2036401442 -569137083 -238423125 368164633 -1208585950 108632104 215332441 -1885373812 -659918960 329608924 -2086895514 -220614705 -1097957078 -306020281 2109360577 -926708220
REM
CELL 1.54180   50.00000   50.00000   50.00000   90.00000   90.00000   90.00000
LATT -1
SFAC C  
C      1  0.4372050000000  0.5202730000000  0.5739600000000 1.0
C      1  0.4372050000000  0.4259770000000  0.4810270000000 1.0
C      1  0.4372050000000  0.5536060000000  0.4458320000000 1.0
C      1  0.5562150000000  0.5209860000000  0.5735410000000 1.0
C      1  0.5562130000000  0.4259840000000  0.4818500000000 1.0
C      1  0.5562140000000  0.5528870000000  0.4454250000000 1.0
C      1  0.4704850000000  0.4739610000000  0.5521250000000 1.0
C      1  0.4704860000000  0.4680420000000  0.4518380000000 1.0
C      1  0.4704850000000  0.5578520000000  0.4968560000000 1.0
C      1  0.5271560000000  0.4735150000000  0.5526140000000 1.0
C      1  0.5271560000000  0.4678410000000  0.4512080000000 1.0
C      1  0.5271560000000  0.5584980000000  0.4969970000000 1.0
C      1  0.4841750000000  0.5677400000000  0.4723340000000 1.0
C      1  0.4841750000000  0.4902520000000  0.5729490000000 1.0
C      1  0.4841750000000  0.4418610000000  0.4555350000000 1.0
C      1  0.5133880000000  0.5679710000000  0.4723720000000 1.0
C      1  0.5133880000000  0.4901040000000  0.5731310000000 1.0
C      1  0.5133880000000  0.4417780000000  0.4553170000000 1.0
C      1  0.4811050000000  0.5341990000000  0.5513640000000 1.0
C      1  0.4811050000000  0.4385820000000  0.5043870000000 1.0
C      1  0.4811050000000  0.5270730000000  0.4450690000000 1.0
C      1  0.5121210000000  0.5327850000000  0.5501300000000 1.0
C      1  0.5121210000000  0.4403580000000  0.5037800000000 1.0
C      1  0.5121210000000  0.5267110000000  0.4469100000000 1.0
C      1  0.4840010000000  0.4474320000000  0.5512080000000 1.0
C      1  0.4840020000000  0.4821000000000  0.4293230000000 1.0
C      1  0.4840010000000  0.5703220000000  0.5202880000000 1.0
C      1  0.5132260000000  0.4472280000000  0.5513770000000 1.0
C      1  0.5132270000000  0.4820550000000  0.4290610000000 1.0
C      1  0.5132260000000  0.5705710000000  0.5203810000000 1.0
C      1  0.4651790000000  0.4216890000000  0.4870980000000 1.0
C      1  0.4651790000000  0.5504920000000  0.4390830000000 1.0
C      1  0.4651790000000  0.5276730000000  0.5746370000000 1.0
C      1  0.5295620000000  0.4206170000000  0.4917840000000 1.0
C      1  0.5295620000000  0.5469700000000  0.4358120000000 1.0
C      1  0.5295620000000  0.5322670000000  0.5732230000000 1.0
C      1  0.4699130000000  0.4845230000000  0.4770370000000 1.0
C      1  0.4699130000000  0.5277880000000  0.4985300000000 1.0
C      1  0.4699130000000  0.4875420000000  0.5252520000000 1.0
C      1  0.5291150000000  0.4842920000000  0.4764120000000 1.0
C      1  0.5291150000000  0.5284450000000  0.4986420000000 1.0
C      1  0.5291150000000  0.4871170000000  0.5257650000000 1.0
C      1  0.4830020000000  0.4708200000000  0.5020860000000 1.0
C      1  0.4830020000000  0.5129470000000  0.4741380000000 1.0
C      1  0.4830020000000  0.5160870000000  0.5245950000000 1.0
C      1  0.5162810000000  0.4715130000000  0.5019070000000 1.0
C      1  0.5162810000000  0.5127560000000  0.4748280000000 1.0
C      1  0.5162810000000  0.5155850000000  0.5240840000000 1.0
C      1  0.4470040000000  0.4999510000000  0.5002730000000 1.0
C      1  0.5513790000000  0.4999510000000  0.5002730000000 1.0
END
