TITL C-862131-2149-1103 5.33774685818664 125000 -1092.86521432161 0 0 188 (C2) n - 1
REM
REM in /home/nfs/bkarasulu/CARBON/AIRSS/Generating-Clusters/TERSOFF/Higher-Symm/FIRE-HFTN
REM
REM
REM
REM
REM
REM ./C.cell (b20cbc046b6831c77cfcea5457e17084)
REM AIRSS Version 0.9.1 bugfix July 2018 build 013d7b7c2542+ Fri, 06 Jul 2018 19:26:36 +0100
REM compiler GCC version 9.2.1 20190827 (Red Hat 9.2.1-1)
REM options -cpp -mtune=generic -march=x86-64 -g -O0 -fpre-include=/usr/include/finclude/math-vector-fortran.h
REM seed 1231299199 -2040153755 -1542627853 1169669248 1532703817 1791771217 1630520167 -1310765820 60772270 1699153439 -44794621 -1689386988 1259337707 -661890198 399724304 143379407 1058601063 -109849037 -1628397274 307709308 -1043527859 -1553352400 1618579572 581167224 -1595918513 1163332149 -1976875011 -171917690 2134166516 -1643706895 -19370409 -1136425611 -1228311174
REM
CELL 1.54180   50.00000   50.00000   50.00000   90.00000   90.00000   90.00000
LATT -1
SFAC C  
C      1  0.4504670000000  0.4140840000000  0.4440020000000 1.0
C      1  0.5495330000000  0.4140840000000  0.5559980000000 1.0
C      1  0.3962970000000  0.4911090000000  0.5048250000000 1.0
C      1  0.6037030000000  0.4911090000000  0.4951750000000 1.0
C      1  0.4861230000000  0.5065150000000  0.3634380000000 1.0
C      1  0.5138770000000  0.5065150000000  0.6365620000000 1.0
C      1  0.5392180000000  0.4234010000000  0.5825450000000 1.0
C      1  0.4607820000000  0.4234010000000  0.4174550000000 1.0
C      1  0.5645180000000  0.6104540000000  0.4994330000000 1.0
C      1  0.4354820000000  0.6104540000000  0.5005670000000 1.0
C      1  0.5866340000000  0.5038300000000  0.4412840000000 1.0
C      1  0.4133660000000  0.5038300000000  0.5587160000000 1.0
C      1  0.5786600000000  0.4878970000000  0.5171480000000 1.0
C      1  0.4213400000000  0.4878970000000  0.4828520000000 1.0
C      1  0.5736890000000  0.4311580000000  0.5498680000000 1.0
C      1  0.4263110000000  0.4311580000000  0.4501320000000 1.0
C      1  0.4408820000000  0.4795900000000  0.3857800000000 1.0
C      1  0.5591180000000  0.4795900000000  0.6142200000000 1.0
C      1  0.4861440000000  0.5165570000000  0.6331720000000 1.0
C      1  0.5138560000000  0.5165570000000  0.3668280000000 1.0
C      1  0.6362320000000  0.5208330000000  0.5581280000000 1.0
C      1  0.3637680000000  0.5208330000000  0.4418720000000 1.0
C      1  0.3969690000000  0.5452810000000  0.4716760000000 1.0
C      1  0.6030310000000  0.5452810000000  0.5283240000000 1.0
C      1  0.4467460000000  0.5201430000000  0.3949590000000 1.0
C      1  0.5532540000000  0.5201430000000  0.6050410000000 1.0
C      1  0.5552390000000  0.6109010000000  0.4491880000000 1.0
C      1  0.4447610000000  0.6109010000000  0.5508120000000 1.0
C      1  0.4998990000000  0.5551120000000  0.4034140000000 1.0
C      1  0.5001010000000  0.5551120000000  0.5965860000000 1.0
C      1  0.5709840000000  0.5031950000000  0.4150390000000 1.0
C      1  0.4290160000000  0.5031950000000  0.5849610000000 1.0
C      1  0.3999490000000  0.5267160000000  0.5442960000000 1.0
C      1  0.6000510000000  0.5267160000000  0.4557040000000 1.0
C      1  0.4613900000000  0.5076670000000  0.4420000000000 1.0
C      1  0.5386100000000  0.5076670000000  0.5580000000000 1.0
C      1  0.4861020000000  0.4248830000000  0.5001900000000 1.0
C      1  0.5138980000000  0.4248830000000  0.4998100000000 1.0
C      1  0.5003740000000  0.4383830000000  0.5498640000000 1.0
C      1  0.4996260000000  0.4383830000000  0.4501360000000 1.0
C      1  0.4558640000000  0.5257170000000  0.4868660000000 1.0
C      1  0.5441360000000  0.5257170000000  0.5131340000000 1.0
C      1  0.4723720000000  0.5691850000000  0.4039990000000 1.0
C      1  0.5276280000000  0.5691850000000  0.5960010000000 1.0
C      1  0.4510280000000  0.5481250000000  0.5044410000000 1.0
C      1  0.5489720000000  0.5481250000000  0.4955590000000 1.0
C      1  0.4715930000000  0.4829200000000  0.4524380000000 1.0
C      1  0.5284070000000  0.4829200000000  0.5475620000000 1.0
C      1  0.4675700000000  0.5285380000000  0.4606010000000 1.0
C      1  0.5324300000000  0.5285380000000  0.5393990000000 1.0
C      1  0.4477030000000  0.4575960000000  0.5886890000000 1.0
C      1  0.5522970000000  0.4575960000000  0.4113110000000 1.0
C      1  0.4580470000000  0.3877950000000  0.4866230000000 1.0
C      1  0.5419530000000  0.3877950000000  0.5133770000000 1.0
C      1  0.5803750000000  0.4575810000000  0.5048260000000 1.0
C      1  0.4196250000000  0.4575810000000  0.4951740000000 1.0
C      1  0.5014400000000  0.4490220000000  0.4062220000000 1.0
C      1  0.4985600000000  0.4490220000000  0.5937780000000 1.0
C      1  0.5989020000000  0.5421740000000  0.5000410000000 1.0
C      1  0.4010980000000  0.5421740000000  0.4999590000000 1.0
C      1  0.5122380000000  0.6285220000000  0.5226830000000 1.0
C      1  0.4877620000000  0.6285220000000  0.4773170000000 1.0
C      1  0.4234960000000  0.5589020000000  0.5114920000000 1.0
C      1  0.5765040000000  0.5589020000000  0.4885080000000 1.0
C      1  0.5082210000000  0.4098100000000  0.4334620000000 1.0
C      1  0.4917790000000  0.4098100000000  0.5665380000000 1.0
C      1  0.4534540000000  0.5578400000000  0.5801200000000 1.0
C      1  0.5465460000000  0.5578410000000  0.4198800000000 1.0
C      1  0.5894440000000  0.4587900000000  0.4475470000000 1.0
C      1  0.4105560000000  0.4587900000000  0.5524530000000 1.0
C      1  0.5061910000000  0.4637200000000  0.5137600000000 1.0
C      1  0.4938090000000  0.4637200000000  0.4862400000000 1.0
C      1  0.4480220000000  0.4111100000000  0.5302020000000 1.0
C      1  0.5519780000000  0.4111100000000  0.4697980000000 1.0
C      1  0.5797570000000  0.5399480000000  0.5791690000000 1.0
C      1  0.4202430000000  0.5399480000000  0.4208310000000 1.0
C      1  0.4677800000000  0.6167550000000  0.4970110000000 1.0
C      1  0.5322200000000  0.6167550000000  0.5029890000000 1.0
C      1  0.4701970000000  0.4453100000000  0.6031830000000 1.0
C      1  0.5298030000000  0.4453100000000  0.3968170000000 1.0
C      1  0.5981800000000  0.4605910000000  0.4765040000000 1.0
C      1  0.4018200000000  0.4605910000000  0.5234960000000 1.0
C      1  0.5046090000000  0.5361240000000  0.5427610000000 1.0
C      1  0.4953910000000  0.5361240000000  0.4572390000000 1.0
C      1  0.4126010000000  0.4326500000000  0.4767980000000 1.0
C      1  0.5873990000000  0.4326500000000  0.5232020000000 1.0
C      1  0.4921600000000  0.5729240000000  0.4883490000000 1.0
C      1  0.5078400000000  0.5729240000000  0.5116510000000 1.0
C      1  0.4784260000000  0.5406180000000  0.6176140000000 1.0
C      1  0.5215740000000  0.5406180000000  0.3823860000000 1.0
C      1  0.5137670000000  0.5813290000000  0.4449090000000 1.0
C      1  0.4862330000000  0.5813290000000  0.5550910000000 1.0
C      1  0.6180310000000  0.4451460000000  0.5190530000000 1.0
C      1  0.3819690000000  0.4451460000000  0.4809470000000 1.0
C      1  0.4687310000000  0.5881830000000  0.4878400000000 1.0
C      1  0.5312680000000  0.5881830000000  0.5121600000000 1.0
C      1  0.5161800000000  0.6200910000000  0.4765650000000 1.0
C      1  0.4838200000000  0.6200910000000  0.5234350000000 1.0
C      1  0.5560720000000  0.4502900000000  0.5955450000000 1.0
C      1  0.4439280000000  0.4502900000000  0.4044550000000 1.0
C      1  0.4272510000000  0.6166390000000  0.5283540000000 1.0
C      1  0.5727480000000  0.6166390000000  0.4716460000000 1.0
C      1  0.6194550000000  0.4416700000000  0.4886170000000 1.0
C      1  0.3805450000000  0.4416700000000  0.5113830000000 1.0
C      1  0.4565980000000  0.5752340000000  0.4290850000000 1.0
C      1  0.5434020000000  0.5752340000000  0.5709150000000 1.0
C      1  0.4639920000000  0.4063050000000  0.5744840000000 1.0
C      1  0.5360080000000  0.4063050000000  0.4255160000000 1.0
C      1  0.5481630000000  0.4855570000000  0.4154330000000 1.0
C      1  0.4518370000000  0.4855570000000  0.5845670000000 1.0
C      1  0.4297240000000  0.3851370000000  0.4905010000000 1.0
C      1  0.5702760000000  0.3851370000000  0.5094980000000 1.0
C      1  0.5710290000000  0.5240350000000  0.3951250000000 1.0
C      1  0.4289710000000  0.5240350000000  0.6048750000000 1.0
C      1  0.5778340000000  0.5116630000000  0.5720620000000 1.0
C      1  0.4221660000000  0.5116630000000  0.4279380000000 1.0
C      1  0.5157400000000  0.5136260000000  0.4530670000000 1.0
C      1  0.4842600000000  0.5136260000000  0.5469330000000 1.0
C      1  0.5206640000000  0.5696710000000  0.4203000000000 1.0
C      1  0.4793360000000  0.5696710000000  0.5797000000000 1.0
C      1  0.4559880000000  0.5205220000000  0.5431540000000 1.0
C      1  0.5440120000000  0.5205220000000  0.4568460000000 1.0
C      1  0.3793460000000  0.4756390000000  0.4828100000000 1.0
C      1  0.6206540000000  0.4756390000000  0.5171900000000 1.0
C      1  0.5771590000000  0.4517740000000  0.5703520000000 1.0
C      1  0.4228410000000  0.4517740000000  0.4296480000000 1.0
C      1  0.3914150000000  0.5190040000000  0.5158710000000 1.0
C      1  0.6085850000000  0.5190040000000  0.4841290000000 1.0
C      1  0.5256050000000  0.4373580000000  0.5257930000000 1.0
C      1  0.4743950000000  0.4373580000000  0.4742070000000 1.0
C      1  0.5504080000000  0.5442160000000  0.3944150000000 1.0
C      1  0.4495920000000  0.5442160000000  0.6055850000000 1.0
C      1  0.5815510000000  0.5519800000000  0.4580860000000 1.0
C      1  0.4184490000000  0.5519800000000  0.5419140000000 1.0
C      1  0.5886930000000  0.4072120000000  0.5070980000000 1.0
C      1  0.4113070000000  0.4072120000000  0.4929020000000 1.0
C      1  0.5539380000000  0.4998210000000  0.5064130000000 1.0
C      1  0.4460620000000  0.4998210000000  0.4935870000000 1.0
C      1  0.5230410000000  0.4593350000000  0.6074560000000 1.0
C      1  0.4769590000000  0.4593350000000  0.3925440000000 1.0
C      1  0.5850170000000  0.5688650000000  0.5381590000000 1.0
C      1  0.4149830000000  0.5688650000000  0.4618410000000 1.0
C      1  0.4733110000000  0.6063780000000  0.5465830000000 1.0
C      1  0.5266890000000  0.6063780000000  0.4534170000000 1.0
C      1  0.5010420000000  0.3976860000000  0.4603220000000 1.0
C      1  0.4989580000000  0.3976860000000  0.5396780000000 1.0
C      1  0.5573280000000  0.4172560000000  0.4417560000000 1.0
C      1  0.4426720000000  0.4172560000000  0.5582440000000 1.0
C      1  0.4417460000000  0.4739360000000  0.5268870000000 1.0
C      1  0.5582540000000  0.4739360000000  0.4731130000000 1.0
C      1  0.5104070000000  0.4221930000000  0.5872690000000 1.0
C      1  0.4895930000000  0.4221930000000  0.4127310000000 1.0
C      1  0.4995350000000  0.4834980000000  0.5372960000000 1.0
C      1  0.5004650000000  0.4834980000000  0.4627040000000 1.0
C      1  0.4248850000000  0.5828490000000  0.4904790000000 1.0
C      1  0.5751150000000  0.5828490000000  0.5095210000000 1.0
C      1  0.5061800000000  0.5260110000000  0.5896820000000 1.0
C      1  0.4938200000000  0.5260110000000  0.4103180000000 1.0
C      1  0.5907100000000  0.4979040000000  0.5469730000000 1.0
C      1  0.4092900000000  0.4979040000000  0.4530270000000 1.0
C      1  0.4973080000000  0.5629970000000  0.5356410000000 1.0
C      1  0.5026920000000  0.5629970000000  0.4643590000000 1.0
C      1  0.4308930000000  0.5619820000000  0.4368750000000 1.0
C      1  0.5691070000000  0.5619820000000  0.5631250000000 1.0
C      1  0.4365740000000  0.4989580000000  0.5404340000000 1.0
C      1  0.5634260000000  0.4989580000000  0.4595660000000 1.0
C      1  0.4040450000000  0.4738390000000  0.4342090000000 1.0
C      1  0.5959550000000  0.4738390000000  0.5657910000000 1.0
C      1  0.4718320000000  0.4887720000000  0.3826900000000 1.0
C      1  0.5281680000000  0.4887720000000  0.6173100000000 1.0
C      1  0.5672580000000  0.4436380000000  0.4332070000000 1.0
C      1  0.4327420000000  0.4436380000000  0.5667930000000 1.0
C      1  0.5247230000000  0.4067230000000  0.4800780000000 1.0
C      1  0.4752770000000  0.4067230000000  0.5199220000000 1.0
C      1  0.4562950000000  0.4596160000000  0.4611460000000 1.0
C      1  0.5437050000000  0.4596160000000  0.5388540000000 1.0
C      1  0.5294770000000  0.4050530000000  0.5333770000000 1.0
C      1  0.4705230000000  0.4050530000000  0.4666230000000 1.0
C      1  0.4950250000000  0.4651940000000  0.5658490000000 1.0
C      1  0.5049750000000  0.4651940000000  0.4341510000000 1.0
C      1  0.6105570000000  0.5217690000000  0.5445380000000 1.0
C      1  0.3894430000000  0.5217690000000  0.4554620000000 1.0
C      1  0.4675160000000  0.5155190000000  0.4147550000000 1.0
C      1  0.5324840000000  0.5155190000000  0.5852450000000 1.0
C      1  0.4442110000000  0.5455850000000  0.5546790000000 1.0
C      1  0.5557890000000  0.5455850000000  0.4453210000000 1.0
C      1  0.4786520000000  0.4923720000000  0.5725690000000 1.0
C      1  0.5213480000000  0.4923720000000  0.4274310000000 1.0
END
