TITL C-862127-1500-1149 456913.905456178 125000 -452.994594592156 0 0 85 (C1) n - 1
REM
REM in /home/nfs/bkarasulu/CARBON/AIRSS/Generating-Clusters/TERSOFF/Higher-Symm/FIRE-HFTN
REM
REM
REM
REM
REM
REM ./C.cell (b20cbc046b6831c77cfcea5457e17084)
REM AIRSS Version 0.9.1 bugfix July 2018 build 013d7b7c2542+ Fri, 06 Jul 2018 19:26:36 +0100
REM compiler GCC version 9.2.1 20190827 (Red Hat 9.2.1-1)
REM options -cpp -mtune=generic -march=x86-64 -g -O0 -fpre-include=/usr/include/finclude/math-vector-fortran.h
REM seed 1236472230 -966084748 1595791830 -412765278 1816154803 773046688 -1369329465 -101033823 1492013952 1311716327 -252503440 -776386034 713119026 1830387091 -415401807 -1449358991 -1375821476 -597429324 -553972355 2059909663 -123801333 583549695 205785345 -1936298035 -1619317771 -1614048144 -521654619 202143528 -395755943 -1448390647 -319039228 -1339510456 1875568504
REM
CELL 1.54180   50.00000   50.00000   50.00000   90.00000   90.00000   90.00000
LATT -1
SFAC C  
C      1  0.4904820000000  0.5843080000000  0.5042070000000 1.0
C      1  0.5784100000000  0.4662270000000  0.5038360000000 1.0
C      1  0.4324120000000  0.4485070000000  0.5052530000000 1.0
C      1  0.5251710000000  0.4228950000000  0.4701630000000 1.0
C      1  0.4205950000000  0.5158690000000  0.4710210000000 1.0
C      1  0.5538590000000  0.5596210000000  0.4693900000000 1.0
C      1  0.4309780000000  0.4552230000000  0.5348010000000 1.0
C      1  0.4976780000000  0.5827740000000  0.5336950000000 1.0
C      1  0.5738340000000  0.4614800000000  0.5334640000000 1.0
C      1  0.4752440000000  0.4823780000000  0.5554490000000 1.0
C      1  0.4998110000000  0.5312040000000  0.5564890000000 1.0
C      1  0.5281400000000  0.4864810000000  0.5551300000000 1.0
C      1  0.4718250000000  0.5128020000000  0.5905060000000 1.0
C      1  0.5290670000000  0.5158750000000  0.5904840000000 1.0
C      1  0.5036680000000  0.4667260000000  0.5907180000000 1.0
C      1  0.4624160000000  0.5710040000000  0.4942140000000 1.0
C      1  0.5808080000000  0.4970180000000  0.4931220000000 1.0
C      1  0.4578170000000  0.4309770000000  0.4943780000000 1.0
C      1  0.5132990000000  0.5839980000000  0.4863790000000 1.0
C      1  0.5666530000000  0.4461840000000  0.4865290000000 1.0
C      1  0.4205370000000  0.4684370000000  0.4878760000000 1.0
C      1  0.4550510000000  0.4987870000000  0.5053250000000 1.0
C      1  0.5222360000000  0.5391630000000  0.5046210000000 1.0
C      1  0.5235100000000  0.4610720000000  0.5047010000000 1.0
C      1  0.5303630000000  0.5108550000000  0.4243760000000 1.0
C      1  0.4940140000000  0.4670050000000  0.4248000000000 1.0
C      1  0.4741120000000  0.5205880000000  0.4249960000000 1.0
C      1  0.4567250000000  0.5310070000000  0.5435050000000 1.0
C      1  0.5501300000000  0.5217410000000  0.5423640000000 1.0
C      1  0.4953860000000  0.4460830000000  0.5431040000000 1.0
C      1  0.4435790000000  0.4832720000000  0.4109930000000 1.0
C      1  0.5129610000000  0.5556950000000  0.4099800000000 1.0
C      1  0.5414140000000  0.4594760000000  0.4100600000000 1.0
C      1  0.5321780000000  0.5621990000000  0.4879070000000 1.0
C      1  0.5383630000000  0.4406660000000  0.4883300000000 1.0
C      1  0.4297790000000  0.4957790000000  0.4892440000000 1.0
C      1  0.5215620000000  0.4563690000000  0.4317030000000 1.0
C      1  0.4511430000000  0.5021850000000  0.4323860000000 1.0
C      1  0.5259340000000  0.5400320000000  0.4313930000000 1.0
C      1  0.4554480000000  0.5582480000000  0.4647380000000 1.0
C      1  0.5726540000000  0.5090300000000  0.4637090000000 1.0
C      1  0.4719590000000  0.4318680000000  0.4648110000000 1.0
C      1  0.5406100000000  0.4893260000000  0.5023720000000 1.0
C      1  0.4709810000000  0.4698330000000  0.5031500000000 1.0
C      1  0.4890060000000  0.5397600000000  0.5029620000000 1.0
C      1  0.4985730000000  0.4728910000000  0.4929710000000 1.0
C      1  0.4776560000000  0.5142450000000  0.4932000000000 1.0
C      1  0.5237420000000  0.5115610000000  0.4929760000000 1.0
C      1  0.4909980000000  0.4472430000000  0.5722210000000 1.0
C      1  0.4611230000000  0.5340040000000  0.5725870000000 1.0
C      1  0.5520700000000  0.5168700000000  0.5714920000000 1.0
C      1  0.4286030000000  0.5172410000000  0.4437090000000 1.0
C      1  0.5504300000000  0.5521490000000  0.4421280000000 1.0
C      1  0.5199810000000  0.4292440000000  0.4428730000000 1.0
C      1  0.4722830000000  0.5499660000000  0.4383630000000 1.0
C      1  0.5569600000000  0.4981110000000  0.4376510000000 1.0
C      1  0.4699100000000  0.4505940000000  0.4385780000000 1.0
C      1  0.4596170000000  0.4743900000000  0.5787100000000 1.0
C      1  0.5037120000000  0.5476790000000  0.5800150000000 1.0
C      1  0.5425570000000  0.4765230000000  0.5782420000000 1.0
C      1  0.5062520000000  0.5300540000000  0.4528960000000 1.0
C      1  0.5230070000000  0.4786720000000  0.4528470000000 1.0
C      1  0.4700310000000  0.4898820000000  0.4533480000000 1.0
C      1  0.4709390000000  0.4461790000000  0.5230930000000 1.0
C      1  0.4687570000000  0.5520240000000  0.5229940000000 1.0
C      1  0.5615750000000  0.5006870000000  0.5218710000000 1.0
C      1  0.4600480000000  0.4710740000000  0.4738860000000 1.0
C      1  0.4952830000000  0.5483290000000  0.4734580000000 1.0
C      1  0.5445740000000  0.4792830000000  0.4730830000000 1.0
C      1  0.5201870000000  0.5661250000000  0.5451230000000 1.0
C      1  0.5482580000000  0.4509090000000  0.5454490000000 1.0
C      1  0.4342510000000  0.4828870000000  0.5463320000000 1.0
C      1  0.5316270000000  0.5423980000000  0.5314710000000 1.0
C      1  0.5220580000000  0.4521010000000  0.5317910000000 1.0
C      1  0.4482740000000  0.5048570000000  0.5324090000000 1.0
C      1  0.5000670000000  0.4994310000000  0.5254490000000 1.0
C      1  0.4997910000000  0.4995560000000  0.4547520000000 1.0
C      1  0.4934780000000  0.4885130000000  0.6417810000000 1.0
C      1  0.5006800000000  0.5007000000000  0.5562110000000 1.0
C      1  0.4998880000000  0.4996040000000  0.4831890000000 1.0
C      1  0.5014790000000  0.4979060000000  0.5890410000000 1.0
C      1  0.4993300000000  0.4994140000000  0.4129180000000 1.0
C      1  0.5008940000000  0.5062020000000  0.6200920000000 1.0
C      1  0.4989530000000  0.4993880000000  0.3830470000000 1.0
C      1  0.5220040000000  0.4944750000000  0.3662420000000 1.0
END
