TITL C-862501-1041-826 8983.67055512821 125000 -364.580474531167 0 0 67 (C3) n - 1
REM
REM in /home/nfs/bkarasulu/CARBON/AIRSS/Generating-Clusters/TERSOFF/Higher-Symm/FIRE-HFTN
REM
REM
REM
REM
REM
REM ./C.cell (b20cbc046b6831c77cfcea5457e17084)
REM AIRSS Version 0.9.1 bugfix July 2018 build 013d7b7c2542+ Fri, 06 Jul 2018 19:26:36 +0100
REM compiler GCC version 9.2.1 20190827 (Red Hat 9.2.1-1)
REM options -cpp -mtune=generic -march=x86-64 -g -O0 -fpre-include=/usr/include/finclude/math-vector-fortran.h
REM seed 762832599 1765337383 -1214440219 1661296298 1430207576 1160243790 168392668 1378163914 1166978913 -1391780030 638680374 -1204485288 892587373 -439455635 2013221431 808018794 1508406428 1264188911 1548456270 890004845 826862179 1033661606 -464548128 1948429771 334611372 -342577181 -1391470191 770885848 919632380 -944596400 -1853504994 -365756393 89407317
REM
CELL 1.54180   50.00000   50.00000   50.00000   90.00000   90.00000   90.00000
LATT -1
SFAC C  
C      1  0.5542780000000  0.4438490000000  0.4958690000000 1.0
C      1  0.4237340000000  0.4811920000000  0.4958640000000 1.0
C      1  0.5213460000000  0.5755770000000  0.4958710000000 1.0
C      1  0.4660670000000  0.5230760000000  0.4780590000000 1.0
C      1  0.5364510000000  0.5179740000000  0.4780630000000 1.0
C      1  0.4968410000000  0.4595700000000  0.4780580000000 1.0
C      1  0.4247390000000  0.5094820000000  0.5061610000000 1.0
C      1  0.5453410000000  0.5605600000000  0.5061680000000 1.0
C      1  0.5292740000000  0.4305750000000  0.5061630000000 1.0
C      1  0.5546170000000  0.4832700000000  0.5271090000000 1.0
C      1  0.4577030000000  0.4611860000000  0.5271030000000 1.0
C      1  0.4870330000000  0.5561590000000  0.5271070000000 1.0
C      1  0.4254230000000  0.5220880000000  0.5568620000000 1.0
C      1  0.5559150000000  0.5536600000000  0.5568700000000 1.0
C      1  0.5180100000000  0.4248630000000  0.5568640000000 1.0
C      1  0.5113160000000  0.4620310000000  0.5385000000000 1.0
C      1  0.4609590000000  0.5093050000000  0.5384980000000 1.0
C      1  0.5270780000000  0.5292780000000  0.5385020000000 1.0
C      1  0.4669150000000  0.4682380000000  0.4770310000000 1.0
C      1  0.4885370000000  0.5446590000000  0.4770350000000 1.0
C      1  0.5439080000000  0.4877230000000  0.4770360000000 1.0
C      1  0.5493450000000  0.5232700000000  0.5594680000000 1.0
C      1  0.4949780000000  0.4457490000000  0.5594650000000 1.0
C      1  0.4550260000000  0.5315930000000  0.5594650000000 1.0
C      1  0.5548380000000  0.4727840000000  0.5007240000000 1.0
C      1  0.4485120000000  0.4662400000000  0.5007190000000 1.0
C      1  0.4960060000000  0.5615940000000  0.5007240000000 1.0
C      1  0.4367100000000  0.5280700000000  0.4840530000000 1.0
C      1  0.5554550000000  0.5409010000000  0.4840590000000 1.0
C      1  0.5071940000000  0.4316480000000  0.4840520000000 1.0
C      1  0.5331210000000  0.4793840000000  0.5455300000000 1.0
C      1  0.4650850000000  0.4817440000000  0.5455260000000 1.0
C      1  0.5011460000000  0.5394850000000  0.5455290000000 1.0
C      1  0.5235500000000  0.5762510000000  0.4651060000000 1.0
C      1  0.5537620000000  0.4416050000000  0.4651040000000 1.0
C      1  0.4220500000000  0.4827640000000  0.4650990000000 1.0
C      1  0.4542090000000  0.5608900000000  0.5528790000000 1.0
C      1  0.5751260000000  0.5093310000000  0.5528820000000 1.0
C      1  0.4700150000000  0.4303940000000  0.5528760000000 1.0
C      1  0.5277860000000  0.4147210000000  0.5310890000000 1.0
C      1  0.4117520000000  0.5186950000000  0.5310880000000 1.0
C      1  0.5598120000000  0.5671990000000  0.5310970000000 1.0
C      1  0.4595240000000  0.5992120000000  0.4665230000000 1.0
C      1  0.6056600000000  0.4855730000000  0.4665290000000 1.0
C      1  0.4342010000000  0.4158290000000  0.4665130000000 1.0
C      1  0.4442080000000  0.4642780000000  0.4513510000000 1.0
C      1  0.4964620000000  0.5663060000000  0.4513560000000 1.0
C      1  0.5586940000000  0.4700390000000  0.4513570000000 1.0
C      1  0.5274560000000  0.4272910000000  0.4610470000000 1.0
C      1  0.4228060000000  0.5127030000000  0.4610450000000 1.0
C      1  0.5491000000000  0.5606270000000  0.4610520000000 1.0
C      1  0.5073410000000  0.5189520000000  0.4344790000000 1.0
C      1  0.5122460000000  0.4842960000000  0.4344780000000 1.0
C      1  0.4797800000000  0.4973760000000  0.4344760000000 1.0
C      1  0.4575430000000  0.4778900000000  0.4283020000000 1.0
C      1  0.5015850000000  0.5479530000000  0.4283060000000 1.0
C      1  0.5402400000000  0.4747810000000  0.4283060000000 1.0
C      1  0.5869800000000  0.4765100000000  0.4463610000000 1.0
C      1  0.4356700000000  0.4365460000000  0.4463520000000 1.0
C      1  0.4767150000000  0.5875670000000  0.4463580000000 1.0
C      1  0.5113600000000  0.5256970000000  0.4642820000000 1.0
C      1  0.5160760000000  0.4774400000000  0.4642800000000 1.0
C      1  0.4719260000000  0.4974850000000  0.4642780000000 1.0
C      1  0.5291010000000  0.4986250000000  0.5671360000000 1.0
C      1  0.4837560000000  0.4756030000000  0.5671330000000 1.0
C      1  0.4864910000000  0.5263840000000  0.5671350000000 1.0
C      1  0.4997820000000  0.5002040000000  0.5743460000000 1.0
END
