TITL C-862128-1543-114 -0.00647211820557854 125000 -511.906848279333 0 0 100 (C1) n - 1
REM
REM in /home/nfs/bkarasulu/CARBON/AIRSS/Generating-Clusters/TERSOFF/Higher-Symm/FIRE-HFTN
REM
REM
REM
REM
REM
REM ./C.cell (b20cbc046b6831c77cfcea5457e17084)
REM AIRSS Version 0.9.1 bugfix July 2018 build 013d7b7c2542+ Fri, 06 Jul 2018 19:26:36 +0100
REM compiler GCC version 9.2.1 20190827 (Red Hat 9.2.1-1)
REM options -cpp -mtune=generic -march=x86-64 -g -O0 -fpre-include=/usr/include/finclude/math-vector-fortran.h
REM seed 1506021687 -1060287172 601126797 -1647919797 -1196751738 1061477819 640794783 776238128 -859047338 992388582 900235137 1689696830 94152423 1338719172 -1305105821 1685643870 781180594 -2138324176 -1144042355 -1821127606 -253321962 -24958448 548995175 -582365548 -2064901636 -181942276 -43366563 1820684503 681208584 1109122555 1954871494 -1647464617 -1867326140
REM
CELL 1.54180   50.00000   50.00000   50.00000   90.00000   90.00000   90.00000
LATT -1
SFAC C  
C      1  0.4188300000000  0.4720970000000  0.5443070000000 1.0
C      1  0.5522970000000  0.4276380000000  0.4713820000000 1.0
C      1  0.4635310000000  0.5557070000000  0.4345450000000 1.0
C      1  0.5796300000000  0.5258570000000  0.5473930000000 1.0
C      1  0.5747880000000  0.4731780000000  0.4504990000000 1.0
C      1  0.4231680000000  0.5237230000000  0.4494740000000 1.0
C      1  0.4356630000000  0.5681030000000  0.4743710000000 1.0
C      1  0.4471680000000  0.4294180000000  0.5289970000000 1.0
C      1  0.5618560000000  0.5711900000000  0.5293240000000 1.0
C      1  0.5440460000000  0.4430270000000  0.4230420000000 1.0
C      1  0.5359530000000  0.5488990000000  0.5708760000000 1.0
C      1  0.4610880000000  0.4589960000000  0.5723030000000 1.0
C      1  0.4637080000000  0.4341570000000  0.5561010000000 1.0
C      1  0.4188550000000  0.5438340000000  0.4728370000000 1.0
C      1  0.5523050000000  0.4708150000000  0.4277400000000 1.0
C      1  0.5366070000000  0.5712250000000  0.5490500000000 1.0
C      1  0.4609010000000  0.5718180000000  0.4594330000000 1.0
C      1  0.5440880000000  0.4226260000000  0.4436410000000 1.0
C      1  0.5747290000000  0.4501830000000  0.4735520000000 1.0
C      1  0.4229670000000  0.4486980000000  0.5242850000000 1.0
C      1  0.5801830000000  0.5472680000000  0.5260870000000 1.0
C      1  0.4471850000000  0.5284890000000  0.4298710000000 1.0
C      1  0.5612030000000  0.5293440000000  0.5712340000000 1.0
C      1  0.4358740000000  0.4740260000000  0.5684370000000 1.0
C      1  0.5396560000000  0.5673340000000  0.4825320000000 1.0
C      1  0.4864060000000  0.5413220000000  0.5688340000000 1.0
C      1  0.5631600000000  0.4801890000000  0.5440520000000 1.0
C      1  0.4624880000000  0.4300080000000  0.4793330000000 1.0
C      1  0.4620740000000  0.5679810000000  0.5209210000000 1.0
C      1  0.5374870000000  0.4340740000000  0.5224600000000 1.0
C      1  0.5137120000000  0.4623760000000  0.5677310000000 1.0
C      1  0.5171870000000  0.5479690000000  0.4338240000000 1.0
C      1  0.4906150000000  0.4576480000000  0.4319970000000 1.0
C      1  0.4333540000000  0.5195320000000  0.5455960000000 1.0
C      1  0.4343130000000  0.4767180000000  0.4519540000000 1.0
C      1  0.5653240000000  0.5221970000000  0.4538290000000 1.0
C      1  0.5644980000000  0.5437370000000  0.4791820000000 1.0
C      1  0.5384940000000  0.4834240000000  0.5670340000000 1.0
C      1  0.4880960000000  0.5654630000000  0.5430940000000 1.0
C      1  0.4342230000000  0.4517710000000  0.4765850000000 1.0
C      1  0.5644290000000  0.4545840000000  0.5232430000000 1.0
C      1  0.4343410000000  0.5448010000000  0.5208150000000 1.0
C      1  0.4597000000000  0.5189490000000  0.5704430000000 1.0
C      1  0.5377250000000  0.5220610000000  0.4334480000000 1.0
C      1  0.4625270000000  0.4792790000000  0.4299960000000 1.0
C      1  0.5171880000000  0.4343150000000  0.5482000000000 1.0
C      1  0.4906810000000  0.4321290000000  0.4578430000000 1.0
C      1  0.5140090000000  0.5684180000000  0.4615020000000 1.0
C      1  0.5419910000000  0.4996300000000  0.5247450000000 1.0
C      1  0.5215830000000  0.5442240000000  0.4949100000000 1.0
C      1  0.5025420000000  0.5237050000000  0.5463690000000 1.0
C      1  0.4559470000000  0.5056210000000  0.5272280000000 1.0
C      1  0.4562090000000  0.4919900000000  0.4711840000000 1.0
C      1  0.5431330000000  0.5070440000000  0.4723470000000 1.0
C      1  0.4795250000000  0.4541510000000  0.4929620000000 1.0
C      1  0.4810660000000  0.5442980000000  0.5056220000000 1.0
C      1  0.5188870000000  0.4564230000000  0.5072270000000 1.0
C      1  0.4951060000000  0.4765620000000  0.5423410000000 1.0
C      1  0.4921070000000  0.5219240000000  0.4551790000000 1.0
C      1  0.5069260000000  0.4765900000000  0.4556020000000 1.0
C      1  0.5089680000000  0.5447090000000  0.5252650000000 1.0
C      1  0.5435430000000  0.5236400000000  0.4976450000000 1.0
C      1  0.5194680000000  0.4970880000000  0.5448320000000 1.0
C      1  0.4918310000000  0.4551790000000  0.5220340000000 1.0
C      1  0.5071630000000  0.4557980000000  0.4768150000000 1.0
C      1  0.4960010000000  0.5419930000000  0.4767950000000 1.0
C      1  0.4560220000000  0.4709990000000  0.4917650000000 1.0
C      1  0.5427740000000  0.4737470000000  0.5079120000000 1.0
C      1  0.4572190000000  0.5269850000000  0.5062820000000 1.0
C      1  0.4780710000000  0.5039340000000  0.5457460000000 1.0
C      1  0.5189530000000  0.5068060000000  0.4558010000000 1.0
C      1  0.4794370000000  0.4929090000000  0.4541600000000 1.0
C      1  0.5327720000000  0.4191100000000  0.4941550000000 1.0
C      1  0.4881690000000  0.5373450000000  0.4284390000000 1.0
C      1  0.4132380000000  0.4981360000000  0.5243890000000 1.0
C      1  0.4845400000000  0.5861000000000  0.5041300000000 1.0
C      1  0.4737210000000  0.4155340000000  0.5083430000000 1.0
C      1  0.5410070000000  0.5818670000000  0.5086730000000 1.0
C      1  0.5021770000000  0.4857940000000  0.4149470000000 1.0
C      1  0.5122200000000  0.5265920000000  0.5870410000000 1.0
C      1  0.4863660000000  0.4730610000000  0.5831640000000 1.0
C      1  0.5839120000000  0.4995700000000  0.5250500000000 1.0
C      1  0.5842780000000  0.4989650000000  0.4738750000000 1.0
C      1  0.4147230000000  0.4981110000000  0.4732870000000 1.0
C      1  0.4139930000000  0.5241610000000  0.4991770000000 1.0
C      1  0.5329410000000  0.4936220000000  0.4185800000000 1.0
C      1  0.4882330000000  0.4283120000000  0.5375300000000 1.0
C      1  0.5839420000000  0.4732000000000  0.4997000000000 1.0
C      1  0.4140130000000  0.4720720000000  0.4983870000000 1.0
C      1  0.5852880000000  0.5252990000000  0.4993090000000 1.0
C      1  0.4738430000000  0.5082230000000  0.4154920000000 1.0
C      1  0.5405180000000  0.5087930000000  0.5824140000000 1.0
C      1  0.4844570000000  0.5036140000000  0.5872230000000 1.0
C      1  0.5124700000000  0.5862960000000  0.5266260000000 1.0
C      1  0.4860600000000  0.5825550000000  0.4734890000000 1.0
C      1  0.5021910000000  0.4151930000000  0.4861120000000 1.0
C      1  0.4504290000000  0.4797940000000  0.5177880000000 1.0
C      1  0.4510220000000  0.5179760000000  0.4803730000000 1.0
C      1  0.5471230000000  0.4807800000000  0.4810410000000 1.0
C      1  0.5407170000000  0.5336850000000  0.5307110000000 1.0
END
