TITL C-862503-991-1031 -3.76252632947347e-07 125000 -106.565592994229 0 0 19 (C3) n - 1
REM
REM in /home/nfs/bkarasulu/CARBON/AIRSS/Generating-Clusters/TERSOFF/Higher-Symm/FIRE-HFTN
REM
REM
REM
REM
REM
REM ./C.cell (b20cbc046b6831c77cfcea5457e17084)
REM AIRSS Version 0.9.1 bugfix July 2018 build 013d7b7c2542+ Fri, 06 Jul 2018 19:26:36 +0100
REM compiler GCC version 9.2.1 20190827 (Red Hat 9.2.1-1)
REM options -cpp -mtune=generic -march=x86-64 -g -O0 -fpre-include=/usr/include/finclude/math-vector-fortran.h
REM seed -750550003 1371639211 689552874 860672661 1725412210 1915615862 -1668957781 1485157131 -1318970993 -1032876342 -518684719 -239438426 -390365208 1798800898 479489437 1841842035 -440499628 -1816339986 1818420969 -13070165 -859823246 -85249399 1555691527 1724508630 -718181856 -1606746339 206366430 2138181263 -913122856 -1459035300 -486420525 -1215966466 -333543597
REM
CELL 1.54180   50.00000   50.00000   50.00000   90.00000   90.00000   90.00000
LATT -1
SFAC C  
C      1  0.5369530000000  0.4578690000000  0.5102710000000 1.0
C      1  0.5199950000000  0.5498010000000  0.5102710000000 1.0
C      1  0.4488590000000  0.4891490000000  0.5102710000000 1.0
C      1  0.4539010000000  0.4860830000000  0.4816020000000 1.0
C      1  0.5370870000000  0.4637690000000  0.4816020000000 1.0
C      1  0.5148190000000  0.5469670000000  0.4816020000000 1.0
C      1  0.5306900000000  0.4917700000000  0.4738830000000 1.0
C      1  0.4937680000000  0.5274270000000  0.4738830000000 1.0
C      1  0.4813490000000  0.4776220000000  0.4738830000000 1.0
C      1  0.5303340000000  0.5049890000000  0.5231860000000 1.0
C      1  0.4824980000000  0.5205080000000  0.5231860000000 1.0
C      1  0.4929760000000  0.4713210000000  0.5231860000000 1.0
C      1  0.4725180000000  0.4929410000000  0.5281950000000 1.0
C      1  0.5218390000000  0.4764620000000  0.5281950000000 1.0
C      1  0.5114500000000  0.5274150000000  0.5281950000000 1.0
C      1  0.4894820000000  0.4597340000000  0.4961130000000 1.0
C      1  0.5421160000000  0.5077570000000  0.4961130000000 1.0
C      1  0.4742090000000  0.5293280000000  0.4961130000000 1.0
C      1  0.5019360000000  0.4989400000000  0.4673400000000 1.0
END
