TITL C-862134-6730-505 0.00243168457561511 125000 -1108.11802160993 0 0 186 (C2h) n - 1
REM
REM in /home/nfs/bkarasulu/CARBON/AIRSS/Generating-Clusters/TERSOFF/Higher-Symm/FIRE-HFTN
REM
REM
REM
REM
REM
REM ./C.cell (b20cbc046b6831c77cfcea5457e17084)
REM AIRSS Version 0.9.1 bugfix July 2018 build 013d7b7c2542+ Fri, 06 Jul 2018 19:26:36 +0100
REM compiler GCC version 9.2.1 20190827 (Red Hat 9.2.1-1)
REM options -cpp -mtune=generic -march=x86-64 -g -O0 -fpre-include=/usr/include/finclude/math-vector-fortran.h
REM seed 250045194 -895376232 547597002 1141879826 -1572642797 -1163381590 -1462266562 1286367207 -1724106077 1114649705 -1308275648 -258385166 1814556468 -274066206 62990069 2115758579 154303888 1420284306 -124725116 -1178987700 -1272658297 1662242315 -2139661640 1150900754 -1478396086 -1561253191 819157041 786574532 -584066417 827480157 2102251215 651955564 231069515
REM
CELL 1.54180   50.00000   50.00000   50.00000   90.00000   90.00000   90.00000
LATT -1
SFAC C  
C      1  0.5816590000000  0.4552500000000  0.4379500000000 1.0
C      1  0.4175810000000  0.4548340000000  0.5626090000000 1.0
C      1  0.5824190000000  0.5456590000000  0.4373910000000 1.0
C      1  0.4183410000000  0.5452420000000  0.5620500000000 1.0
C      1  0.4175810000000  0.4548340000000  0.4373910000000 1.0
C      1  0.5816590000000  0.4552500000000  0.5620500000000 1.0
C      1  0.4183410000000  0.5452420000000  0.4379500000000 1.0
C      1  0.5824190000000  0.5456590000000  0.5626090000000 1.0
C      1  0.5301350000000  0.5858710000000  0.5159460000000 1.0
C      1  0.4699160000000  0.5858470000000  0.4841230000000 1.0
C      1  0.5300840000000  0.4146450000000  0.5158770000000 1.0
C      1  0.4698650000000  0.4146210000000  0.4840540000000 1.0
C      1  0.4699160000000  0.5858470000000  0.5158770000000 1.0
C      1  0.5301350000000  0.5858710000000  0.4840540000000 1.0
C      1  0.4698650000000  0.4146210000000  0.5159460000000 1.0
C      1  0.5300840000000  0.4146450000000  0.4841230000000 1.0
C      1  0.4428490000000  0.5842650000000  0.4723870000000 1.0
C      1  0.5572750000000  0.5842310000000  0.5276480000000 1.0
C      1  0.4427250000000  0.4162610000000  0.4723520000000 1.0
C      1  0.5571510000000  0.4162270000000  0.5276130000000 1.0
C      1  0.5572750000000  0.5842310000000  0.4723520000000 1.0
C      1  0.4428490000000  0.5842650000000  0.5276130000000 1.0
C      1  0.5571510000000  0.4162270000000  0.4723870000000 1.0
C      1  0.4427250000000  0.4162610000000  0.5276480000000 1.0
C      1  0.5648310000000  0.4345300000000  0.4266390000000 1.0
C      1  0.4348120000000  0.4342320000000  0.5735880000000 1.0
C      1  0.5651880000000  0.5662600000000  0.4264120000000 1.0
C      1  0.4351690000000  0.5659620000000  0.5733610000000 1.0
C      1  0.4348120000000  0.4342320000000  0.4264120000000 1.0
C      1  0.5648310000000  0.4345300000000  0.5733610000000 1.0
C      1  0.4351690000000  0.5659620000000  0.4266390000000 1.0
C      1  0.5651880000000  0.5662600000000  0.5735880000000 1.0
C      1  0.4079740000000  0.4732650000000  0.5826860000000 1.0
C      1  0.5915970000000  0.4737880000000  0.4181440000000 1.0
C      1  0.4084030000000  0.5267040000000  0.5818560000000 1.0
C      1  0.5920260000000  0.5272270000000  0.4173140000000 1.0
C      1  0.5915970000000  0.4737880000000  0.5818560000000 1.0
C      1  0.4079740000000  0.4732650000000  0.4173140000000 1.0
C      1  0.5920260000000  0.5272270000000  0.5826860000000 1.0
C      1  0.4084030000000  0.5267040000000  0.4181440000000 1.0
C      1  0.4832060000000  0.4246550000000  0.4100060000000 1.0
C      1  0.5164900000000  0.4248480000000  0.5899390000000 1.0
C      1  0.4835100000000  0.5756440000000  0.4100610000000 1.0
C      1  0.5167940000000  0.5758370000000  0.5899940000000 1.0
C      1  0.5164900000000  0.4248480000000  0.4100610000000 1.0
C      1  0.4832060000000  0.4246550000000  0.5899940000000 1.0
C      1  0.5167940000000  0.5758370000000  0.4100060000000 1.0
C      1  0.4835100000000  0.5756440000000  0.5899390000000 1.0
C      1  0.6025390000000  0.4837800000000  0.4722830000000 1.0
C      1  0.3972650000000  0.4842980000000  0.5277320000000 1.0
C      1  0.6027350000000  0.5161940000000  0.4722680000000 1.0
C      1  0.3974610000000  0.5167120000000  0.5277170000000 1.0
C      1  0.3972650000000  0.4842980000000  0.4722680000000 1.0
C      1  0.6025390000000  0.4837800000000  0.5277170000000 1.0
C      1  0.3974610000000  0.5167120000000  0.4722830000000 1.0
C      1  0.6027350000000  0.5161940000000  0.5277320000000 1.0
C      1  0.4547180000000  0.5579810000000  0.4052240000000 1.0
C      1  0.5455070000000  0.5582630000000  0.5949170000000 1.0
C      1  0.4544930000000  0.4422290000000  0.4050830000000 1.0
C      1  0.5452820000000  0.4425110000000  0.5947760000000 1.0
C      1  0.5455070000000  0.5582630000000  0.4050830000000 1.0
C      1  0.4547180000000  0.5579810000000  0.5947760000000 1.0
C      1  0.5452820000000  0.4425110000000  0.4052240000000 1.0
C      1  0.4544930000000  0.4422290000000  0.5949170000000 1.0
C      1  0.5144750000000  0.4354560000000  0.4699580000000 1.0
C      1  0.4856010000000  0.4349980000000  0.5306430000000 1.0
C      1  0.5143990000000  0.5654940000000  0.4693570000000 1.0
C      1  0.4855250000000  0.5650360000000  0.5300420000000 1.0
C      1  0.4856010000000  0.4349980000000  0.4693570000000 1.0
C      1  0.5144750000000  0.4354570000000  0.5300420000000 1.0
C      1  0.4855250000000  0.5650360000000  0.4699580000000 1.0
C      1  0.5143990000000  0.5654940000000  0.5306430000000 1.0
C      1  0.5160550000000  0.4784970000000  0.4840470000000 1.0
C      1  0.4825360000000  0.4886480000000  0.5232820000000 1.0
C      1  0.5174640000000  0.5118450000000  0.4767180000000 1.0
C      1  0.4839450000000  0.5219950000000  0.5159530000000 1.0
C      1  0.4825360000000  0.4886480000000  0.4767180000000 1.0
C      1  0.5160550000000  0.4784970000000  0.5159530000000 1.0
C      1  0.4839450000000  0.5219950000000  0.4840470000000 1.0
C      1  0.5174640000000  0.5118450000000  0.5232820000000 1.0
C      1  0.3744480000000  0.5282970000000  0.4858150000000 1.0
C      1  0.6259210000000  0.5273830000000  0.5141710000000 1.0
C      1  0.3740790000000  0.4731090000000  0.4858290000000 1.0
C      1  0.6255520000000  0.4721950000000  0.5141850000000 1.0
C      1  0.6259210000000  0.5273830000000  0.4858290000000 1.0
C      1  0.3744480000000  0.5282970000000  0.5141850000000 1.0
C      1  0.6255520000000  0.4721950000000  0.4858150000000 1.0
C      1  0.3740790000000  0.4731090000000  0.5141710000000 1.0
C      1  0.4240470000000  0.4369510000000  0.5153610000000 1.0
C      1  0.5756130000000  0.4370770000000  0.4846950000000 1.0
C      1  0.4243870000000  0.5634160000000  0.5153050000000 1.0
C      1  0.5759530000000  0.5635410000000  0.4846390000000 1.0
C      1  0.5756130000000  0.4370770000000  0.5153050000000 1.0
C      1  0.4240470000000  0.4369510000000  0.4846390000000 1.0
C      1  0.5759530000000  0.5635410000000  0.5153610000000 1.0
C      1  0.4243870000000  0.5634160000000  0.4846950000000 1.0
C      1  0.4444710000000  0.5877570000000  0.5567670000000 1.0
C      1  0.5557580000000  0.5878880000000  0.4432140000000 1.0
C      1  0.4442420000000  0.4126040000000  0.5567860000000 1.0
C      1  0.5555290000000  0.4127360000000  0.4432330000000 1.0
C      1  0.5557580000000  0.5878880000000  0.5567860000000 1.0
C      1  0.4444710000000  0.5877570000000  0.4432330000000 1.0
C      1  0.5555290000000  0.4127360000000  0.5567670000000 1.0
C      1  0.4442420000000  0.4126040000000  0.4432140000000 1.0
C      1  0.4530920000000  0.5289980000000  0.6026370000000 1.0
C      1  0.5469710000000  0.5293330000000  0.3970760000000 1.0
C      1  0.4530290000000  0.4711590000000  0.6029240000000 1.0
C      1  0.5469080000000  0.4714940000000  0.3973630000000 1.0
C      1  0.5469710000000  0.5293330000000  0.6029240000000 1.0
C      1  0.4530920000000  0.5289980000000  0.3973630000000 1.0
C      1  0.5469080000000  0.4714940000000  0.6026370000000 1.0
C      1  0.4530290000000  0.4711590000000  0.3970760000000 1.0
C      1  0.4264770000000  0.5149410000000  0.6015050000000 1.0
C      1  0.5735610000000  0.5151680000000  0.3982240000000 1.0
C      1  0.4264390000000  0.4853240000000  0.6017760000000 1.0
C      1  0.5735230000000  0.4855510000000  0.3984950000000 1.0
C      1  0.5735610000000  0.5151680000000  0.6017760000000 1.0
C      1  0.4264770000000  0.5149410000000  0.3984950000000 1.0
C      1  0.5735230000000  0.4855510000000  0.6015050000000 1.0
C      1  0.4264390000000  0.4853240000000  0.3982240000000 1.0
C      1  0.4729860000000  0.5144280000000  0.4117410000000 1.0
C      1  0.5266660000000  0.5149540000000  0.5888500000000 1.0
C      1  0.4733340000000  0.4855380000000  0.4111500000000 1.0
C      1  0.5270140000000  0.4860640000000  0.5882590000000 1.0
C      1  0.5266660000000  0.5149540000000  0.4111500000000 1.0
C      1  0.4729860000000  0.5144280000000  0.5882590000000 1.0
C      1  0.5270140000000  0.4860640000000  0.4117410000000 1.0
C      1  0.4733340000000  0.4855380000000  0.5888500000000 1.0
C      1  0.5504520000000  0.4777800000000  0.4748310000000 1.0
C      1  0.4512330000000  0.4753740000000  0.5252490000000 1.0
C      1  0.5487670000000  0.5251180000000  0.4747510000000 1.0
C      1  0.4495480000000  0.5227120000000  0.5251690000000 1.0
C      1  0.4512330000000  0.4753740000000  0.4747510000000 1.0
C      1  0.5504520000000  0.4777800000000  0.5251690000000 1.0
C      1  0.4495480000000  0.5227120000000  0.4748310000000 1.0
C      1  0.5487670000000  0.5251180000000  0.5252490000000 1.0
C      1  0.4212720000000  0.5369070000000  0.5321970000000 1.0
C      1  0.5797610000000  0.5369930000000  0.4670660000000 1.0
C      1  0.4202390000000  0.4634990000000  0.5329340000000 1.0
C      1  0.5787280000000  0.4635850000000  0.4678030000000 1.0
C      1  0.5797610000000  0.5369930000000  0.5329340000000 1.0
C      1  0.4212720000000  0.5369070000000  0.4678030000000 1.0
C      1  0.5787280000000  0.4635850000000  0.5321970000000 1.0
C      1  0.4202390000000  0.4634990000000  0.4670660000000 1.0
C      1  0.4704830000000  0.4054580000000  0.4306340000000 1.0
C      1  0.5292830000000  0.4056110000000  0.5693440000000 1.0
C      1  0.4707170000000  0.5948810000000  0.4306560000000 1.0
C      1  0.5295170000000  0.5950350000000  0.5693660000000 1.0
C      1  0.5292830000000  0.4056110000000  0.4306560000000 1.0
C      1  0.4704830000000  0.4054580000000  0.5693660000000 1.0
C      1  0.5295170000000  0.5950340000000  0.4306340000000 1.0
C      1  0.4707170000000  0.5948810000000  0.5693440000000 1.0
C      1  0.5137480000000  0.5295370000000  0.5675290000000 1.0
C      1  0.4859510000000  0.5286970000000  0.4332270000000 1.0
C      1  0.5140490000000  0.4717950000000  0.5667730000000 1.0
C      1  0.4862520000000  0.4709550000000  0.4324710000000 1.0
C      1  0.4859510000000  0.5286970000000  0.5667730000000 1.0
C      1  0.5137480000000  0.5295370000000  0.4324710000000 1.0
C      1  0.4862520000000  0.4709550000000  0.5675290000000 1.0
C      1  0.5140490000000  0.4717950000000  0.4332270000000 1.0
C      1  0.5278210000000  0.4524600000000  0.4501670000000 1.0
C      1  0.4726830000000  0.4506900000000  0.5515790000000 1.0
C      1  0.5273170000000  0.5498020000000  0.4484210000000 1.0
C      1  0.4721790000000  0.5480320000000  0.5498330000000 1.0
C      1  0.4726830000000  0.4506900000000  0.4484210000000 1.0
C      1  0.5278210000000  0.4524600000000  0.5498330000000 1.0
C      1  0.4721790000000  0.5480320000000  0.4501670000000 1.0
C      1  0.5273170000000  0.5498020000000  0.5515790000000 1.0
C      1  0.5512020000000  0.5154200000000  0.5548130000000 1.0
C      1  0.4491400000000  0.5131400000000  0.4462570000000 1.0
C      1  0.5508600000000  0.4873520000000  0.5537430000000 1.0
C      1  0.4487980000000  0.4850720000000  0.4451870000000 1.0
C      1  0.4491400000000  0.5131400000000  0.5537430000000 1.0
C      1  0.5512020000000  0.5154200000000  0.4451870000000 1.0
C      1  0.4487980000000  0.4850720000000  0.5548130000000 1.0
C      1  0.5508600000000  0.4873520000000  0.4462570000000 1.0
C      1  0.4839980000000  0.3858920000000  0.5165100000000 1.0
C      1  0.5158470000000  0.3859470000000  0.4834440000000 1.0
C      1  0.4841530000000  0.6145450000000  0.5165560000000 1.0
C      1  0.5160020000000  0.6146000000000  0.4834900000000 1.0
C      1  0.5158470000000  0.3859470000000  0.5165560000000 1.0
C      1  0.4839980000000  0.3858920000000  0.4834900000000 1.0
C      1  0.5160020000000  0.6146000000000  0.5165100000000 1.0
C      1  0.4841530000000  0.6145450000000  0.4834440000000 1.0
C      1  0.5569060000000  0.5018990000000  0.5000000000000 1.0
C      1  0.4430940000000  0.4985930000000  0.5000000000000 1.0
END
