TITL C-862501-1041-1406 -0.00408552284665568 125000 -258.143677621672 0 0 53 (C1) n - 1
REM
REM in /home/nfs/bkarasulu/CARBON/AIRSS/Generating-Clusters/TERSOFF/Higher-Symm/FIRE-HFTN
REM
REM
REM
REM
REM
REM ./C.cell (b20cbc046b6831c77cfcea5457e17084)
REM AIRSS Version 0.9.1 bugfix July 2018 build 013d7b7c2542+ Fri, 06 Jul 2018 19:26:36 +0100
REM compiler GCC version 9.2.1 20190827 (Red Hat 9.2.1-1)
REM options -cpp -mtune=generic -march=x86-64 -g -O0 -fpre-include=/usr/include/finclude/math-vector-fortran.h
REM seed -197086268 119196684 1137781196 -964756606 -1768848007 -1789506620 -146669063 -1061337029 -80815044 -2147040197 1964218979 -593763944 -701718463 1568226139 8596460 -785506789 428633396 1109182790 127305999 -1886122617 -1026432371 -1450877778 695054797 243969783 253087442 -203572107 -469708954 -174737019 -1975672285 -448688804 -577873375 516861839 -89138548
REM
CELL 1.54180   50.00000   50.00000   50.00000   90.00000   90.00000   90.00000
LATT -1
SFAC C  
C      1  0.4830480000000  0.5368230000000  0.4711530000000 1.0
C      1  0.4837990000000  0.5401770000000  0.5249360000000 1.0
C      1  0.4838040000000  0.4833330000000  0.5448670000000 1.0
C      1  0.4830500000000  0.4523650000000  0.5007620000000 1.0
C      1  0.4831580000000  0.4843430000000  0.4567180000000 1.0
C      1  0.5172870000000  0.5381140000000  0.4696410000000 1.0
C      1  0.5170060000000  0.5389900000000  0.5235550000000 1.0
C      1  0.5170070000000  0.4834030000000  0.5430690000000 1.0
C      1  0.5172890000000  0.4504190000000  0.5003980000000 1.0
C      1  0.5169020000000  0.4837110000000  0.4549200000000 1.0
C      1  0.4427270000000  0.5324250000000  0.5219670000000 1.0
C      1  0.4427320000000  0.4875230000000  0.5376950000000 1.0
C      1  0.4416700000000  0.4589550000000  0.5006810000000 1.0
C      1  0.4416770000000  0.4862790000000  0.4622410000000 1.0
C      1  0.4416690000000  0.5316230000000  0.4752100000000 1.0
C      1  0.5583600000000  0.5325410000000  0.5216120000000 1.0
C      1  0.5583560000000  0.4872380000000  0.5374980000000 1.0
C      1  0.5582690000000  0.4591630000000  0.5001060000000 1.0
C      1  0.5581300000000  0.4861700000000  0.4619330000000 1.0
C      1  0.5582670000000  0.5311040000000  0.4748730000000 1.0
C      1  0.4829240000000  0.5648860000000  0.5462010000000 1.0
C      1  0.4829130000000  0.4773090000000  0.5769070000000 1.0
C      1  0.4871640000000  0.4211630000000  0.5002230000000 1.0
C      1  0.4868790000000  0.4739980000000  0.4272110000000 1.0
C      1  0.4871560000000  0.5608590000000  0.4512490000000 1.0
C      1  0.5136340000000  0.5628680000000  0.5438720000000 1.0
C      1  0.5136250000000  0.4774450000000  0.5738430000000 1.0
C      1  0.5174790000000  0.4176230000000  0.4997830000000 1.0
C      1  0.5172360000000  0.4728290000000  0.4238910000000 1.0
C      1  0.5174710000000  0.5633450000000  0.4486800000000 1.0
C      1  0.4168830000000  0.4921650000000  0.5242890000000 1.0
C      1  0.4163760000000  0.4741290000000  0.5006200000000 1.0
C      1  0.4162540000000  0.4911680000000  0.4761870000000 1.0
C      1  0.4163750000000  0.5197340000000  0.4846360000000 1.0
C      1  0.4168790000000  0.5204250000000  0.5143860000000 1.0
C      1  0.5839440000000  0.4919240000000  0.5236220000000 1.0
C      1  0.5837980000000  0.4739390000000  0.4999080000000 1.0
C      1  0.5838190000000  0.4909170000000  0.4754660000000 1.0
C      1  0.5837970000000  0.5194430000000  0.4839480000000 1.0
C      1  0.5839460000000  0.5202110000000  0.5137010000000 1.0
C      1  0.5358450000000  0.5122630000000  0.4566420000000 1.0
C      1  0.5364090000000  0.5460450000000  0.4970810000000 1.0
C      1  0.5336750000000  0.5122070000000  0.5361630000000 1.0
C      1  0.5364120000000  0.4613650000000  0.5267850000000 1.0
C      1  0.5358450000000  0.4624900000000  0.4741000000000 1.0
C      1  0.4644290000000  0.5124100000000  0.4571680000000 1.0
C      1  0.4641930000000  0.5460680000000  0.4977410000000 1.0
C      1  0.4672430000000  0.5121710000000  0.5361430000000 1.0
C      1  0.4641980000000  0.4617400000000  0.5273000000000 1.0
C      1  0.4644310000000  0.4626990000000  0.4745940000000 1.0
C      1  0.5260790000000  0.5017470000000  0.5063910000000 1.0
C      1  0.4748780000000  0.5020780000000  0.5063660000000 1.0
C      1  0.5004170000000  0.4908800000000  0.4987920000000 1.0
END
