TITL C-862127-1500-1064 118.802126224357 125000 -410.207452395352 0 0 73 (C1) n - 1
REM
REM in /home/nfs/bkarasulu/CARBON/AIRSS/Generating-Clusters/TERSOFF/Higher-Symm/FIRE-HFTN
REM
REM
REM
REM
REM
REM ./C.cell (b20cbc046b6831c77cfcea5457e17084)
REM AIRSS Version 0.9.1 bugfix July 2018 build 013d7b7c2542+ Fri, 06 Jul 2018 19:26:36 +0100
REM compiler GCC version 9.2.1 20190827 (Red Hat 9.2.1-1)
REM options -cpp -mtune=generic -march=x86-64 -g -O0 -fpre-include=/usr/include/finclude/math-vector-fortran.h
REM seed -1841409766 346443803 -1522155445 340870469 1058948873 -2086879610 -363298916 -1452820460 1372412628 -1509767686 -892889187 1116519528 -536792472 34324684 1215708528 -1207300579 1745189087 -931302489 1845406623 522750931 2070209298 -364708017 959679070 -1056344380 -847820302 1692265008 1838082653 81091211 459316048 831536177 -1242181301 188136019 -940700329
REM
CELL 1.54180   50.00000   50.00000   50.00000   90.00000   90.00000   90.00000
LATT -1
SFAC C  
C      1  0.5294540000000  0.5112160000000  0.5188160000000 1.0
C      1  0.5463400000000  0.5627940000000  0.5415720000000 1.0
C      1  0.5479440000000  0.4477530000000  0.4666520000000 1.0
C      1  0.4758360000000  0.5539020000000  0.5153160000000 1.0
C      1  0.4329550000000  0.5300700000000  0.4602320000000 1.0
C      1  0.5600030000000  0.5072830000000  0.5180250000000 1.0
C      1  0.5150520000000  0.4444350000000  0.5465210000000 1.0
C      1  0.5573800000000  0.4352490000000  0.5056210000000 1.0
C      1  0.4653200000000  0.4509800000000  0.4779940000000 1.0
C      1  0.5402070000000  0.5136280000000  0.4721450000000 1.0
C      1  0.5251250000000  0.5553860000000  0.4493650000000 1.0
C      1  0.4797940000000  0.5113630000000  0.4311320000000 1.0
C      1  0.5088470000000  0.4948720000000  0.4320080000000 1.0
C      1  0.4637630000000  0.4780350000000  0.4939880000000 1.0
C      1  0.5219410000000  0.4249740000000  0.5256810000000 1.0
C      1  0.5646380000000  0.5390020000000  0.5451520000000 1.0
C      1  0.5093410000000  0.4695620000000  0.5325490000000 1.0
C      1  0.4146630000000  0.4877410000000  0.5309360000000 1.0
C      1  0.4486960000000  0.4707770000000  0.4325150000000 1.0
C      1  0.5438050000000  0.4793390000000  0.4730150000000 1.0
C      1  0.5166730000000  0.5222930000000  0.4532460000000 1.0
C      1  0.5779010000000  0.5307070000000  0.5189440000000 1.0
C      1  0.5255400000000  0.4791000000000  0.5108320000000 1.0
C      1  0.4157240000000  0.4797830000000  0.5030310000000 1.0
C      1  0.4874750000000  0.5179440000000  0.4717860000000 1.0
C      1  0.4611430000000  0.5377310000000  0.4694900000000 1.0
C      1  0.4280430000000  0.4507110000000  0.4973430000000 1.0
C      1  0.4515950000000  0.4345140000000  0.5140040000000 1.0
C      1  0.5674800000000  0.4204430000000  0.5283480000000 1.0
C      1  0.5400720000000  0.4865330000000  0.4401350000000 1.0
C      1  0.5112830000000  0.4260600000000  0.4985970000000 1.0
C      1  0.4599450000000  0.5669910000000  0.4777900000000 1.0
C      1  0.5296060000000  0.4259270000000  0.4750600000000 1.0
C      1  0.5549830000000  0.4822020000000  0.5534850000000 1.0
C      1  0.5190420000000  0.5221430000000  0.5475230000000 1.0
C      1  0.4779910000000  0.5558820000000  0.5633120000000 1.0
C      1  0.5412630000000  0.5753960000000  0.5143670000000 1.0
C      1  0.4956880000000  0.5583690000000  0.4575780000000 1.0
C      1  0.5194520000000  0.5522240000000  0.5483650000000 1.0
C      1  0.4891650000000  0.4431590000000  0.4440710000000 1.0
C      1  0.5219240000000  0.5265440000000  0.4946760000000 1.0
C      1  0.4791810000000  0.4252590000000  0.4929670000000 1.0
C      1  0.4402910000000  0.4943710000000  0.5417300000000 1.0
C      1  0.5474320000000  0.5122010000000  0.5589650000000 1.0
C      1  0.5004880000000  0.5526640000000  0.4911860000000 1.0
C      1  0.5461230000000  0.5724810000000  0.4631360000000 1.0
C      1  0.4481960000000  0.5220040000000  0.5452280000000 1.0
C      1  0.4503680000000  0.5371420000000  0.5206100000000 1.0
C      1  0.4616150000000  0.4781250000000  0.5299760000000 1.0
C      1  0.4474570000000  0.4935090000000  0.4746040000000 1.0
C      1  0.4897450000000  0.4202740000000  0.4630170000000 1.0
C      1  0.5571330000000  0.5678350000000  0.4907060000000 1.0
C      1  0.4280580000000  0.5370680000000  0.5013380000000 1.0
C      1  0.4314500000000  0.5631870000000  0.4873960000000 1.0
C      1  0.4879170000000  0.4852760000000  0.5410700000000 1.0
C      1  0.4935800000000  0.5684580000000  0.5397450000000 1.0
C      1  0.5540140000000  0.4642780000000  0.5047840000000 1.0
C      1  0.4553590000000  0.4963560000000  0.4437200000000 1.0
C      1  0.4215960000000  0.5085200000000  0.4839550000000 1.0
C      1  0.5748840000000  0.5446860000000  0.4927300000000 1.0
C      1  0.4883740000000  0.4927600000000  0.4868370000000 1.0
C      1  0.4616950000000  0.4490240000000  0.5377340000000 1.0
C      1  0.4851610000000  0.4393470000000  0.5541960000000 1.0
C      1  0.4597170000000  0.4489120000000  0.4468600000000 1.0
C      1  0.5380550000000  0.4585770000000  0.5633710000000 1.0
C      1  0.5685550000000  0.4805240000000  0.5261120000000 1.0
C      1  0.5665950000000  0.5267570000000  0.4712450000000 1.0
C      1  0.5118400000000  0.5750610000000  0.5111790000000 1.0
C      1  0.5043210000000  0.4679220000000  0.4517330000000 1.0
C      1  0.4933920000000  0.5098780000000  0.5552970000000 1.0
C      1  0.4710260000000  0.5276100000000  0.5623480000000 1.0
C      1  0.5116820000000  0.4750620000000  0.4819320000000 1.0
C      1  0.4816050000000  0.5418540000000  0.4330710000000 1.0
END
