TITL C-862134-6730-1039 6.44616290530732 125000 -812.699900349445 0 0 145 (C1) n - 1
REM
REM in /home/nfs/bkarasulu/CARBON/AIRSS/Generating-Clusters/TERSOFF/Higher-Symm/FIRE-HFTN
REM
REM
REM
REM
REM
REM ./C.cell (b20cbc046b6831c77cfcea5457e17084)
REM AIRSS Version 0.9.1 bugfix July 2018 build 013d7b7c2542+ Fri, 06 Jul 2018 19:26:36 +0100
REM compiler GCC version 9.2.1 20190827 (Red Hat 9.2.1-1)
REM options -cpp -mtune=generic -march=x86-64 -g -O0 -fpre-include=/usr/include/finclude/math-vector-fortran.h
REM seed -185450274 2125967386 314436229 1235369881 -728734108 -1207722506 -1105098352 891745512 1232399106 -1472314597 -763798301 1252668306 1435584081 573585650 -602120212 -1593506628 178886559 580716115 -919354584 -2057932611 1801890773 -646861187 -1428056038 1211489188 -1961558956 -544844066 1011692341 -1202305150 -1618570497 178646665 456232635 -1934043764 1559241104
REM
CELL 1.54180   50.00000   50.00000   50.00000   90.00000   90.00000   90.00000
LATT -1
SFAC C  
C      1  0.5498080000000  0.4187820000000  0.4848460000000 1.0
C      1  0.4480130000000  0.4132320000000  0.4817870000000 1.0
C      1  0.5634850000000  0.4295830000000  0.5118070000000 1.0
C      1  0.4387330000000  0.4272440000000  0.5117500000000 1.0
C      1  0.4079500000000  0.5678910000000  0.4835620000000 1.0
C      1  0.5874380000000  0.5707490000000  0.4838870000000 1.0
C      1  0.4707700000000  0.3907230000000  0.4752380000000 1.0
C      1  0.5245560000000  0.4011440000000  0.4865730000000 1.0
C      1  0.5248520000000  0.4775900000000  0.5797190000000 1.0
C      1  0.4740300000000  0.4778000000000  0.5793120000000 1.0
C      1  0.5795090000000  0.5754250000000  0.4562370000000 1.0
C      1  0.4178770000000  0.5748500000000  0.4573470000000 1.0
C      1  0.5262640000000  0.5872390000000  0.4865270000000 1.0
C      1  0.4672430000000  0.5844960000000  0.4855090000000 1.0
C      1  0.4406350000000  0.4175650000000  0.5412550000000 1.0
C      1  0.5587540000000  0.4169420000000  0.5394360000000 1.0
C      1  0.5305690000000  0.4538200000000  0.5419240000000 1.0
C      1  0.4708140000000  0.4541060000000  0.5420830000000 1.0
C      1  0.5501890000000  0.4686400000000  0.4780510000000 1.0
C      1  0.4536240000000  0.4745240000000  0.4774220000000 1.0
C      1  0.5869830000000  0.4728710000000  0.5399080000000 1.0
C      1  0.4143830000000  0.4715900000000  0.5383490000000 1.0
C      1  0.4349160000000  0.5513500000000  0.5531430000000 1.0
C      1  0.5596310000000  0.5521360000000  0.5516590000000 1.0
C      1  0.4103410000000  0.4662310000000  0.4848070000000 1.0
C      1  0.5937250000000  0.4686900000000  0.4871400000000 1.0
C      1  0.5205570000000  0.5014620000000  0.3851480000000 1.0
C      1  0.4720910000000  0.4970640000000  0.3854580000000 1.0
C      1  0.5188790000000  0.5320500000000  0.3860990000000 1.0
C      1  0.4697320000000  0.5268160000000  0.3872010000000 1.0
C      1  0.4565210000000  0.4342520000000  0.5614470000000 1.0
C      1  0.5432940000000  0.4328080000000  0.5613910000000 1.0
C      1  0.5762030000000  0.4602360000000  0.4637750000000 1.0
C      1  0.4310810000000  0.4597020000000  0.4643790000000 1.0
C      1  0.4447630000000  0.5571760000000  0.4191370000000 1.0
C      1  0.5485170000000  0.5681580000000  0.4161100000000 1.0
C      1  0.5353730000000  0.5226110000000  0.5943100000000 1.0
C      1  0.4636030000000  0.5231260000000  0.5938540000000 1.0
C      1  0.4509000000000  0.5403110000000  0.6145250000000 1.0
C      1  0.5481500000000  0.5398140000000  0.6149040000000 1.0
C      1  0.4153020000000  0.4536830000000  0.5118620000000 1.0
C      1  0.5872810000000  0.4554740000000  0.5133260000000 1.0
C      1  0.3981480000000  0.4923480000000  0.4823910000000 1.0
C      1  0.6063160000000  0.4953780000000  0.4864920000000 1.0
C      1  0.4543420000000  0.5454510000000  0.4940270000000 1.0
C      1  0.5420080000000  0.5411260000000  0.4921470000000 1.0
C      1  0.5827890000000  0.4626790000000  0.5697590000000 1.0
C      1  0.4172660000000  0.4616640000000  0.5686650000000 1.0
C      1  0.5409810000000  0.5684760000000  0.5355940000000 1.0
C      1  0.4509530000000  0.5704740000000  0.5379660000000 1.0
C      1  0.5517300000000  0.5257520000000  0.5639070000000 1.0
C      1  0.4462970000000  0.5257170000000  0.5637450000000 1.0
C      1  0.4276690000000  0.5003950000000  0.5563030000000 1.0
C      1  0.5717790000000  0.5011640000000  0.5571250000000 1.0
C      1  0.4811050000000  0.5011570000000  0.4402490000000 1.0
C      1  0.5316000000000  0.5098520000000  0.4400810000000 1.0
C      1  0.5299750000000  0.5622510000000  0.4653550000000 1.0
C      1  0.4665230000000  0.5599000000000  0.4650180000000 1.0
C      1  0.4504750000000  0.4760060000000  0.5050790000000 1.0
C      1  0.5531250000000  0.4786030000000  0.5054530000000 1.0
C      1  0.5346410000000  0.4823170000000  0.5502550000000 1.0
C      1  0.4653800000000  0.4837780000000  0.5484430000000 1.0
C      1  0.4491360000000  0.5724010000000  0.5086880000000 1.0
C      1  0.5409330000000  0.5684270000000  0.5062280000000 1.0
C      1  0.5795900000000  0.5225130000000  0.4518450000000 1.0
C      1  0.4326260000000  0.5193270000000  0.4542380000000 1.0
C      1  0.4965740000000  0.3757570000000  0.5047950000000 1.0
C      1  0.4585340000000  0.3898940000000  0.5153540000000 1.0
C      1  0.4553670000000  0.4999850000000  0.5216190000000 1.0
C      1  0.5437380000000  0.4988390000000  0.5251350000000 1.0
C      1  0.5226480000000  0.5353170000000  0.4339980000000 1.0
C      1  0.4811210000000  0.5291820000000  0.4344830000000 1.0
C      1  0.5683810000000  0.4757870000000  0.4378590000000 1.0
C      1  0.4348980000000  0.4707950000000  0.4344710000000 1.0
C      1  0.5244690000000  0.4462580000000  0.5827680000000 1.0
C      1  0.4739840000000  0.4470680000000  0.5833570000000 1.0
C      1  0.4430400000000  0.5658550000000  0.4463380000000 1.0
C      1  0.5527760000000  0.5706320000000  0.4455410000000 1.0
C      1  0.6019320000000  0.5424950000000  0.5233790000000 1.0
C      1  0.3965630000000  0.5366650000000  0.5216170000000 1.0
C      1  0.4551330000000  0.4931790000000  0.5952420000000 1.0
C      1  0.5436740000000  0.4928090000000  0.5959930000000 1.0
C      1  0.5594850000000  0.4310580000000  0.4588160000000 1.0
C      1  0.4347720000000  0.4285670000000  0.4593440000000 1.0
C      1  0.4269820000000  0.4863970000000  0.5858080000000 1.0
C      1  0.5719150000000  0.4868480000000  0.5866430000000 1.0
C      1  0.4568570000000  0.4514240000000  0.5172410000000 1.0
C      1  0.5456110000000  0.4531150000000  0.5175900000000 1.0
C      1  0.4805620000000  0.4707200000000  0.4690550000000 1.0
C      1  0.5264050000000  0.4527090000000  0.4729510000000 1.0
C      1  0.4066980000000  0.5501210000000  0.5454750000000 1.0
C      1  0.5880950000000  0.5553760000000  0.5456220000000 1.0
C      1  0.4128520000000  0.5172260000000  0.4771200000000 1.0
C      1  0.5926390000000  0.5204380000000  0.4781810000000 1.0
C      1  0.5939090000000  0.5445200000000  0.4952530000000 1.0
C      1  0.4068500000000  0.5407770000000  0.4943330000000 1.0
C      1  0.4492580000000  0.4969180000000  0.4422220000000 1.0
C      1  0.5603310000000  0.5033520000000  0.4412330000000 1.0
C      1  0.5309270000000  0.5459580000000  0.4094550000000 1.0
C      1  0.4641490000000  0.5375140000000  0.4134670000000 1.0
C      1  0.4675710000000  0.5247440000000  0.5105610000000 1.0
C      1  0.5339870000000  0.5252500000000  0.5178770000000 1.0
C      1  0.4396270000000  0.4385070000000  0.4291970000000 1.0
C      1  0.5458080000000  0.4541560000000  0.4354600000000 1.0
C      1  0.5007600000000  0.5398230000000  0.5501890000000 1.0
C      1  0.4894080000000  0.5698850000000  0.3991480000000 1.0
C      1  0.5032410000000  0.5115590000000  0.4927820000000 1.0
C      1  0.4994920000000  0.5252840000000  0.5963710000000 1.0
C      1  0.4986560000000  0.5499910000000  0.4516690000000 1.0
C      1  0.4914450000000  0.5533510000000  0.3501450000000 1.0
C      1  0.5010430000000  0.4488690000000  0.5362550000000 1.0
C      1  0.5015480000000  0.3938900000000  0.4672410000000 1.0
C      1  0.4983340000000  0.4972650000000  0.5183690000000 1.0
C      1  0.5036550000000  0.5476180000000  0.5777050000000 1.0
C      1  0.4776130000000  0.4244340000000  0.4511950000000 1.0
C      1  0.5164100000000  0.4934130000000  0.4756150000000 1.0
C      1  0.4935810000000  0.5956110000000  0.5685420000000 1.0
C      1  0.4912970000000  0.5605300000000  0.5319170000000 1.0
C      1  0.4994540000000  0.5097780000000  0.5459020000000 1.0
C      1  0.4973110000000  0.4825730000000  0.3911360000000 1.0
C      1  0.4999750000000  0.4561800000000  0.4859010000000 1.0
C      1  0.4995980000000  0.4914330000000  0.5715200000000 1.0
C      1  0.4867730000000  0.4079340000000  0.5099870000000 1.0
C      1  0.4971750000000  0.5745380000000  0.4290800000000 1.0
C      1  0.4998740000000  0.4675330000000  0.5134520000000 1.0
C      1  0.4950980000000  0.6123570000000  0.4651050000000 1.0
C      1  0.4866040000000  0.4296780000000  0.4833000000000 1.0
C      1  0.4922340000000  0.6081620000000  0.5194190000000 1.0
C      1  0.4884450000000  0.5891160000000  0.5411520000000 1.0
C      1  0.4975710000000  0.5618250000000  0.5035260000000 1.0
C      1  0.4807620000000  0.4372100000000  0.4211610000000 1.0
C      1  0.4693360000000  0.3606830000000  0.5101780000000 1.0
C      1  0.5024900000000  0.5751750000000  0.5861410000000 1.0
C      1  0.4979080000000  0.5398260000000  0.4847080000000 1.0
C      1  0.5107230000000  0.4901600000000  0.4472720000000 1.0
C      1  0.4990950000000  0.4168750000000  0.6144960000000 1.0
C      1  0.4962620000000  0.5959120000000  0.4918310000000 1.0
C      1  0.4986120000000  0.4305440000000  0.6400050000000 1.0
C      1  0.5002610000000  0.4585940000000  0.4127150000000 1.0
C      1  0.5025670000000  0.6019510000000  0.4386240000000 1.0
C      1  0.4982730000000  0.4197980000000  0.5354250000000 1.0
C      1  0.4970000000000  0.4099030000000  0.5636350000000 1.0
C      1  0.5181430000000  0.4651800000000  0.4337410000000 1.0
C      1  0.4928550000000  0.5451740000000  0.3785100000000 1.0
C      1  0.4990160000000  0.4303170000000  0.5881350000000 1.0
END
