TITL C-862130-1496-972 0.000417914644860621 125000 -388.934127509239 0 0 70 (C1) n - 1
REM
REM in /home/nfs/bkarasulu/CARBON/AIRSS/Generating-Clusters/TERSOFF/Higher-Symm/FIRE-HFTN
REM
REM
REM
REM
REM
REM ./C.cell (b20cbc046b6831c77cfcea5457e17084)
REM AIRSS Version 0.9.1 bugfix July 2018 build 013d7b7c2542+ Fri, 06 Jul 2018 19:26:36 +0100
REM compiler GCC version 9.2.1 20190827 (Red Hat 9.2.1-1)
REM options -cpp -mtune=generic -march=x86-64 -g -O0 -fpre-include=/usr/include/finclude/math-vector-fortran.h
REM seed 769770125 841753778 -1845097627 -1846593824 -1665030533 742778097 -1093482894 -797631382 -116025102 1283313960 1683486045 -520162830 605340796 1171247236 -479410263 525338205 -987679515 2112448654 2085908427 -1762269333 -946818309 41878882 1867653709 2105579726 -450544648 1549875930 -361915577 -933210098 104325573 -2011940999 -1255778681 1358500180 1908019121
REM
CELL 1.54180   50.00000   50.00000   50.00000   90.00000   90.00000   90.00000
LATT -1
SFAC C  
C      1  0.5417790000000  0.5270890000000  0.4522190000000 1.0
C      1  0.5425580000000  0.4420480000000  0.5010780000000 1.0
C      1  0.5391510000000  0.5286030000000  0.5489230000000 1.0
C      1  0.5386380000000  0.4739120000000  0.4485430000000 1.0
C      1  0.5391080000000  0.5574130000000  0.5049760000000 1.0
C      1  0.5397760000000  0.4689630000000  0.5491520000000 1.0
C      1  0.5688640000000  0.4669790000000  0.5384030000000 1.0
C      1  0.5681730000000  0.5481900000000  0.5130010000000 1.0
C      1  0.5676480000000  0.4849680000000  0.4418810000000 1.0
C      1  0.5680000000000  0.5315660000000  0.5376860000000 1.0
C      1  0.5706750000000  0.4519530000000  0.5130530000000 1.0
C      1  0.5693810000000  0.5147790000000  0.4418090000000 1.0
C      1  0.4838360000000  0.4718590000000  0.4972640000000 1.0
C      1  0.4871940000000  0.5169640000000  0.5251190000000 1.0
C      1  0.4841750000000  0.5135650000000  0.4732170000000 1.0
C      1  0.4968270000000  0.5278050000000  0.4963380000000 1.0
C      1  0.4908700000000  0.4816930000000  0.5266950000000 1.0
C      1  0.4980120000000  0.4873520000000  0.4764400000000 1.0
C      1  0.5206360000000  0.5488440000000  0.4558110000000 1.0
C      1  0.5179720000000  0.4382070000000  0.4817880000000 1.0
C      1  0.5204630000000  0.5140080000000  0.5682200000000 1.0
C      1  0.5167580000000  0.4529010000000  0.4544660000000 1.0
C      1  0.5188370000000  0.5652470000000  0.4824200000000 1.0
C      1  0.5203080000000  0.4835220000000  0.5676970000000 1.0
C      1  0.4791750000000  0.4891520000000  0.4390080000000 1.0
C      1  0.4906430000000  0.4429010000000  0.5528920000000 1.0
C      1  0.4804850000000  0.5581010000000  0.5203380000000 1.0
C      1  0.4911390000000  0.5155450000000  0.4272860000000 1.0
C      1  0.4910730000000  0.5543870000000  0.5499840000000 1.0
C      1  0.4819220000000  0.4386980000000  0.5228250000000 1.0
C      1  0.4393490000000  0.4426960000000  0.4478600000000 1.0
C      1  0.4430580000000  0.4854120000000  0.5734560000000 1.0
C      1  0.4411470000000  0.5714990000000  0.4727350000000 1.0
C      1  0.4445630000000  0.5559260000000  0.4448710000000 1.0
C      1  0.4427580000000  0.5174290000000  0.5727620000000 1.0
C      1  0.4422840000000  0.4258770000000  0.4756080000000 1.0
C      1  0.4729090000000  0.4191770000000  0.4730250000000 1.0
C      1  0.4722240000000  0.5152250000000  0.5824610000000 1.0
C      1  0.4745140000000  0.5637710000000  0.4435590000000 1.0
C      1  0.4719900000000  0.5790050000000  0.4716230000000 1.0
C      1  0.4727460000000  0.4830930000000  0.5839500000000 1.0
C      1  0.4703020000000  0.4368710000000  0.4463250000000 1.0
C      1  0.4395690000000  0.4438020000000  0.4982620000000 1.0
C      1  0.4400570000000  0.5286620000000  0.5463010000000 1.0
C      1  0.4418360000000  0.5272990000000  0.4479970000000 1.0
C      1  0.4333530000000  0.5541180000000  0.4945050000000 1.0
C      1  0.4398160000000  0.4742600000000  0.5471120000000 1.0
C      1  0.4324270000000  0.4708280000000  0.4514100000000 1.0
C      1  0.5241190000000  0.4830280000000  0.5258760000000 1.0
C      1  0.5280490000000  0.5280500000000  0.4994520000000 1.0
C      1  0.5289680000000  0.4865110000000  0.4764290000000 1.0
C      1  0.5231000000000  0.5139010000000  0.5263220000000 1.0
C      1  0.5342070000000  0.4718500000000  0.5009860000000 1.0
C      1  0.5432870000000  0.5130140000000  0.4796490000000 1.0
C      1  0.4429640000000  0.4857160000000  0.4740090000000 1.0
C      1  0.4549700000000  0.4851100000000  0.5247260000000 1.0
C      1  0.4444060000000  0.5274890000000  0.4968610000000 1.0
C      1  0.4529390000000  0.5132850000000  0.4714910000000 1.0
C      1  0.4538580000000  0.5172170000000  0.5228740000000 1.0
C      1  0.4520560000000  0.4701630000000  0.4971740000000 1.0
C      1  0.4944490000000  0.4693410000000  0.5690860000000 1.0
C      1  0.4911960000000  0.5712370000000  0.4929800000000 1.0
C      1  0.4897260000000  0.4590220000000  0.4428780000000 1.0
C      1  0.4944290000000  0.5284390000000  0.5680950000000 1.0
C      1  0.4923700000000  0.4284940000000  0.4937600000000 1.0
C      1  0.4955670000000  0.5432260000000  0.4412310000000 1.0
C      1  0.5303670000000  0.5553340000000  0.5349420000000 1.0
C      1  0.5337210000000  0.4426150000000  0.5320830000000 1.0
C      1  0.5295750000000  0.5021330000000  0.4374610000000 1.0
C      1  0.5715440000000  0.5091250000000  0.4880180000000 1.0
END
