TITL C-862131-2149-244 -2.21373686179999e-05 125000 -1058.4962286799 0 0 199 (C5) n - 1
REM
REM in /home/nfs/bkarasulu/CARBON/AIRSS/Generating-Clusters/TERSOFF/Higher-Symm/FIRE-HFTN
REM
REM
REM
REM
REM
REM ./C.cell (b20cbc046b6831c77cfcea5457e17084)
REM AIRSS Version 0.9.1 bugfix July 2018 build 013d7b7c2542+ Fri, 06 Jul 2018 19:26:36 +0100
REM compiler GCC version 9.2.1 20190827 (Red Hat 9.2.1-1)
REM options -cpp -mtune=generic -march=x86-64 -g -O0 -fpre-include=/usr/include/finclude/math-vector-fortran.h
REM seed -1420284265 544367420 1950367597 1390110200 -1144329643 -194486820 -1758477926 2082056822 -1700447609 255367805 -71323769 -923334090 272565017 -3068101 -924027041 -612862751 -2059787913 2044725999 -1649947860 1339465474 -1524094140 -145652483 228311233 792073612 -483049447 779857994 1581750564 -486557698 -1434338315 -691376966 -1173214918 -1470030438 -1371015445
REM
CELL 1.54180   50.00000   50.00000   50.00000   90.00000   90.00000   90.00000
LATT -1
SFAC C  
C      1  0.4388260000000  0.4644140000000  0.5333790000000 1.0
C      1  0.5127850000000  0.4644140000000  0.5685820000000 1.0
C      1  0.5691200000000  0.4644140000000  0.5091210000000 1.0
C      1  0.5299780000000  0.4644140000000  0.4371690000000 1.0
C      1  0.4494520000000  0.4644140000000  0.4521610000000 1.0
C      1  0.4388260000000  0.5334790000000  0.5333790000000 1.0
C      1  0.5127850000000  0.5334790000000  0.5685820000000 1.0
C      1  0.5691200000000  0.5334790000000  0.5091210000000 1.0
C      1  0.5299780000000  0.5334790000000  0.4371690000000 1.0
C      1  0.4494520000000  0.5334790000000  0.4521610000000 1.0
C      1  0.5398750000000  0.4833880000000  0.4079600000000 1.0
C      1  0.4247310000000  0.4833880000000  0.4337220000000 1.0
C      1  0.4136500000000  0.4833880000000  0.5511910000000 1.0
C      1  0.5219460000000  0.4833880000000  0.5980300000000 1.0
C      1  0.5999580000000  0.4833880000000  0.5095080000000 1.0
C      1  0.5398750000000  0.5145050000000  0.4079600000000 1.0
C      1  0.4247310000000  0.5145050000000  0.4337220000000 1.0
C      1  0.4136500000000  0.5145050000000  0.5511910000000 1.0
C      1  0.5219460000000  0.5145050000000  0.5980300000000 1.0
C      1  0.5999580000000  0.5145050000000  0.5095080000000 1.0
C      1  0.4952700000000  0.5288690000000  0.6079510000000 1.0
C      1  0.6011490000000  0.5288690000000  0.5379450000000 1.0
C      1  0.5672880000000  0.5288690000000  0.4156140000000 1.0
C      1  0.4404810000000  0.5288690000000  0.4100160000000 1.0
C      1  0.3959710000000  0.5288690000000  0.5288870000000 1.0
C      1  0.4952700000000  0.4690250000000  0.6079510000000 1.0
C      1  0.6011490000000  0.4690250000000  0.5379450000000 1.0
C      1  0.5672880000000  0.4690250000000  0.4156140000000 1.0
C      1  0.4404810000000  0.4690250000000  0.4100160000000 1.0
C      1  0.3959710000000  0.4690250000000  0.5288870000000 1.0
C      1  0.5819970000000  0.5162430000000  0.5588760000000 1.0
C      1  0.5812770000000  0.5162430000000  0.4402970000000 1.0
C      1  0.4682790000000  0.5162430000000  0.4043390000000 1.0
C      1  0.3991620000000  0.5162430000000  0.5006950000000 1.0
C      1  0.4694440000000  0.5162430000000  0.5962050000000 1.0
C      1  0.5819970000000  0.4816500000000  0.5588760000000 1.0
C      1  0.5812770000000  0.4816500000000  0.4402970000000 1.0
C      1  0.4682790000000  0.4816500000000  0.4043390000000 1.0
C      1  0.3991620000000  0.4816500000000  0.5006950000000 1.0
C      1  0.4694440000000  0.4816500000000  0.5962050000000 1.0
C      1  0.4760150000000  0.3892060000000  0.5343750000000 1.0
C      1  0.5252240000000  0.3892060000000  0.5335210000000 1.0
C      1  0.5396190000000  0.3892060000000  0.4864560000000 1.0
C      1  0.4993060000000  0.3892060000000  0.4582230000000 1.0
C      1  0.4599960000000  0.3892060000000  0.4878380000000 1.0
C      1  0.4760150000000  0.6086870000000  0.5343750000000 1.0
C      1  0.5252240000000  0.6086870000000  0.5335210000000 1.0
C      1  0.5396190000000  0.6086870000000  0.4864560000000 1.0
C      1  0.4993060000000  0.6086870000000  0.4582230000000 1.0
C      1  0.4599960000000  0.6086870000000  0.4878380000000 1.0
C      1  0.5575580000000  0.4219150000000  0.5056770000000 1.0
C      1  0.5231290000000  0.4219150000000  0.4471000000000 1.0
C      1  0.4567810000000  0.4219150000000  0.4617430000000 1.0
C      1  0.4502040000000  0.4219150000000  0.5293700000000 1.0
C      1  0.5124880000000  0.4219150000000  0.5565220000000 1.0
C      1  0.5575580000000  0.5759780000000  0.5056770000000 1.0
C      1  0.5231290000000  0.5759780000000  0.4471000000000 1.0
C      1  0.4567810000000  0.5759780000000  0.4617430000000 1.0
C      1  0.4502040000000  0.5759780000000  0.5293700000000 1.0
C      1  0.5124880000000  0.5759780000000  0.5565220000000 1.0
C      1  0.5680610000000  0.5697680000000  0.5536420000000 1.0
C      1  0.5719920000000  0.5697680000000  0.4519340000000 1.0
C      1  0.4764770000000  0.5697680000000  0.4167660000000 1.0
C      1  0.4135140000000  0.5697680000000  0.4967380000000 1.0
C      1  0.4701160000000  0.5697680000000  0.5813330000000 1.0
C      1  0.5680610000000  0.4281250000000  0.5536420000000 1.0
C      1  0.5719920000000  0.4281250000000  0.4519340000000 1.0
C      1  0.4764770000000  0.4281250000000  0.4167660000000 1.0
C      1  0.4135140000000  0.4281250000000  0.4967380000000 1.0
C      1  0.4701160000000  0.4281250000000  0.5813330000000 1.0
C      1  0.5280000000000  0.3769610000000  0.4610600000000 1.0
C      1  0.4715620000000  0.3769610000000  0.4614250000000 1.0
C      1  0.4544690000000  0.3769610000000  0.5152140000000 1.0
C      1  0.5003430000000  0.3769610000000  0.5480920000000 1.0
C      1  0.5457870000000  0.3769610000000  0.5146230000000 1.0
C      1  0.5280000000000  0.6209320000000  0.4610600000000 1.0
C      1  0.4715620000000  0.6209320000000  0.4614250000000 1.0
C      1  0.4544690000000  0.6209320000000  0.5152140000000 1.0
C      1  0.5003430000000  0.6209320000000  0.5480920000000 1.0
C      1  0.5457870000000  0.6209320000000  0.5146230000000 1.0
C      1  0.5120490000000  0.5748880000000  0.4199990000000 1.0
C      1  0.4275810000000  0.5748880000000  0.4639060000000 1.0
C      1  0.4432380000000  0.5748880000000  0.5578080000000 1.0
C      1  0.5373820000000  0.5748880000000  0.5719350000000 1.0
C      1  0.5799100000000  0.5748880000000  0.4867640000000 1.0
C      1  0.5120490000000  0.4230050000000  0.4199990000000 1.0
C      1  0.4275810000000  0.4230050000000  0.4639060000000 1.0
C      1  0.4432380000000  0.4230050000000  0.5578080000000 1.0
C      1  0.5373820000000  0.4230050000000  0.5719350000000 1.0
C      1  0.5799100000000  0.4230050000000  0.4867640000000 1.0
C      1  0.4055680000000  0.4617130000000  0.4493380000000 1.0
C      1  0.4225810000000  0.4617130000000  0.5742420000000 1.0
C      1  0.5466280000000  0.4617130000000  0.5966600000000 1.0
C      1  0.6062810000000  0.4617130000000  0.4856110000000 1.0
C      1  0.5191010000000  0.4617130000000  0.3945610000000 1.0
C      1  0.4055680000000  0.5361800000000  0.4493380000000 1.0
C      1  0.4225810000000  0.5361800000000  0.5742420000000 1.0
C      1  0.5466280000000  0.5361800000000  0.5966600000000 1.0
C      1  0.6062810000000  0.5361800000000  0.4856110000000 1.0
C      1  0.5191010000000  0.5361800000000  0.3945610000000 1.0
C      1  0.4978820000000  0.4398100000000  0.6016470000000 1.0
C      1  0.5959610000000  0.4398100000000  0.5335120000000 1.0
C      1  0.5614690000000  0.4398100000000  0.4191790000000 1.0
C      1  0.4420730000000  0.4398100000000  0.4166520000000 1.0
C      1  0.4027740000000  0.4398100000000  0.5294230000000 1.0
C      1  0.4978820000000  0.5580830000000  0.6016470000000 1.0
C      1  0.5959610000000  0.5580830000000  0.5335120000000 1.0
C      1  0.5614690000000  0.5580830000000  0.4191790000000 1.0
C      1  0.4420730000000  0.5580830000000  0.4166520000000 1.0
C      1  0.4027740000000  0.5580830000000  0.5294230000000 1.0
C      1  0.5498560000000  0.4427500000000  0.5297500000000 1.0
C      1  0.5436440000000  0.4427500000000  0.4618650000000 1.0
C      1  0.4771620000000  0.4427500000000  0.4467950000000 1.0
C      1  0.4422850000000  0.4427500000000  0.5053660000000 1.0
C      1  0.4872120000000  0.4427500000000  0.5566360000000 1.0
C      1  0.5498560000000  0.5551430000000  0.5297500000000 1.0
C      1  0.5436440000000  0.5551430000000  0.4618650000000 1.0
C      1  0.4771620000000  0.5551430000000  0.4467950000000 1.0
C      1  0.4422850000000  0.5551430000000  0.5053660000000 1.0
C      1  0.4872120000000  0.5551430000000  0.5566360000000 1.0
C      1  0.6014800000000  0.4361330000000  0.5014940000000 1.0
C      1  0.5327230000000  0.4361330000000  0.4040360000000 1.0
C      1  0.4187890000000  0.4361330000000  0.4393110000000 1.0
C      1  0.4171290000000  0.4361330000000  0.5585700000000 1.0
C      1  0.5300390000000  0.4361330000000  0.5970010000000 1.0
C      1  0.6014800000000  0.5617600000000  0.5014940000000 1.0
C      1  0.5327230000000  0.5617600000000  0.4040360000000 1.0
C      1  0.4187890000000  0.5617600000000  0.4393110000000 1.0
C      1  0.4171290000000  0.5617600000000  0.5585700000000 1.0
C      1  0.5300390000000  0.5617600000000  0.5970010000000 1.0
C      1  0.4679500000000  0.5270500000000  0.5449330000000 1.0
C      1  0.5327740000000  0.5270500000000  0.5444530000000 1.0
C      1  0.5523490000000  0.5270500000000  0.4826550000000 1.0
C      1  0.4996240000000  0.5270500000000  0.4449410000000 1.0
C      1  0.4474630000000  0.5270500000000  0.4834310000000 1.0
C      1  0.4679500000000  0.4708430000000  0.5449330000000 1.0
C      1  0.5327740000000  0.4708430000000  0.5444530000000 1.0
C      1  0.5523490000000  0.4708430000000  0.4826550000000 1.0
C      1  0.4996240000000  0.4708430000000  0.4449410000000 1.0
C      1  0.4474630000000  0.4708430000000  0.4834310000000 1.0
C      1  0.4876150000000  0.4828600000000  0.5690570000000 1.0
C      1  0.5617930000000  0.4828600000000  0.5332060000000 1.0
C      1  0.5506200000000  0.4828600000000  0.4515800000000 1.0
C      1  0.4695350000000  0.4828600000000  0.4369820000000 1.0
C      1  0.4305960000000  0.4828600000000  0.5095870000000 1.0
C      1  0.4876150000000  0.5150330000000  0.5690570000000 1.0
C      1  0.5617930000000  0.5150330000000  0.5332060000000 1.0
C      1  0.5506200000000  0.5150330000000  0.4515800000000 1.0
C      1  0.4695350000000  0.5150330000000  0.4369820000000 1.0
C      1  0.4305960000000  0.5150330000000  0.5095870000000 1.0
C      1  0.4301270000000  0.4011510000000  0.5148300000000 1.0
C      1  0.4924560000000  0.4011510000000  0.5711230000000 1.0
C      1  0.5652550000000  0.4011510000000  0.5292400000000 1.0
C      1  0.5479180000000  0.4011510000000  0.4470620000000 1.0
C      1  0.4644040000000  0.4011510000000  0.4381560000000 1.0
C      1  0.4301270000000  0.5967430000000  0.5148300000000 1.0
C      1  0.4924560000000  0.5967430000000  0.5711230000000 1.0
C      1  0.5652550000000  0.5967430000000  0.5292400000000 1.0
C      1  0.5479180000000  0.5967430000000  0.4470620000000 1.0
C      1  0.4644040000000  0.5967430000000  0.4381560000000 1.0
C      1  0.5256170000000  0.5153610000000  0.4918040000000 1.0
C      1  0.5000650000000  0.5153610000000  0.4731920000000 1.0
C      1  0.4744680000000  0.5153610000000  0.4917410000000 1.0
C      1  0.4841990000000  0.5153610000000  0.5218180000000 1.0
C      1  0.5158110000000  0.5153610000000  0.5218570000000 1.0
C      1  0.5256170000000  0.4825320000000  0.4918040000000 1.0
C      1  0.5000650000000  0.4825320000000  0.4731920000000 1.0
C      1  0.4744680000000  0.4825320000000  0.4917410000000 1.0
C      1  0.4841990000000  0.4825320000000  0.5218180000000 1.0
C      1  0.5158110000000  0.4825320000000  0.5218570000000 1.0
C      1  0.4018280000000  0.5398230000000  0.4803040000000 1.0
C      1  0.4508750000000  0.5398230000000  0.5873680000000 1.0
C      1  0.5678550000000  0.5398230000000  0.5738060000000 1.0
C      1  0.5911060000000  0.5398230000000  0.4583610000000 1.0
C      1  0.4884960000000  0.5398230000000  0.4005730000000 1.0
C      1  0.4018280000000  0.4580710000000  0.4803040000000 1.0
C      1  0.4508750000000  0.4580710000000  0.5873680000000 1.0
C      1  0.5678550000000  0.4580710000000  0.5738060000000 1.0
C      1  0.5911060000000  0.4580710000000  0.4583610000000 1.0
C      1  0.4884960000000  0.4580710000000  0.4005730000000 1.0
C      1  0.5221370000000  0.4199330000000  0.5280760000000 1.0
C      1  0.5334860000000  0.4199330000000  0.4877100000000 1.0
C      1  0.4986030000000  0.4199330000000  0.4644430000000 1.0
C      1  0.4656950000000  0.4199330000000  0.4904280000000 1.0
C      1  0.4802390000000  0.4199330000000  0.5297560000000 1.0
C      1  0.5221370000000  0.5779600000000  0.5280760000000 1.0
C      1  0.5334860000000  0.5779600000000  0.4877100000000 1.0
C      1  0.4986030000000  0.5779600000000  0.4644430000000 1.0
C      1  0.4656950000000  0.5779600000000  0.4904280000000 1.0
C      1  0.4802390000000  0.5779600000000  0.5297560000000 1.0
C      1  0.5693990000000  0.4989470000000  0.4853820000000 1.0
C      1  0.4352720000000  0.4989470000000  0.4712020000000 1.0
C      1  0.4525530000000  0.4989470000000  0.5527480000000 1.0
C      1  0.5354490000000  0.4989470000000  0.5615120000000 1.0
C      1  0.5074870000000  0.4989470000000  0.4295680000000 1.0
C      1  0.5000320000000  0.3915630000000  0.5000820000000 1.0
C      1  0.5000320000000  0.6063300000000  0.5000820000000 1.0
C      1  0.5000320000000  0.4240200000000  0.5000820000000 1.0
C      1  0.5000320000000  0.5738740000000  0.5000820000000 1.0
END
