TITL C-862127-1500-738 0.285477542372821 125000 -895.204587258745 0 0 159 (C1) n - 1
REM
REM in /home/nfs/bkarasulu/CARBON/AIRSS/Generating-Clusters/TERSOFF/Higher-Symm/FIRE-HFTN
REM
REM
REM
REM
REM
REM ./C.cell (b20cbc046b6831c77cfcea5457e17084)
REM AIRSS Version 0.9.1 bugfix July 2018 build 013d7b7c2542+ Fri, 06 Jul 2018 19:26:36 +0100
REM compiler GCC version 9.2.1 20190827 (Red Hat 9.2.1-1)
REM options -cpp -mtune=generic -march=x86-64 -g -O0 -fpre-include=/usr/include/finclude/math-vector-fortran.h
REM seed -437062285 1930255158 2079602703 -1044702408 759174153 -1983681524 -26079631 -539561126 1603396766 386459616 938030844 1132217646 1141235943 -717541380 -1154849375 -60547277 -1474947326 1906401405 -1018542863 -1874290322 -1952673373 -1102366767 -699586714 -1946869793 -1740789072 -1657976637 1315745754 1247596721 -299887870 -122248022 185638948 999623949 568882517
REM
CELL 1.54180   50.00000   50.00000   50.00000   90.00000   90.00000   90.00000
LATT -1
SFAC C  
C      1  0.4412400000000  0.5257760000000  0.5181640000000 1.0
C      1  0.4371360000000  0.4706670000000  0.5185010000000 1.0
C      1  0.4343450000000  0.4994190000000  0.4646810000000 1.0
C      1  0.4410960000000  0.5255520000000  0.4819890000000 1.0
C      1  0.4370120000000  0.4704300000000  0.4823750000000 1.0
C      1  0.4346060000000  0.4998620000000  0.5358390000000 1.0
C      1  0.5004630000000  0.4719990000000  0.4070650000000 1.0
C      1  0.4984390000000  0.5762530000000  0.5137420000000 1.0
C      1  0.4995280000000  0.4500170000000  0.5770790000000 1.0
C      1  0.5010620000000  0.4731520000000  0.5934720000000 1.0
C      1  0.4983820000000  0.5760350000000  0.4855490000000 1.0
C      1  0.4990700000000  0.4490520000000  0.4237080000000 1.0
C      1  0.5648130000000  0.5801810000000  0.4684540000000 1.0
C      1  0.5652890000000  0.4900660000000  0.5834180000000 1.0
C      1  0.5608810000000  0.4352610000000  0.4521310000000 1.0
C      1  0.5649660000000  0.5805920000000  0.5304560000000 1.0
C      1  0.5649570000000  0.4889090000000  0.4167600000000 1.0
C      1  0.5612650000000  0.4361060000000  0.5485800000000 1.0
C      1  0.4152680000000  0.4259480000000  0.5155920000000 1.0
C      1  0.3984810000000  0.5149810000000  0.4430300000000 1.0
C      1  0.4120730000000  0.5418950000000  0.5507090000000 1.0
C      1  0.4151900000000  0.4257510000000  0.4860540000000 1.0
C      1  0.3988410000000  0.5157100000000  0.5575190000000 1.0
C      1  0.4117440000000  0.5412540000000  0.4494400000000 1.0
C      1  0.5418170000000  0.5825670000000  0.5553630000000 1.0
C      1  0.5472030000000  0.4122320000000  0.5323830000000 1.0
C      1  0.5528400000000  0.5168600000000  0.4060470000000 1.0
C      1  0.5414840000000  0.5819460000000  0.4436530000000 1.0
C      1  0.5469210000000  0.4116320000000  0.4686790000000 1.0
C      1  0.5534830000000  0.5180330000000  0.5936490000000 1.0
C      1  0.6086660000000  0.4968810000000  0.5513030000000 1.0
C      1  0.6360890000000  0.4576220000000  0.4683190000000 1.0
C      1  0.6621150000000  0.5370080000000  0.4756200000000 1.0
C      1  0.6543110000000  0.5184340000000  0.4509160000000 1.0
C      1  0.6371760000000  0.4453230000000  0.4977060000000 1.0
C      1  0.6184480000000  0.5265450000000  0.5449460000000 1.0
C      1  0.6385950000000  0.5197400000000  0.5212540000000 1.0
C      1  0.6215520000000  0.4723940000000  0.5048390000000 1.0
C      1  0.6293860000000  0.5113530000000  0.4697960000000 1.0
C      1  0.6371300000000  0.5305490000000  0.4942630000000 1.0
C      1  0.6200670000000  0.4842830000000  0.4751010000000 1.0
C      1  0.6284600000000  0.4898910000000  0.5270710000000 1.0
C      1  0.5783380000000  0.4869650000000  0.4473780000000 1.0
C      1  0.5759530000000  0.5525480000000  0.5162290000000 1.0
C      1  0.5711260000000  0.4623040000000  0.5340010000000 1.0
C      1  0.5807120000000  0.4885330000000  0.5529330000000 1.0
C      1  0.5758160000000  0.5523050000000  0.4831120000000 1.0
C      1  0.5713130000000  0.4614720000000  0.4664610000000 1.0
C      1  0.5175690000000  0.5581200000000  0.4714750000000 1.0
C      1  0.5194350000000  0.4949470000000  0.5823550000000 1.0
C      1  0.5129700000000  0.4502720000000  0.4499420000000 1.0
C      1  0.5177080000000  0.5586400000000  0.5279670000000 1.0
C      1  0.5188740000000  0.4939200000000  0.4178490000000 1.0
C      1  0.5132380000000  0.4509250000000  0.5507200000000 1.0
C      1  0.4751000000000  0.5210030000000  0.4847790000000 1.0
C      1  0.4809160000000  0.4953230000000  0.5284660000000 1.0
C      1  0.4692390000000  0.4720720000000  0.4850880000000 1.0
C      1  0.4752430000000  0.5211750000000  0.5152270000000 1.0
C      1  0.4806850000000  0.4950080000000  0.4717820000000 1.0
C      1  0.4693480000000  0.4722490000000  0.5155120000000 1.0
C      1  0.4767100000000  0.4769900000000  0.3914310000000 1.0
C      1  0.4832700000000  0.5966950000000  0.5264700000000 1.0
C      1  0.4797690000000  0.4305730000000  0.5830690000000 1.0
C      1  0.4773970000000  0.4783400000000  0.6091780000000 1.0
C      1  0.4831200000000  0.5962670000000  0.4725940000000 1.0
C      1  0.4792800000000  0.4295340000000  0.4180800000000 1.0
C      1  0.4078820000000  0.4562560000000  0.5271480000000 1.0
C      1  0.4040780000000  0.4890040000000  0.4600460000000 1.0
C      1  0.4135990000000  0.5439010000000  0.5176500000000 1.0
C      1  0.4077160000000  0.4559010000000  0.4741140000000 1.0
C      1  0.4043710000000  0.4895420000000  0.5408060000000 1.0
C      1  0.4134650000000  0.5436920000000  0.4824580000000 1.0
C      1  0.4944810000000  0.3877250000000  0.4747470000000 1.0
C      1  0.4918800000000  0.5795110000000  0.4243160000000 1.0
C      1  0.5022750000000  0.5389520000000  0.6039030000000 1.0
C      1  0.4946830000000  0.3881540000000  0.5270470000000 1.0
C      1  0.4923140000000  0.5804660000000  0.5748630000000 1.0
C      1  0.5015770000000  0.5376730000000  0.3956250000000 1.0
C      1  0.5208130000000  0.3928950000000  0.5434900000000 1.0
C      1  0.5274760000000  0.5214310000000  0.3873350000000 1.0
C      1  0.5127050000000  0.5931920000000  0.5562030000000 1.0
C      1  0.5204870000000  0.3921970000000  0.4580530000000 1.0
C      1  0.5282400000000  0.5229320000000  0.6123780000000 1.0
C      1  0.5123570000000  0.5925260000000  0.4427000000000 1.0
C      1  0.5398870000000  0.4475140000000  0.5657670000000 1.0
C      1  0.5424220000000  0.4698290000000  0.4158770000000 1.0
C      1  0.5404120000000  0.5753980000000  0.5140260000000 1.0
C      1  0.5395020000000  0.4465460000000  0.4347540000000 1.0
C      1  0.5429180000000  0.4709150000000  0.5843130000000 1.0
C      1  0.5403510000000  0.5751190000000  0.4850560000000 1.0
C      1  0.4738940000000  0.5255620000000  0.3970390000000 1.0
C      1  0.4618920000000  0.5797490000000  0.5698110000000 1.0
C      1  0.4665130000000  0.3926860000000  0.5386130000000 1.0
C      1  0.4746250000000  0.5267770000000  0.6028320000000 1.0
C      1  0.4614720000000  0.5788810000000  0.4295310000000 1.0
C      1  0.4662250000000  0.3920700000000  0.4633070000000 1.0
C      1  0.4086190000000  0.4480060000000  0.5681550000000 1.0
C      1  0.4072420000000  0.4732300000000  0.4212640000000 1.0
C      1  0.4111690000000  0.5855660000000  0.5142590000000 1.0
C      1  0.4082130000000  0.4470950000000  0.4332190000000 1.0
C      1  0.4077590000000  0.4742950000000  0.5797790000000 1.0
C      1  0.4110780000000  0.5853950000000  0.4853670000000 1.0
C      1  0.4480880000000  0.5017230000000  0.5653870000000 1.0
C      1  0.4488970000000  0.4407010000000  0.4659920000000 1.0
C      1  0.4486420000000  0.5558550000000  0.4630080000000 1.0
C      1  0.4475970000000  0.5009340000000  0.4349930000000 1.0
C      1  0.4491070000000  0.4411860000000  0.5352080000000 1.0
C      1  0.4488920000000  0.5563070000000  0.5367320000000 1.0
C      1  0.4518450000000  0.4669670000000  0.6006600000000 1.0
C      1  0.4527190000000  0.4390110000000  0.4141340000000 1.0
C      1  0.4573830000000  0.6013400000000  0.4842980000000 1.0
C      1  0.4512150000000  0.4656940000000  0.4002120000000 1.0
C      1  0.4532380000000  0.4401100000000  0.5870670000000 1.0
C      1  0.4574640000000  0.6015550000000  0.5148320000000 1.0
C      1  0.5570710000000  0.5398850000000  0.5759430000000 1.0
C      1  0.5247260000000  0.4228520000000  0.4864170000000 1.0
C      1  0.5353380000000  0.5551350000000  0.4335620000000 1.0
C      1  0.5566280000000  0.5392140000000  0.4230930000000 1.0
C      1  0.5248240000000  0.4230690000000  0.5145810000000 1.0
C      1  0.5357110000000  0.5558630000000  0.5657820000000 1.0
C      1  0.5305170000000  0.5345860000000  0.5142930000000 1.0
C      1  0.5240830000000  0.4754940000000  0.5346110000000 1.0
C      1  0.5312690000000  0.4962630000000  0.4473780000000 1.0
C      1  0.5304390000000  0.5343130000000  0.4855730000000 1.0
C      1  0.5241130000000  0.4749550000000  0.4656830000000 1.0
C      1  0.5317590000000  0.4966670000000  0.5527720000000 1.0
C      1  0.5031520000000  0.4338070000000  0.4710790000000 1.0
C      1  0.5047670000000  0.5426410000000  0.4417040000000 1.0
C      1  0.4979000000000  0.5143570000000  0.5701530000000 1.0
C      1  0.5033080000000  0.4341600000000  0.5298840000000 1.0
C      1  0.5051040000000  0.5433500000000  0.5579340000000 1.0
C      1  0.4973500000000  0.5135800000000  0.4297520000000 1.0
C      1  0.4425340000000  0.5521830000000  0.5673450000000 1.0
C      1  0.4431070000000  0.4116880000000  0.5269570000000 1.0
C      1  0.4544030000000  0.5266820000000  0.4208630000000 1.0
C      1  0.4420890000000  0.5513680000000  0.4324860000000 1.0
C      1  0.4429460000000  0.4113510000000  0.4747310000000 1.0
C      1  0.4549620000000  0.5276340000000  0.5791530000000 1.0
C      1  0.4379050000000  0.5831660000000  0.5261620000000 1.0
C      1  0.4358380000000  0.4382040000000  0.5637460000000 1.0
C      1  0.4336550000000  0.4837880000000  0.4148390000000 1.0
C      1  0.4377350000000  0.5828380000000  0.4733210000000 1.0
C      1  0.4354670000000  0.4373730000000  0.4375800000000 1.0
C      1  0.4342360000000  0.4848870000000  0.5858800000000 1.0
C      1  0.5570350000000  0.5288750000000  0.4747620000000 1.0
C      1  0.5576690000000  0.5094740000000  0.5469870000000 1.0
C      1  0.5473920000000  0.4687590000000  0.4847240000000 1.0
C      1  0.5571570000000  0.5292860000000  0.5250760000000 1.0
C      1  0.5572910000000  0.5093640000000  0.4526230000000 1.0
C      1  0.5474710000000  0.4694900000000  0.5156690000000 1.0
C      1  0.4782490000000  0.5448250000000  0.4660040000000 1.0
C      1  0.4771870000000  0.4984750000000  0.5568820000000 1.0
C      1  0.4783480000000  0.4411600000000  0.4834410000000 1.0
C      1  0.4784750000000  0.5452100000000  0.5337240000000 1.0
C      1  0.4767420000000  0.4978420000000  0.4433590000000 1.0
C      1  0.4784410000000  0.4413560000000  0.5175540000000 1.0
C      1  0.4970820000000  0.3746340000000  0.5009970000000 1.0
C      1  0.5030740000000  0.5661790000000  0.4007610000000 1.0
C      1  0.5036390000000  0.5674090000000  0.5984950000000 1.0
END
