TITL C-862500-986-420 2.85923277817073e-06 125000 -137.603502106235 0 0 23 (C3) n - 1
REM
REM in /home/nfs/bkarasulu/CARBON/AIRSS/Generating-Clusters/TERSOFF/Higher-Symm/FIRE-HFTN
REM
REM
REM
REM
REM
REM ./C.cell (b20cbc046b6831c77cfcea5457e17084)
REM AIRSS Version 0.9.1 bugfix July 2018 build 013d7b7c2542+ Fri, 06 Jul 2018 19:26:36 +0100
REM compiler GCC version 9.2.1 20190827 (Red Hat 9.2.1-1)
REM options -cpp -mtune=generic -march=x86-64 -g -O0 -fpre-include=/usr/include/finclude/math-vector-fortran.h
REM seed -537949834 -1086615708 1885544862 -1230226586 863447597 1801458997 -82525859 -91460785 -1576027277 -1094064637 -368816780 1992979985 -889561070 -2128311198 789897425 -755684096 -267636409 876858231 -783239960 -739799776 -1033046270 -956094247 1217957702 363524683 849586734 -1282068285 -1946467382 -457641427 -1179020927 -1415722272 -1079448674 361789519 -2139590833
REM
CELL 1.54180   50.00000   50.00000   50.00000   90.00000   90.00000   90.00000
LATT -1
SFAC C  
C      1  0.4857820000000  0.5231210000000  0.4709090000000 1.0
C      1  0.5323940000000  0.4994090000000  0.4709090000000 1.0
C      1  0.4885530000000  0.4708980000000  0.4709090000000 1.0
C      1  0.5321940000000  0.5314810000000  0.5107900000000 1.0
C      1  0.5164280000000  0.4550350000000  0.5107890000000 1.0
C      1  0.4581070000000  0.5069120000000  0.5107890000000 1.0
C      1  0.4606040000000  0.4708440000000  0.4799120000000 1.0
C      1  0.4997090000000  0.5473520000000  0.4799120000000 1.0
C      1  0.5464150000000  0.4752320000000  0.4799120000000 1.0
C      1  0.5422740000000  0.5234220000000  0.4844480000000 1.0
C      1  0.5044090000000  0.4503350000000  0.4844470000000 1.0
C      1  0.4600460000000  0.5196710000000  0.4844480000000 1.0
C      1  0.4694380000000  0.4623110000000  0.5274490000000 1.0
C      1  0.4879030000000  0.5439680000000  0.5274490000000 1.0
C      1  0.5493880000000  0.4871490000000  0.5274490000000 1.0
C      1  0.4978290000000  0.4684690000000  0.5305270000000 1.0
C      1  0.4790410000000  0.5163020000000  0.5305270000000 1.0
C      1  0.5298600000000  0.5086560000000  0.5305270000000 1.0
C      1  0.4542530000000  0.4777300000000  0.5078790000000 1.0
C      1  0.5088490000000  0.5494090000000  0.5078790000000 1.0
C      1  0.5436270000000  0.4662890000000  0.5078790000000 1.0
C      1  0.5022430000000  0.4978090000000  0.4662650000000 1.0
C      1  0.5022430000000  0.4978090000000  0.5356000000000 1.0
END
