TITL C-862129-6180-617 -20.4778180038737 125000 -1018.84024255964 0 0 176 (C1) n - 1
REM
REM in /home/nfs/bkarasulu/CARBON/AIRSS/Generating-Clusters/TERSOFF/Higher-Symm/FIRE-HFTN
REM
REM
REM
REM
REM
REM ./C.cell (b20cbc046b6831c77cfcea5457e17084)
REM AIRSS Version 0.9.1 bugfix July 2018 build 013d7b7c2542+ Fri, 06 Jul 2018 19:26:36 +0100
REM compiler GCC version 9.2.1 20190827 (Red Hat 9.2.1-1)
REM options -cpp -mtune=generic -march=x86-64 -g -O0 -fpre-include=/usr/include/finclude/math-vector-fortran.h
REM seed 165264003 -1276678175 -666752809 1031221460 1179382439 2081214295 -1507684820 -2146979607 -1893804139 -302634696 -1181218273 -2062964239 715959975 494040153 -861213772 373267150 -1983692738 -903033921 2039079453 -924909743 1144986291 1273144236 1771869281 -1547883062 1537576637 -540476343 -381937088 -638232305 1354127619 -131896430 -1597595418 876555407 -70728621
REM
CELL 1.54180   50.00000   50.00000   50.00000   90.00000   90.00000   90.00000
LATT -1
SFAC C  
C      1  0.4571590000000  0.5452190000000  0.4766840000000 1.0
C      1  0.4704090000000  0.5319550000000  0.5282780000000 1.0
C      1  0.5272610000000  0.4443010000000  0.5425420000000 1.0
C      1  0.5813720000000  0.3961550000000  0.5462740000000 1.0
C      1  0.4690950000000  0.4383740000000  0.4255410000000 1.0
C      1  0.5508780000000  0.5407380000000  0.5882390000000 1.0
C      1  0.4422260000000  0.5831590000000  0.5202530000000 1.0
C      1  0.4627560000000  0.5721140000000  0.4449580000000 1.0
C      1  0.5130580000000  0.5100430000000  0.5468390000000 1.0
C      1  0.4104770000000  0.5698470000000  0.4613060000000 1.0
C      1  0.3980800000000  0.5303180000000  0.5205970000000 1.0
C      1  0.5166510000000  0.6215140000000  0.4301800000000 1.0
C      1  0.5907000000000  0.4426450000000  0.5287480000000 1.0
C      1  0.5125620000000  0.5747330000000  0.4494460000000 1.0
C      1  0.4832860000000  0.3970400000000  0.4839380000000 1.0
C      1  0.4380500000000  0.5850520000000  0.5645530000000 1.0
C      1  0.4149020000000  0.4941450000000  0.4231660000000 1.0
C      1  0.4613820000000  0.4240490000000  0.5823380000000 1.0
C      1  0.4950050000000  0.4239920000000  0.4242120000000 1.0
C      1  0.4974180000000  0.4645880000000  0.3991580000000 1.0
C      1  0.4218640000000  0.5956650000000  0.5034780000000 1.0
C      1  0.3929630000000  0.4852030000000  0.5415850000000 1.0
C      1  0.3990070000000  0.4540120000000  0.5029060000000 1.0
C      1  0.4061770000000  0.5203250000000  0.6006530000000 1.0
C      1  0.4651080000000  0.4862390000000  0.4329100000000 1.0
C      1  0.4697300000000  0.5324310000000  0.5753210000000 1.0
C      1  0.4013760000000  0.5422600000000  0.4181110000000 1.0
C      1  0.4800210000000  0.4016610000000  0.5838940000000 1.0
C      1  0.5553530000000  0.4938860000000  0.5789980000000 1.0
C      1  0.4411070000000  0.5334310000000  0.5616320000000 1.0
C      1  0.5099810000000  0.4569760000000  0.5210540000000 1.0
C      1  0.4217970000000  0.4867210000000  0.5469130000000 1.0
C      1  0.5313360000000  0.4140240000000  0.5450670000000 1.0
C      1  0.4690530000000  0.4646460000000  0.4108430000000 1.0
C      1  0.5414220000000  0.6129740000000  0.5183330000000 1.0
C      1  0.5835070000000  0.4477500000000  0.4605180000000 1.0
C      1  0.5441430000000  0.4333280000000  0.4926080000000 1.0
C      1  0.5589380000000  0.4061680000000  0.5304340000000 1.0
C      1  0.4860400000000  0.5351230000000  0.4685160000000 1.0
C      1  0.4762830000000  0.4917080000000  0.5068170000000 1.0
C      1  0.4814070000000  0.4492570000000  0.5326630000000 1.0
C      1  0.5192370000000  0.6112290000000  0.5404740000000 1.0
C      1  0.5052350000000  0.6028540000000  0.4492330000000 1.0
C      1  0.6061960000000  0.5310210000000  0.5109550000000 1.0
C      1  0.4905130000000  0.5522070000000  0.5697420000000 1.0
C      1  0.5097650000000  0.5588930000000  0.5182550000000 1.0
C      1  0.4744180000000  0.4664030000000  0.6090860000000 1.0
C      1  0.4909970000000  0.5125760000000  0.3950980000000 1.0
C      1  0.4684730000000  0.5765930000000  0.4158310000000 1.0
C      1  0.5130540000000  0.4395830000000  0.4043510000000 1.0
C      1  0.4762530000000  0.5169570000000  0.6019250000000 1.0
C      1  0.5075510000000  0.4071220000000  0.5924100000000 1.0
C      1  0.4840080000000  0.4823610000000  0.4580280000000 1.0
C      1  0.5627260000000  0.4276820000000  0.4695070000000 1.0
C      1  0.6090290000000  0.4405630000000  0.5054620000000 1.0
C      1  0.4365030000000  0.4859830000000  0.4404500000000 1.0
C      1  0.5947660000000  0.5207630000000  0.5620820000000 1.0
C      1  0.5518140000000  0.3801180000000  0.4826260000000 1.0
C      1  0.5660600000000  0.5756740000000  0.4068390000000 1.0
C      1  0.3843690000000  0.4808950000000  0.5134260000000 1.0
C      1  0.5189780000000  0.4893150000000  0.6184470000000 1.0
C      1  0.5325280000000  0.4054310000000  0.5740100000000 1.0
C      1  0.6095760000000  0.5185150000000  0.4632610000000 1.0
C      1  0.4475660000000  0.4310420000000  0.4431830000000 1.0
C      1  0.4986300000000  0.6236700000000  0.4939300000000 1.0
C      1  0.5253670000000  0.5041730000000  0.4407150000000 1.0
C      1  0.5131060000000  0.4331510000000  0.6067210000000 1.0
C      1  0.5542550000000  0.5249860000000  0.5387140000000 1.0
C      1  0.4989260000000  0.3961090000000  0.4328370000000 1.0
C      1  0.4497880000000  0.4289540000000  0.4718560000000 1.0
C      1  0.4984880000000  0.5330820000000  0.5269720000000 1.0
C      1  0.5553760000000  0.5379220000000  0.5132280000000 1.0
C      1  0.5313650000000  0.4612130000000  0.4639830000000 1.0
C      1  0.4838500000000  0.5365960000000  0.4376560000000 1.0
C      1  0.4142870000000  0.5641060000000  0.4327100000000 1.0
C      1  0.6122420000000  0.5104680000000  0.4908100000000 1.0
C      1  0.5694220000000  0.5356610000000  0.5615930000000 1.0
C      1  0.4691270000000  0.4637050000000  0.5072290000000 1.0
C      1  0.5043170000000  0.4899270000000  0.5207230000000 1.0
C      1  0.4524300000000  0.5105350000000  0.5129400000000 1.0
C      1  0.5104120000000  0.4403970000000  0.4953800000000 1.0
C      1  0.4616580000000  0.4842650000000  0.5599080000000 1.0
C      1  0.4725380000000  0.5135010000000  0.4200550000000 1.0
C      1  0.5316320000000  0.4884740000000  0.5610340000000 1.0
C      1  0.4701660000000  0.5544420000000  0.3954890000000 1.0
C      1  0.5418120000000  0.4421850000000  0.4061880000000 1.0
C      1  0.5377520000000  0.4152220000000  0.4381220000000 1.0
C      1  0.5531830000000  0.4632570000000  0.4222060000000 1.0
C      1  0.5743930000000  0.5830740000000  0.5378070000000 1.0
C      1  0.4984740000000  0.5409010000000  0.3877890000000 1.0
C      1  0.4357600000000  0.4655330000000  0.5326620000000 1.0
C      1  0.5520530000000  0.5274110000000  0.4633210000000 1.0
C      1  0.4856510000000  0.6113290000000  0.4693590000000 1.0
C      1  0.4229760000000  0.4678770000000  0.4898400000000 1.0
C      1  0.5864120000000  0.5090780000000  0.4476000000000 1.0
C      1  0.4751440000000  0.4494780000000  0.5849700000000 1.0
C      1  0.3952720000000  0.5088290000000  0.5004590000000 1.0
C      1  0.5653770000000  0.3991390000000  0.4653600000000 1.0
C      1  0.5955450000000  0.5712640000000  0.4475920000000 1.0
C      1  0.6003050000000  0.4845400000000  0.4973460000000 1.0
C      1  0.5844000000000  0.4927820000000  0.5679480000000 1.0
C      1  0.4411890000000  0.5347430000000  0.4982630000000 1.0
C      1  0.4921530000000  0.4556760000000  0.5625730000000 1.0
C      1  0.5510730000000  0.4260770000000  0.5866800000000 1.0
C      1  0.5442380000000  0.3853760000000  0.5106270000000 1.0
C      1  0.5934930000000  0.4866320000000  0.4308320000000 1.0
C      1  0.5669120000000  0.5674060000000  0.5600690000000 1.0
C      1  0.4984370000000  0.3859640000000  0.4609580000000 1.0
C      1  0.5012000000000  0.5065200000000  0.4612430000000 1.0
C      1  0.5212710000000  0.5470650000000  0.4074010000000 1.0
C      1  0.6140240000000  0.5264220000000  0.5397810000000 1.0
C      1  0.4801040000000  0.5076800000000  0.5611500000000 1.0
C      1  0.5341500000000  0.4762170000000  0.4400020000000 1.0
C      1  0.5923260000000  0.4715220000000  0.5463680000000 1.0
C      1  0.4736860000000  0.4216930000000  0.5276940000000 1.0
C      1  0.4396440000000  0.3969770000000  0.5081130000000 1.0
C      1  0.4330790000000  0.4810830000000  0.5750020000000 1.0
C      1  0.4641010000000  0.5962370000000  0.5713780000000 1.0
C      1  0.4212770000000  0.5468960000000  0.5179250000000 1.0
C      1  0.5820360000000  0.5466870000000  0.5041490000000 1.0
C      1  0.3965810000000  0.5155700000000  0.4288940000000 1.0
C      1  0.5168980000000  0.5416960000000  0.5636670000000 1.0
C      1  0.5219510000000  0.4607490000000  0.5666210000000 1.0
C      1  0.4254030000000  0.5122190000000  0.5805420000000 1.0
C      1  0.3896780000000  0.5549630000000  0.4771430000000 1.0
C      1  0.3855200000000  0.5253010000000  0.4767380000000 1.0
C      1  0.5373420000000  0.5676720000000  0.5706600000000 1.0
C      1  0.4890300000000  0.5812370000000  0.5715170000000 1.0
C      1  0.5166820000000  0.5927270000000  0.5647510000000 1.0
C      1  0.5096640000000  0.4905890000000  0.3923240000000 1.0
C      1  0.4607570000000  0.5898830000000  0.4707970000000 1.0
C      1  0.4228940000000  0.4418610000000  0.5228060000000 1.0
C      1  0.5367160000000  0.4989560000000  0.4004650000000 1.0
C      1  0.5054170000000  0.5151540000000  0.6105950000000 1.0
C      1  0.5610130000000  0.4361410000000  0.5190130000000 1.0
C      1  0.5344000000000  0.4509540000000  0.5934690000000 1.0
C      1  0.5287700000000  0.6270750000000  0.4951790000000 1.0
C      1  0.4974910000000  0.6080080000000  0.5199110000000 1.0
C      1  0.5640540000000  0.5016110000000  0.4737580000000 1.0
C      1  0.5815800000000  0.4826200000000  0.5198050000000 1.0
C      1  0.5499630000000  0.4765160000000  0.4837360000000 1.0
C      1  0.4532500000000  0.5295490000000  0.4022400000000 1.0
C      1  0.4413100000000  0.4167660000000  0.5313110000000 1.0
C      1  0.4991330000000  0.4684520000000  0.6246820000000 1.0
C      1  0.5640600000000  0.5336540000000  0.4350360000000 1.0
C      1  0.4336060000000  0.5618620000000  0.5444430000000 1.0
C      1  0.5563670000000  0.5874810000000  0.5139920000000 1.0
C      1  0.5062050000000  0.5576550000000  0.4731270000000 1.0
C      1  0.6041430000000  0.4580940000000  0.4814760000000 1.0
C      1  0.5386390000000  0.5242710000000  0.4186660000000 1.0
C      1  0.5033680000000  0.5566870000000  0.4280670000000 1.0
C      1  0.4908290000000  0.5810000000000  0.5140490000000 1.0
C      1  0.5812360000000  0.5761380000000  0.4968060000000 1.0
C      1  0.4238610000000  0.4965830000000  0.4960020000000 1.0
C      1  0.5382060000000  0.5613660000000  0.5113810000000 1.0
C      1  0.5231830000000  0.4324340000000  0.4562200000000 1.0
C      1  0.5574770000000  0.4683160000000  0.5114860000000 1.0
C      1  0.3796490000000  0.5128690000000  0.4517700000000 1.0
C      1  0.5442080000000  0.4786200000000  0.6042650000000 1.0
C      1  0.4378350000000  0.4255090000000  0.5644180000000 1.0
C      1  0.4358390000000  0.5160380000000  0.3835300000000 1.0
C      1  0.5168920000000  0.3970170000000  0.5221260000000 1.0
C      1  0.5752220000000  0.5603000000000  0.4297480000000 1.0
C      1  0.4357050000000  0.5111810000000  0.5395640000000 1.0
C      1  0.4651400000000  0.5778310000000  0.5019060000000 1.0
C      1  0.4277830000000  0.5906550000000  0.4750770000000 1.0
C      1  0.4547300000000  0.4027810000000  0.4835180000000 1.0
C      1  0.4475410000000  0.4531280000000  0.4893580000000 1.0
C      1  0.5802350000000  0.4615470000000  0.4336810000000 1.0
C      1  0.4489330000000  0.4660340000000  0.3884960000000 1.0
C      1  0.4294690000000  0.4875690000000  0.3843320000000 1.0
C      1  0.5899940000000  0.5870320000000  0.4713510000000 1.0
C      1  0.4906320000000  0.4542730000000  0.4712770000000 1.0
C      1  0.4211810000000  0.4502640000000  0.5724000000000 1.0
C      1  0.4961170000000  0.4114820000000  0.5061630000000 1.0
C      1  0.4609720000000  0.4924040000000  0.6071950000000 1.0
END
