TITL C-862506-1665-274 0.546865974765135 125000 -600.281836468983 0 0 106 (Cs) n - 1
REM
REM in /home/nfs/bkarasulu/CARBON/AIRSS/Generating-Clusters/TERSOFF/Higher-Symm/FIRE-HFTN
REM
REM
REM
REM
REM
REM ./C.cell (b20cbc046b6831c77cfcea5457e17084)
REM AIRSS Version 0.9.1 bugfix July 2018 build 013d7b7c2542+ Fri, 06 Jul 2018 19:26:36 +0100
REM compiler GCC version 9.2.1 20190827 (Red Hat 9.2.1-1)
REM options -cpp -mtune=generic -march=x86-64 -g -O0 -fpre-include=/usr/include/finclude/math-vector-fortran.h
REM seed 461956277 888285393 1604137066 -1371644119 1957462335 1940713610 -1364021512 94926581 1872565555 -220089828 -588642458 1823936286 443151709 -193315853 -1681423359 -2109621824 -121260031 1447512106 1935137472 1302862894 -1738759678 1745401991 -1111826542 -1862277797 187912906 -1056829488 1483933206 -2124107465 1951815616 -1040258906 1894850795 823699692 -645856053
REM
CELL 1.54180   50.00000   50.00000   50.00000   90.00000   90.00000   90.00000
LATT -1
SFAC C  
C      1  0.4659670000000  0.5917310000000  0.4806600000000 1.0
C      1  0.5327810000000  0.5917190000000  0.4806370000000 1.0
C      1  0.5256090000000  0.5382610000000  0.4915960000000 1.0
C      1  0.4731280000000  0.5382700000000  0.4916140000000 1.0
C      1  0.4532730000000  0.5405610000000  0.5161720000000 1.0
C      1  0.5454810000000  0.5405440000000  0.5161400000000 1.0
C      1  0.4241670000000  0.4969750000000  0.4350580000000 1.0
C      1  0.5745160000000  0.4969490000000  0.4350060000000 1.0
C      1  0.4527110000000  0.5388390000000  0.4424640000000 1.0
C      1  0.5459920000000  0.5388230000000  0.4424320000000 1.0
C      1  0.4599840000000  0.5118170000000  0.5214650000000 1.0
C      1  0.5387640000000  0.5118030000000  0.5214380000000 1.0
C      1  0.4755640000000  0.5938360000000  0.5094850000000 1.0
C      1  0.5232040000000  0.5938280000000  0.5094690000000 1.0
C      1  0.4240950000000  0.5306550000000  0.5085550000000 1.0
C      1  0.5746510000000  0.5306280000000  0.5085030000000 1.0
C      1  0.4330990000000  0.5103370000000  0.4824800000000 1.0
C      1  0.5656210000000  0.5103130000000  0.4824340000000 1.0
C      1  0.4755560000000  0.5032170000000  0.5456690000000 1.0
C      1  0.5232050000000  0.5032090000000  0.5456520000000 1.0
C      1  0.4752730000000  0.4846410000000  0.4585030000000 1.0
C      1  0.5234210000000  0.4846320000000  0.4584860000000 1.0
C      1  0.4854090000000  0.4507290000000  0.5632100000000 1.0
C      1  0.5133460000000  0.4507240000000  0.5632010000000 1.0
C      1  0.5790400000000  0.4917410000000  0.4638060000000 1.0
C      1  0.4196600000000  0.4917690000000  0.4638620000000 1.0
C      1  0.4135350000000  0.4181190000000  0.5312730000000 1.0
C      1  0.5851860000000  0.4180890000000  0.5312140000000 1.0
C      1  0.5144920000000  0.6012660000000  0.4589730000000 1.0
C      1  0.4842450000000  0.6012720000000  0.4589830000000 1.0
C      1  0.4561580000000  0.5263170000000  0.4701410000000 1.0
C      1  0.5425590000000  0.5263020000000  0.4701110000000 1.0
C      1  0.4740280000000  0.4026900000000  0.4919000000000 1.0
C      1  0.5246600000000  0.4026810000000  0.4918820000000 1.0
C      1  0.4190430000000  0.4644320000000  0.4767150000000 1.0
C      1  0.5796570000000  0.4644030000000  0.4766590000000 1.0
C      1  0.4579220000000  0.5554070000000  0.5409700000000 1.0
C      1  0.5408550000000  0.5553930000000  0.5409410000000 1.0
C      1  0.4740360000000  0.4470960000000  0.4248750000000 1.0
C      1  0.5246220000000  0.4470870000000  0.4248580000000 1.0
C      1  0.4438210000000  0.4977550000000  0.5725400000000 1.0
C      1  0.5549570000000  0.4977360000000  0.5725020000000 1.0
C      1  0.4279480000000  0.4754000000000  0.5232020000000 1.0
C      1  0.5707880000000  0.4753750000000  0.5231530000000 1.0
C      1  0.4340270000000  0.5613790000000  0.4510230000000 1.0
C      1  0.5646900000000  0.5613550000000  0.4509770000000 1.0
C      1  0.4722810000000  0.4647700000000  0.4791180000000 1.0
C      1  0.5264210000000  0.4647600000000  0.4790990000000 1.0
C      1  0.4410380000000  0.4269760000000  0.5274190000000 1.0
C      1  0.5576840000000  0.4269550000000  0.5273780000000 1.0
C      1  0.4458230000000  0.4507190000000  0.4793630000000 1.0
C      1  0.5528740000000  0.4507000000000  0.4793260000000 1.0
C      1  0.4650590000000  0.4267760000000  0.4447850000000 1.0
C      1  0.5336050000000  0.4267640000000  0.4447610000000 1.0
C      1  0.5542540000000  0.4939760000000  0.5063980000000 1.0
C      1  0.4444770000000  0.4939960000000  0.5064360000000 1.0
C      1  0.4694170000000  0.4756030000000  0.4317220000000 1.0
C      1  0.5292560000000  0.4755920000000  0.4317020000000 1.0
C      1  0.4231870000000  0.4951700000000  0.5466990000000 1.0
C      1  0.5755730000000  0.4951430000000  0.5466460000000 1.0
C      1  0.5374800000000  0.4070380000000  0.5198510000000 1.0
C      1  0.4612290000000  0.4070510000000  0.5198780000000 1.0
C      1  0.4074940000000  0.4655280000000  0.5040400000000 1.0
C      1  0.5912250000000  0.4654950000000  0.5039760000000 1.0
C      1  0.5257680000000  0.5353450000000  0.5614850000000 1.0
C      1  0.4730160000000  0.5353550000000  0.5615040000000 1.0
C      1  0.4741300000000  0.3893990000000  0.5393550000000 1.0
C      1  0.5245860000000  0.3893900000000  0.5393380000000 1.0
C      1  0.5235920000000  0.5528010000000  0.4302470000000 1.0
C      1  0.4751070000000  0.5528100000000  0.4302640000000 1.0
C      1  0.4770490000000  0.4237520000000  0.4715400000000 1.0
C      1  0.5216330000000  0.4237440000000  0.4715250000000 1.0
C      1  0.4463110000000  0.5144120000000  0.4246180000000 1.0
C      1  0.5523710000000  0.5143930000000  0.4245820000000 1.0
C      1  0.4616360000000  0.5841320000000  0.5351420000000 1.0
C      1  0.5371470000000  0.5841190000000  0.5351160000000 1.0
C      1  0.5594520000000  0.5799540000000  0.4737270000000 1.0
C      1  0.4392870000000  0.5799750000000  0.4737690000000 1.0
C      1  0.5274180000000  0.4983760000000  0.4125490000000 1.0
C      1  0.4712490000000  0.4983860000000  0.4125680000000 1.0
C      1  0.5869970000000  0.5191480000000  0.5331200000000 1.0
C      1  0.4117620000000  0.5191800000000  0.5331800000000 1.0
C      1  0.4714420000000  0.4840460000000  0.5846080000000 1.0
C      1  0.5273390000000  0.4840360000000  0.5845880000000 1.0
C      1  0.4699950000000  0.4675890000000  0.5460400000000 1.0
C      1  0.5287540000000  0.4675780000000  0.5460190000000 1.0
C      1  0.5514990000000  0.4558950000000  0.5313180000000 1.0
C      1  0.4472350000000  0.4559140000000  0.5313540000000 1.0
C      1  0.4993230000000  0.4416240000000  0.4116270000000 1.0
C      1  0.4993860000000  0.5560080000000  0.5345000000000 1.0
C      1  0.4993440000000  0.3868090000000  0.4985000000000 1.0
C      1  0.4993530000000  0.3784650000000  0.5286900000000 1.0
C      1  0.4993500000000  0.5004030000000  0.4596420000000 1.0
C      1  0.4993640000000  0.4946210000000  0.5012160000000 1.0
C      1  0.4994000000000  0.5442760000000  0.5790100000000 1.0
C      1  0.4994030000000  0.5240560000000  0.6004210000000 1.0
C      1  0.4993790000000  0.5245080000000  0.5307230000000 1.0
C      1  0.4993960000000  0.4967300000000  0.5918970000000 1.0
C      1  0.4993980000000  0.5680190000000  0.5609030000000 1.0
C      1  0.4993330000000  0.5104790000000  0.4052680000000 1.0
C      1  0.4993530000000  0.4541880000000  0.4899170000000 1.0
C      1  0.4993550000000  0.5584240000000  0.4433770000000 1.0
C      1  0.4993690000000  0.5249040000000  0.4996340000000 1.0
C      1  0.4993820000000  0.5738020000000  0.5123050000000 1.0
C      1  0.4993660000000  0.5641330000000  0.4714690000000 1.0
C      1  0.4993900000000  0.6157410000000  0.5133180000000 1.0
END
