TITL C-862134-6730-160 -383001.727329187 125000 -1018.67829884045 0 0 190 (C1) n - 1
REM
REM in /home/nfs/bkarasulu/CARBON/AIRSS/Generating-Clusters/TERSOFF/Higher-Symm/FIRE-HFTN
REM
REM
REM
REM
REM
REM ./C.cell (b20cbc046b6831c77cfcea5457e17084)
REM AIRSS Version 0.9.1 bugfix July 2018 build 013d7b7c2542+ Fri, 06 Jul 2018 19:26:36 +0100
REM compiler GCC version 9.2.1 20190827 (Red Hat 9.2.1-1)
REM options -cpp -mtune=generic -march=x86-64 -g -O0 -fpre-include=/usr/include/finclude/math-vector-fortran.h
REM seed 1138883181 177235486 7544188 1933092741 1132600190 -937722657 -1857868900 918203486 -978312558 -961149205 1384696555 1479452468 904184920 -1001269050 2018680459 -34630784 -1122208094 1850676040 -121932858 1960311172 54783848 647473600 630271878 -893457168 1340436696 -1412051015 -1445360264 -1334410013 -2132488943 360852658 1265517002 -1473148260 1368162675
REM
CELL 1.54180   50.00000   50.00000   50.00000   90.00000   90.00000   90.00000
LATT -1
SFAC C  
C      1  0.4376420000000  0.4558960000000  0.5818460000000 1.0
C      1  0.3974140000000  0.4578740000000  0.5294430000000 1.0
C      1  0.3962590000000  0.4593120000000  0.4632060000000 1.0
C      1  0.4360310000000  0.4591990000000  0.4100690000000 1.0
C      1  0.5009390000000  0.4560320000000  0.3924020000000 1.0
C      1  0.5626820000000  0.4552370000000  0.4183010000000 1.0
C      1  0.6028250000000  0.4574620000000  0.4705610000000 1.0
C      1  0.6039760000000  0.4587730000000  0.5370680000000 1.0
C      1  0.5641100000000  0.4588100000000  0.5898500000000 1.0
C      1  0.4988260000000  0.4558610000000  0.6075340000000 1.0
C      1  0.5659760000000  0.5026410000000  0.5316640000000 1.0
C      1  0.5348200000000  0.5037340000000  0.5630550000000 1.0
C      1  0.4914550000000  0.5020720000000  0.5700900000000 1.0
C      1  0.4523140000000  0.5035710000000  0.5495050000000 1.0
C      1  0.4295190000000  0.5027130000000  0.5121130000000 1.0
C      1  0.4345230000000  0.5036010000000  0.4683590000000 1.0
C      1  0.4651270000000  0.5032250000000  0.4367900000000 1.0
C      1  0.5087570000000  0.5027750000000  0.4304750000000 1.0
C      1  0.5480420000000  0.5021900000000  0.4504240000000 1.0
C      1  0.5707460000000  0.5027080000000  0.4881510000000 1.0
C      1  0.4779860000000  0.5924620000000  0.5692550000000 1.0
C      1  0.4420530000000  0.5890470000000  0.5431940000000 1.0
C      1  0.4266390000000  0.5928340000000  0.5009720000000 1.0
C      1  0.4406700000000  0.5899990000000  0.4586450000000 1.0
C      1  0.4765550000000  0.5923230000000  0.4315840000000 1.0
C      1  0.5209780000000  0.5888520000000  0.4314340000000 1.0
C      1  0.5580830000000  0.5916160000000  0.4566780000000 1.0
C      1  0.5717900000000  0.5891580000000  0.4990080000000 1.0
C      1  0.5590480000000  0.5929690000000  0.5419650000000 1.0
C      1  0.5227410000000  0.5886690000000  0.5671390000000 1.0
C      1  0.5498090000000  0.4999100000000  0.3994390000000 1.0
C      1  0.6001960000000  0.5002670000000  0.4458250000000 1.0
C      1  0.6150060000000  0.5026450000000  0.5161100000000 1.0
C      1  0.5833440000000  0.5037810000000  0.5808420000000 1.0
C      1  0.5194920000000  0.5016500000000  0.6126610000000 1.0
C      1  0.4501190000000  0.5003320000000  0.6007640000000 1.0
C      1  0.4001260000000  0.5007290000000  0.5543820000000 1.0
C      1  0.3854220000000  0.5031450000000  0.4839720000000 1.0
C      1  0.4166570000000  0.5041640000000  0.4193560000000 1.0
C      1  0.4809880000000  0.5018900000000  0.3874050000000 1.0
C      1  0.4770130000000  0.4372030000000  0.5301540000000 1.0
C      1  0.4528130000000  0.4337860000000  0.5104070000000 1.0
C      1  0.4514560000000  0.4330510000000  0.4802120000000 1.0
C      1  0.4696110000000  0.4334770000000  0.4561010000000 1.0
C      1  0.4989450000000  0.4334270000000  0.4503860000000 1.0
C      1  0.5231840000000  0.4357190000000  0.4695890000000 1.0
C      1  0.5475160000000  0.4338880000000  0.4896360000000 1.0
C      1  0.5485490000000  0.4324840000000  0.5197620000000 1.0
C      1  0.5303740000000  0.4339440000000  0.5438160000000 1.0
C      1  0.5010730000000  0.4329990000000  0.5492320000000 1.0
C      1  0.5872570000000  0.4243430000000  0.4993080000000 1.0
C      1  0.5753330000000  0.4262640000000  0.5545050000000 1.0
C      1  0.5302350000000  0.4289460000000  0.5875460000000 1.0
C      1  0.4728030000000  0.4233640000000  0.5833470000000 1.0
C      1  0.4371910000000  0.4220630000000  0.5475880000000 1.0
C      1  0.4130750000000  0.4243440000000  0.5006220000000 1.0
C      1  0.4244520000000  0.4270990000000  0.4459420000000 1.0
C      1  0.4699250000000  0.4289580000000  0.4121400000000 1.0
C      1  0.5268300000000  0.4242590000000  0.4160830000000 1.0
C      1  0.5636480000000  0.4209390000000  0.4530830000000 1.0
C      1  0.3812960000000  0.4744310000000  0.4839020000000 1.0
C      1  0.4122360000000  0.4755410000000  0.4172600000000 1.0
C      1  0.4778370000000  0.4732160000000  0.3840010000000 1.0
C      1  0.5494820000000  0.4710250000000  0.3964380000000 1.0
C      1  0.6033960000000  0.4713610000000  0.4446420000000 1.0
C      1  0.6189130000000  0.4738560000000  0.5162050000000 1.0
C      1  0.5879040000000  0.4751940000000  0.5829420000000 1.0
C      1  0.5222780000000  0.4728480000000  0.6158000000000 1.0
C      1  0.4504670000000  0.4715020000000  0.6038590000000 1.0
C      1  0.3970090000000  0.4717700000000  0.5553950000000 1.0
C      1  0.4626480000000  0.5126280000000  0.5779120000000 1.0
C      1  0.4229640000000  0.5128850000000  0.5413420000000 1.0
C      1  0.4118000000000  0.5142200000000  0.4878320000000 1.0
C      1  0.4356100000000  0.5147830000000  0.4383620000000 1.0
C      1  0.4842930000000  0.5135120000000  0.4136120000000 1.0
C      1  0.5376590000000  0.5123720000000  0.4224510000000 1.0
C      1  0.5772160000000  0.5122350000000  0.4587500000000 1.0
C      1  0.5886400000000  0.5137770000000  0.5123310000000 1.0
C      1  0.5646560000000  0.5143530000000  0.5615510000000 1.0
C      1  0.5159210000000  0.5135130000000  0.5865480000000 1.0
C      1  0.5846060000000  0.5799800000000  0.4715950000000 1.0
C      1  0.5855000000000  0.5816500000000  0.5267870000000 1.0
C      1  0.5528050000000  0.5807610000000  0.5716290000000 1.0
C      1  0.5009400000000  0.5809670000000  0.5889450000000 1.0
C      1  0.4480400000000  0.5797790000000  0.5727380000000 1.0
C      1  0.4147830000000  0.5808950000000  0.5288100000000 1.0
C      1  0.4140220000000  0.5812840000000  0.4732030000000 1.0
C      1  0.4463200000000  0.5815710000000  0.4283870000000 1.0
C      1  0.4986620000000  0.5801390000000  0.4110470000000 1.0
C      1  0.5513440000000  0.5798400000000  0.4272770000000 1.0
C      1  0.4787380000000  0.4027290000000  0.4199480000000 1.0
C      1  0.5287410000000  0.3994880000000  0.4308850000000 1.0
C      1  0.5525940000000  0.3968870000000  0.4653480000000 1.0
C      1  0.5753520000000  0.3979360000000  0.5006260000000 1.0
C      1  0.5654210000000  0.3992320000000  0.5516220000000 1.0
C      1  0.5215690000000  0.4026290000000  0.5797090000000 1.0
C      1  0.4718980000000  0.3982050000000  0.5689750000000 1.0
C      1  0.4480400000000  0.3984400000000  0.5344200000000 1.0
C      1  0.4252620000000  0.3980940000000  0.4991410000000 1.0
C      1  0.4349510000000  0.4002750000000  0.4483910000000 1.0
C      1  0.5311470000000  0.5265760000000  0.4619770000000 1.0
C      1  0.5498610000000  0.5271280000000  0.4871100000000 1.0
C      1  0.5491260000000  0.5264250000000  0.5187650000000 1.0
C      1  0.5288470000000  0.5277700000000  0.5422760000000 1.0
C      1  0.4981560000000  0.5260690000000  0.5506310000000 1.0
C      1  0.4697520000000  0.5281130000000  0.5379710000000 1.0
C      1  0.4502960000000  0.5268880000000  0.5127060000000 1.0
C      1  0.4509580000000  0.5281150000000  0.4816530000000 1.0
C      1  0.4710910000000  0.5271290000000  0.4571360000000 1.0
C      1  0.5015850000000  0.5275520000000  0.4499120000000 1.0
C      1  0.5571860000000  0.4747240000000  0.4912090000000 1.0
C      1  0.5543230000000  0.4739170000000  0.5259250000000 1.0
C      1  0.5295780000000  0.4752030000000  0.5515780000000 1.0
C      1  0.4940120000000  0.4736650000000  0.5569110000000 1.0
C      1  0.4628090000000  0.4757210000000  0.5388590000000 1.0
C      1  0.4430830000000  0.4746210000000  0.5091260000000 1.0
C      1  0.4461130000000  0.4748570000000  0.4741450000000 1.0
C      1  0.4703080000000  0.4747650000000  0.4484500000000 1.0
C      1  0.5059660000000  0.4742360000000  0.4434260000000 1.0
C      1  0.5373880000000  0.4743190000000  0.4611410000000 1.0
C      1  0.4799580000000  0.5674070000000  0.5484270000000 1.0
C      1  0.4565630000000  0.5659920000000  0.5261540000000 1.0
C      1  0.4463590000000  0.5672520000000  0.4960260000000 1.0
C      1  0.4607400000000  0.5663080000000  0.4674410000000 1.0
C      1  0.4869740000000  0.5668410000000  0.4491300000000 1.0
C      1  0.5188140000000  0.5655940000000  0.4536360000000 1.0
C      1  0.5449820000000  0.5660820000000  0.4723570000000 1.0
C      1  0.5507820000000  0.5654820000000  0.5039130000000 1.0
C      1  0.5405960000000  0.5671410000000  0.5338360000000 1.0
C      1  0.5116170000000  0.5655280000000  0.5476820000000 1.0
C      1  0.5432960000000  0.4495080000000  0.5685470000000 1.0
C      1  0.4931820000000  0.4461270000000  0.5777750000000 1.0
C      1  0.4534470000000  0.4475220000000  0.5549720000000 1.0
C      1  0.4242130000000  0.4482020000000  0.5173990000000 1.0
C      1  0.4251500000000  0.4485120000000  0.4684650000000 1.0
C      1  0.4568500000000  0.4493900000000  0.4312020000000 1.0
C      1  0.5065180000000  0.4469210000000  0.4222230000000 1.0
C      1  0.5472960000000  0.4463140000000  0.4453750000000 1.0
C      1  0.5759120000000  0.4482060000000  0.4825570000000 1.0
C      1  0.5750630000000  0.4476830000000  0.5320280000000 1.0
C      1  0.5067870000000  0.5472030000000  0.5784530000000 1.0
C      1  0.4605090000000  0.5463250000000  0.5681120000000 1.0
C      1  0.4265420000000  0.5469220000000  0.5309230000000 1.0
C      1  0.4207450000000  0.5476920000000  0.4829740000000 1.0
C      1  0.4472860000000  0.5479240000000  0.4399270000000 1.0
C      1  0.4917930000000  0.5468250000000  0.4208450000000 1.0
C      1  0.5403880000000  0.5460390000000  0.4328170000000 1.0
C      1  0.5734560000000  0.5462860000000  0.4677300000000 1.0
C      1  0.5782350000000  0.5474440000000  0.5182040000000 1.0
C      1  0.5537430000000  0.5475440000000  0.5594550000000 1.0
C      1  0.4723330000000  0.4599680000000  0.6192910000000 1.0
C      1  0.4088360000000  0.4580980000000  0.5781170000000 1.0
C      1  0.3763700000000  0.4619740000000  0.5097870000000 1.0
C      1  0.3917390000000  0.4641330000000  0.4347380000000 1.0
C      1  0.4504500000000  0.4628370000000  0.3848240000000 1.0
C      1  0.5276540000000  0.4595290000000  0.3808770000000 1.0
C      1  0.5915290000000  0.4577640000000  0.4218550000000 1.0
C      1  0.6238300000000  0.4613540000000  0.4903160000000 1.0
C      1  0.6084930000000  0.4638690000000  0.5655060000000 1.0
C      1  0.5495450000000  0.4621670000000  0.6150430000000 1.0
C      1  0.4835470000000  0.6169870000000  0.4527130000000 1.0
C      1  0.5152220000000  0.6124570000000  0.4500780000000 1.0
C      1  0.5403360000000  0.6165270000000  0.4693490000000 1.0
C      1  0.5520290000000  0.6124550000000  0.4987770000000 1.0
C      1  0.5407830000000  0.6173920000000  0.5283950000000 1.0
C      1  0.5165330000000  0.6122650000000  0.5487500000000 1.0
C      1  0.4848930000000  0.6172880000000  0.5479880000000 1.0
C      1  0.4578640000000  0.6125410000000  0.5315990000000 1.0
C      1  0.4491030000000  0.6172820000000  0.5012400000000 1.0
C      1  0.4569500000000  0.6131930000000  0.4703930000000 1.0
C      1  0.5168970000000  0.3942090000000  0.5520570000000 1.0
C      1  0.4881860000000  0.3921810000000  0.5450480000000 1.0
C      1  0.4746830000000  0.3974660000000  0.5167610000000 1.0
C      1  0.4537130000000  0.3931560000000  0.4931390000000 1.0
C      1  0.4588060000000  0.3931100000000  0.4638910000000 1.0
C      1  0.4835500000000  0.3944520000000  0.4475910000000 1.0
C      1  0.5122390000000  0.3929370000000  0.4544080000000 1.0
C      1  0.5258260000000  0.3956550000000  0.4830750000000 1.0
C      1  0.5470050000000  0.3925910000000  0.5067510000000 1.0
C      1  0.5417090000000  0.3918310000000  0.5359650000000 1.0
C      1  0.5675380000000  0.5888650000000  0.5952740000000 1.0
C      1  0.5028950000000  0.5890340000000  0.6167420000000 1.0
C      1  0.4306440000000  0.5867140000000  0.5949080000000 1.0
C      1  0.3887410000000  0.5887130000000  0.5389660000000 1.0
C      1  0.3878790000000  0.5893790000000  0.4635130000000 1.0
C      1  0.4293640000000  0.5897430000000  0.4063110000000 1.0
C      1  0.4995830000000  0.5878480000000  0.3830750000000 1.0
C      1  0.5668840000000  0.5872350000000  0.4039040000000 1.0
C      1  0.6114240000000  0.5879920000000  0.4638800000000 1.0
C      1  0.6122370000000  0.5903180000000  0.5340000000000 1.0
END
