TITL C-862129-6180-291 -0.0813293038916579 125000 -1112.03417937707 0 0 192 (D2) n - 1
REM
REM in /home/nfs/bkarasulu/CARBON/AIRSS/Generating-Clusters/TERSOFF/Higher-Symm/FIRE-HFTN
REM
REM
REM
REM
REM
REM ./C.cell (b20cbc046b6831c77cfcea5457e17084)
REM AIRSS Version 0.9.1 bugfix July 2018 build 013d7b7c2542+ Fri, 06 Jul 2018 19:26:36 +0100
REM compiler GCC version 9.2.1 20190827 (Red Hat 9.2.1-1)
REM options -cpp -mtune=generic -march=x86-64 -g -O0 -fpre-include=/usr/include/finclude/math-vector-fortran.h
REM seed -1661458365 652072251 -1173665227 1639008923 -731709202 -124456195 478269467 98009494 2083777684 1593188740 1985613047 -795797839 -2087337198 1992824687 -1429626270 1198541556 -1207865750 457837069 1510249857 423146776 270943069 764034257 1041737195 903033758 1193088440 1483979420 -874846876 203200807 -1285285770 1784720984 -339455423 -906465695 -1140370720
REM
CELL 1.54180   50.00000   50.00000   50.00000   90.00000   90.00000   90.00000
LATT -1
SFAC C  
C      1  0.5191480000000  0.4316510000000  0.4846260000000 1.0
C      1  0.4808520000000  0.5683490000000  0.4846260000000 1.0
C      1  0.5191480000000  0.5683490000000  0.5153740000000 1.0
C      1  0.4808520000000  0.4316510000000  0.5153740000000 1.0
C      1  0.4713910000000  0.5062270000000  0.5144660000000 1.0
C      1  0.5286090000000  0.4937730000000  0.5144660000000 1.0
C      1  0.4713910000000  0.4937730000000  0.4855340000000 1.0
C      1  0.5286090000000  0.5062270000000  0.4855340000000 1.0
C      1  0.5316680000000  0.6004480000000  0.5895470000000 1.0
C      1  0.4683320000000  0.3995520000000  0.5895470000000 1.0
C      1  0.5316680000000  0.3995520000000  0.4104530000000 1.0
C      1  0.4683320000000  0.6004480000000  0.4104530000000 1.0
C      1  0.4678060000000  0.4473080000000  0.5653650000000 1.0
C      1  0.5321940000000  0.5526920000000  0.5653650000000 1.0
C      1  0.4678060000000  0.5526920000000  0.4346350000000 1.0
C      1  0.5321940000000  0.4473080000000  0.4346350000000 1.0
C      1  0.5064900000000  0.5754630000000  0.4759870000000 1.0
C      1  0.4935100000000  0.4245370000000  0.4759870000000 1.0
C      1  0.5064900000000  0.4245370000000  0.5240130000000 1.0
C      1  0.4935100000000  0.5754630000000  0.5240130000000 1.0
C      1  0.4450230000000  0.5717130000000  0.4381440000000 1.0
C      1  0.5549770000000  0.4282870000000  0.4381440000000 1.0
C      1  0.4450230000000  0.4282870000000  0.5618560000000 1.0
C      1  0.5549770000000  0.5717130000000  0.5618560000000 1.0
C      1  0.5540930000000  0.4068040000000  0.4615320000000 1.0
C      1  0.4459070000000  0.5931960000000  0.4615320000000 1.0
C      1  0.5540930000000  0.5931960000000  0.5384680000000 1.0
C      1  0.4459070000000  0.4068040000000  0.5384680000000 1.0
C      1  0.4565110000000  0.5518280000000  0.5852500000000 1.0
C      1  0.5434890000000  0.4481720000000  0.5852500000000 1.0
C      1  0.4565110000000  0.4481720000000  0.4147500000000 1.0
C      1  0.5434890000000  0.5518280000000  0.4147500000000 1.0
C      1  0.5233050000000  0.5754950000000  0.6033000000000 1.0
C      1  0.4766950000000  0.4245050000000  0.6033000000000 1.0
C      1  0.5233050000000  0.4245050000000  0.3967000000000 1.0
C      1  0.4766950000000  0.5754950000000  0.3967000000000 1.0
C      1  0.4955480000000  0.3922400000000  0.4476870000000 1.0
C      1  0.5044520000000  0.6077600000000  0.4476870000000 1.0
C      1  0.4955480000000  0.6077600000000  0.5523130000000 1.0
C      1  0.5044520000000  0.3922400000000  0.5523130000000 1.0
C      1  0.5505100000000  0.4704590000000  0.4872600000000 1.0
C      1  0.4494900000000  0.5295410000000  0.4872600000000 1.0
C      1  0.5505100000000  0.5295410000000  0.5127400000000 1.0
C      1  0.4494900000000  0.4704590000000  0.5127400000000 1.0
C      1  0.5802880000000  0.5667530000000  0.5763190000000 1.0
C      1  0.4197120000000  0.4332470000000  0.5763190000000 1.0
C      1  0.5802880000000  0.4332470000000  0.4236810000000 1.0
C      1  0.4197120000000  0.5667530000000  0.4236810000000 1.0
C      1  0.4418310000000  0.5190090000000  0.4608320000000 1.0
C      1  0.5581690000000  0.4809910000000  0.4608320000000 1.0
C      1  0.4418310000000  0.4809910000000  0.5391680000000 1.0
C      1  0.5581690000000  0.5190090000000  0.5391680000000 1.0
C      1  0.4446900000000  0.4132920000000  0.4427130000000 1.0
C      1  0.5553100000000  0.5867080000000  0.4427130000000 1.0
C      1  0.4446900000000  0.5867080000000  0.5572870000000 1.0
C      1  0.5553100000000  0.4132920000000  0.5572870000000 1.0
C      1  0.4155310000000  0.5446550000000  0.4047360000000 1.0
C      1  0.5844690000000  0.4553450000000  0.4047360000000 1.0
C      1  0.4155310000000  0.4553450000000  0.5952640000000 1.0
C      1  0.5844690000000  0.5446550000000  0.5952640000000 1.0
C      1  0.5504380000000  0.5117390000000  0.6069000000000 1.0
C      1  0.4495620000000  0.4882610000000  0.6069000000000 1.0
C      1  0.5504380000000  0.4882610000000  0.3931000000000 1.0
C      1  0.4495620000000  0.5117390000000  0.3931000000000 1.0
C      1  0.3950800000000  0.4815620000000  0.4597490000000 1.0
C      1  0.6049200000000  0.5184380000000  0.4597490000000 1.0
C      1  0.3950800000000  0.5184380000000  0.5402510000000 1.0
C      1  0.6049200000000  0.4815620000000  0.5402510000000 1.0
C      1  0.3974850000000  0.4781520000000  0.5874740000000 1.0
C      1  0.6025150000000  0.5218480000000  0.5874740000000 1.0
C      1  0.3974850000000  0.5218480000000  0.4125260000000 1.0
C      1  0.6025150000000  0.4781520000000  0.4125260000000 1.0
C      1  0.5370770000000  0.5261870000000  0.5595840000000 1.0
C      1  0.4629230000000  0.4738130000000  0.5595840000000 1.0
C      1  0.5370770000000  0.4738130000000  0.4404160000000 1.0
C      1  0.4629230000000  0.5261870000000  0.4404160000000 1.0
C      1  0.5841530000000  0.5295850000000  0.5463220000000 1.0
C      1  0.4158470000000  0.4704150000000  0.5463220000000 1.0
C      1  0.5841530000000  0.4704150000000  0.4536780000000 1.0
C      1  0.4158470000000  0.5295850000000  0.4536780000000 1.0
C      1  0.5132490000000  0.3957780000000  0.5236360000000 1.0
C      1  0.4867510000000  0.6042220000000  0.5236360000000 1.0
C      1  0.5132490000000  0.6042220000000  0.4763640000000 1.0
C      1  0.4867510000000  0.3957780000000  0.4763640000000 1.0
C      1  0.4819010000000  0.5619200000000  0.5718980000000 1.0
C      1  0.5180990000000  0.4380800000000  0.5718980000000 1.0
C      1  0.4819010000000  0.4380800000000  0.4281020000000 1.0
C      1  0.5180990000000  0.5619200000000  0.4281020000000 1.0
C      1  0.4592730000000  0.3952890000000  0.4883690000000 1.0
C      1  0.5407270000000  0.6047110000000  0.4883690000000 1.0
C      1  0.4592730000000  0.6047110000000  0.5116310000000 1.0
C      1  0.5407270000000  0.3952890000000  0.5116310000000 1.0
C      1  0.6025240000000  0.5113410000000  0.5593750000000 1.0
C      1  0.3974760000000  0.4886590000000  0.5593750000000 1.0
C      1  0.6025240000000  0.4886590000000  0.4406250000000 1.0
C      1  0.3974760000000  0.5113410000000  0.4406250000000 1.0
C      1  0.3868270000000  0.4946420000000  0.5140600000000 1.0
C      1  0.6131730000000  0.5053580000000  0.5140600000000 1.0
C      1  0.3868270000000  0.5053580000000  0.4859400000000 1.0
C      1  0.6131730000000  0.4946420000000  0.4859400000000 1.0
C      1  0.4382630000000  0.5984740000000  0.5312330000000 1.0
C      1  0.5617370000000  0.4015260000000  0.5312330000000 1.0
C      1  0.4382630000000  0.4015260000000  0.4687670000000 1.0
C      1  0.5617370000000  0.5984740000000  0.4687670000000 1.0
C      1  0.5543280000000  0.4533630000000  0.5264930000000 1.0
C      1  0.4456720000000  0.5466370000000  0.5264930000000 1.0
C      1  0.5543280000000  0.5466370000000  0.4735070000000 1.0
C      1  0.4456720000000  0.4533630000000  0.4735070000000 1.0
C      1  0.5428490000000  0.4392380000000  0.3792870000000 1.0
C      1  0.4571510000000  0.5607620000000  0.3792870000000 1.0
C      1  0.5428490000000  0.5607620000000  0.6207130000000 1.0
C      1  0.4571510000000  0.4392380000000  0.6207130000000 1.0
C      1  0.4391500000000  0.4614960000000  0.6113190000000 1.0
C      1  0.5608500000000  0.5385040000000  0.6113190000000 1.0
C      1  0.4391500000000  0.5385040000000  0.3886810000000 1.0
C      1  0.5608500000000  0.4614960000000  0.3886810000000 1.0
C      1  0.4726060000000  0.6048610000000  0.4397960000000 1.0
C      1  0.5273950000000  0.3951390000000  0.4397960000000 1.0
C      1  0.4726050000000  0.3951390000000  0.5602040000000 1.0
C      1  0.5273950000000  0.6048610000000  0.5602040000000 1.0
C      1  0.4562640000000  0.5377590000000  0.6105660000000 1.0
C      1  0.5437360000000  0.4622410000000  0.6105660000000 1.0
C      1  0.4562640000000  0.4622410000000  0.3894340000000 1.0
C      1  0.5437360000000  0.5377590000000  0.3894340000000 1.0
C      1  0.4866320000000  0.5318950000000  0.5198360000000 1.0
C      1  0.5133680000000  0.4681050000000  0.5198360000000 1.0
C      1  0.4866320000000  0.4681050000000  0.4801640000000 1.0
C      1  0.5133680000000  0.5318950000000  0.4801640000000 1.0
C      1  0.4750040000000  0.5423260000000  0.4933160000000 1.0
C      1  0.5249960000000  0.4576740000000  0.4933160000000 1.0
C      1  0.4750040000000  0.4576740000000  0.5066840000000 1.0
C      1  0.5249960000000  0.5423260000000  0.5066840000000 1.0
C      1  0.5692720000000  0.5582050000000  0.4311660000000 1.0
C      1  0.4307280000000  0.4417950000000  0.4311660000000 1.0
C      1  0.5692720000000  0.4417950000000  0.5688340000000 1.0
C      1  0.4307280000000  0.5582050000000  0.5688340000000 1.0
C      1  0.6028820000000  0.5439880000000  0.4831720000000 1.0
C      1  0.3971180000000  0.4560120000000  0.4831720000000 1.0
C      1  0.6028820000000  0.4560120000000  0.5168280000000 1.0
C      1  0.3971180000000  0.5439880000000  0.5168280000000 1.0
C      1  0.4742250000000  0.4087350000000  0.4323870000000 1.0
C      1  0.5257750000000  0.5912650000000  0.4323870000000 1.0
C      1  0.4742250000000  0.5912650000000  0.5676130000000 1.0
C      1  0.5257750000000  0.4087350000000  0.5676130000000 1.0
C      1  0.4762990000000  0.4446470000000  0.4608310000000 1.0
C      1  0.5237010000000  0.5553530000000  0.4608310000000 1.0
C      1  0.4762990000000  0.5553530000000  0.5391690000000 1.0
C      1  0.5237010000000  0.4446470000000  0.5391690000000 1.0
C      1  0.3892820000000  0.5359190000000  0.4890740000000 1.0
C      1  0.6107180000000  0.4640810000000  0.4890740000000 1.0
C      1  0.3892820000000  0.4640810000000  0.5109260000000 1.0
C      1  0.6107180000000  0.5359190000000  0.5109260000000 1.0
C      1  0.5950910000000  0.4488010000000  0.4691580000000 1.0
C      1  0.4049090000000  0.5511990000000  0.4691580000000 1.0
C      1  0.5950910000000  0.5511990000000  0.5308420000000 1.0
C      1  0.4049090000000  0.4488010000000  0.5308420000000 1.0
C      1  0.5379270000000  0.5028030000000  0.5817200000000 1.0
C      1  0.4620730000000  0.4971970000000  0.5817200000000 1.0
C      1  0.5379270000000  0.4971970000000  0.4182800000000 1.0
C      1  0.4620730000000  0.5028030000000  0.4182800000000 1.0
C      1  0.5384610000000  0.4112890000000  0.4866530000000 1.0
C      1  0.4615390000000  0.5887110000000  0.4866530000000 1.0
C      1  0.5384610000000  0.5887110000000  0.5133470000000 1.0
C      1  0.4615390000000  0.4112890000000  0.5133470000000 1.0
C      1  0.4439790000000  0.5109690000000  0.5557340000000 1.0
C      1  0.5560210000000  0.4890310000000  0.5557340000000 1.0
C      1  0.4439790000000  0.4890310000000  0.4442660000000 1.0
C      1  0.5560210000000  0.5109690000000  0.4442660000000 1.0
C      1  0.5778270000000  0.5298810000000  0.4430660000000 1.0
C      1  0.4221730000000  0.4701190000000  0.4430660000000 1.0
C      1  0.5778270000000  0.4701190000000  0.5569340000000 1.0
C      1  0.4221730000000  0.5298810000000  0.5569340000000 1.0
C      1  0.5769470000000  0.5728580000000  0.5188410000000 1.0
C      1  0.4230530000000  0.4271420000000  0.5188410000000 1.0
C      1  0.5769470000000  0.4271420000000  0.4811590000000 1.0
C      1  0.4230530000000  0.5728580000000  0.4811590000000 1.0
C      1  0.4228870000000  0.5633270000000  0.5142020000000 1.0
C      1  0.5771130000000  0.4366730000000  0.5142020000000 1.0
C      1  0.4228870000000  0.4366730000000  0.4857980000000 1.0
C      1  0.5771130000000  0.5633270000000  0.4857980000000 1.0
C      1  0.4882350000000  0.4921360000000  0.4144460000000 1.0
C      1  0.5117650000000  0.5078640000000  0.4144460000000 1.0
C      1  0.4882350000000  0.5078640000000  0.5855540000000 1.0
C      1  0.5117650000000  0.4921360000000  0.5855540000000 1.0
C      1  0.4419720000000  0.5173430000000  0.5143670000000 1.0
C      1  0.5580280000000  0.4826570000000  0.5143670000000 1.0
C      1  0.4419720000000  0.4826570000000  0.4856330000000 1.0
C      1  0.5580280000000  0.5173430000000  0.4856330000000 1.0
C      1  0.5098260000000  0.5586270000000  0.5828300000000 1.0
C      1  0.4901740000000  0.4413730000000  0.5828300000000 1.0
C      1  0.5098260000000  0.4413730000000  0.4171700000000 1.0
C      1  0.4901740000000  0.5586270000000  0.4171700000000 1.0
END
