TITL C-862507-1800-1278 -0.000175270342587934 125000 -607.119970846928 0 0 105 (D5) n - 1
REM
REM in /home/nfs/bkarasulu/CARBON/AIRSS/Generating-Clusters/TERSOFF/Higher-Symm/FIRE-HFTN
REM
REM
REM
REM
REM
REM ./C.cell (b20cbc046b6831c77cfcea5457e17084)
REM AIRSS Version 0.9.1 bugfix July 2018 build 013d7b7c2542+ Fri, 06 Jul 2018 19:26:36 +0100
REM compiler GCC version 9.2.1 20190827 (Red Hat 9.2.1-1)
REM options -cpp -mtune=generic -march=x86-64 -g -O0 -fpre-include=/usr/include/finclude/math-vector-fortran.h
REM seed -817984641 -2030607719 1117225980 808070171 829236724 1886286899 2050969776 -1012365463 280515768 1033800919 2053035327 1661028497 1559856204 -946339431 -824171649 1525845813 393883177 -532937823 559338285 -623315046 -1315785052 -1815702883 1004699854 -1950464388 -2097819036 -544413318 -739227735 -2082909299 1095298196 -1401275874 -871464704 1747386224 1695788414
REM
CELL 1.54180   50.00000   50.00000   50.00000   90.00000   90.00000   90.00000
LATT -1
SFAC C  
C      1  0.5025720000000  0.4469100000000  0.4844670000000 1.0
C      1  0.4503030000000  0.4811480000000  0.4844670000000 1.0
C      1  0.4667140000000  0.5414390000000  0.4844670000000 1.0
C      1  0.5291250000000  0.5444630000000  0.4844670000000 1.0
C      1  0.5512860000000  0.4860400000000  0.4844670000000 1.0
C      1  0.5025720000000  0.5530900000000  0.5170770000000 1.0
C      1  0.4503030000000  0.5188520000000  0.5170770000000 1.0
C      1  0.4667140000000  0.4585610000000  0.5170770000000 1.0
C      1  0.5291250000000  0.4555370000000  0.5170770000000 1.0
C      1  0.5512860000000  0.5139600000000  0.5170770000000 1.0
C      1  0.4820440000000  0.4060950000000  0.5096210000000 1.0
C      1  0.4051420000000  0.4880590000000  0.5096210000000 1.0
C      1  0.4593310000000  0.5865250000000  0.5096210000000 1.0
C      1  0.5697230000000  0.5654170000000  0.5096210000000 1.0
C      1  0.5837600000000  0.4539050000000  0.5096210000000 1.0
C      1  0.4820440000000  0.5939050000000  0.4919230000000 1.0
C      1  0.4051420000000  0.5119410000000  0.4919230000000 1.0
C      1  0.4593310000000  0.4134750000000  0.4919230000000 1.0
C      1  0.5697230000000  0.4345830000000  0.4919230000000 1.0
C      1  0.5837600000000  0.5460950000000  0.4919230000000 1.0
C      1  0.5205470000000  0.4809790000000  0.4484330000000 1.0
C      1  0.4882590000000  0.4745810000000  0.4484330000000 1.0
C      1  0.4721970000000  0.5033120000000  0.4484330000000 1.0
C      1  0.4945580000000  0.5274660000000  0.4484330000000 1.0
C      1  0.5244400000000  0.5136630000000  0.4484330000000 1.0
C      1  0.5205470000000  0.5190210000000  0.5531120000000 1.0
C      1  0.4882590000000  0.5254190000000  0.5531120000000 1.0
C      1  0.4721970000000  0.4966880000000  0.5531120000000 1.0
C      1  0.4945580000000  0.4725340000000  0.5531120000000 1.0
C      1  0.5244400000000  0.4863370000000  0.5531120000000 1.0
C      1  0.5206660000000  0.4226920000000  0.4334230000000 1.0
C      1  0.4328620000000  0.4564560000000  0.4334230000000 1.0
C      1  0.4378410000000  0.5503960000000  0.4334230000000 1.0
C      1  0.5287220000000  0.5746900000000  0.4334230000000 1.0
C      1  0.5799100000000  0.4957650000000  0.4334230000000 1.0
C      1  0.5206660000000  0.5773080000000  0.5681210000000 1.0
C      1  0.4328620000000  0.5435440000000  0.5681210000000 1.0
C      1  0.4378410000000  0.4496040000000  0.5681210000000 1.0
C      1  0.5287220000000  0.4253100000000  0.5681210000000 1.0
C      1  0.5799100000000  0.5042350000000  0.5681210000000 1.0
C      1  0.4921170000000  0.5785550000000  0.4679950000000 1.0
C      1  0.5722740000000  0.5317720000000  0.4679950000000 1.0
C      1  0.5525510000000  0.4410820000000  0.4679950000000 1.0
C      1  0.4602040000000  0.4318140000000  0.4679950000000 1.0
C      1  0.4228540000000  0.5167770000000  0.4679950000000 1.0
C      1  0.4921170000000  0.4214450000000  0.5335490000000 1.0
C      1  0.5722740000000  0.4682280000000  0.5335490000000 1.0
C      1  0.5525510000000  0.5589180000000  0.5335490000000 1.0
C      1  0.4602040000000  0.5681860000000  0.5335490000000 1.0
C      1  0.4228540000000  0.4832230000000  0.5335490000000 1.0
C      1  0.5313700000000  0.4262510000000  0.5144680000000 1.0
C      1  0.4395540000000  0.4473750000000  0.5144680000000 1.0
C      1  0.4312720000000  0.5412250000000  0.5144680000000 1.0
C      1  0.5179700000000  0.5781030000000  0.5144680000000 1.0
C      1  0.5798340000000  0.5070450000000  0.5144680000000 1.0
C      1  0.5313700000000  0.5737490000000  0.4870770000000 1.0
C      1  0.4395540000000  0.5526250000000  0.4870770000000 1.0
C      1  0.4312720000000  0.4587750000000  0.4870770000000 1.0
C      1  0.5179700000000  0.4218970000000  0.4870770000000 1.0
C      1  0.5798340000000  0.4929550000000  0.4870770000000 1.0
C      1  0.5300960000000  0.5059310000000  0.4161400000000 1.0
C      1  0.5149410000000  0.4732100000000  0.4161400000000 1.0
C      1  0.4791380000000  0.4775120000000  0.4161400000000 1.0
C      1  0.4721660000000  0.5128920000000  0.4161400000000 1.0
C      1  0.5036600000000  0.5304560000000  0.4161400000000 1.0
C      1  0.5300960000000  0.4940690000000  0.5854050000000 1.0
C      1  0.5149410000000  0.5267900000000  0.5854050000000 1.0
C      1  0.4791380000000  0.5224880000000  0.5854050000000 1.0
C      1  0.4721660000000  0.4871080000000  0.5854050000000 1.0
C      1  0.5036600000000  0.4695440000000  0.5854050000000 1.0
C      1  0.4835110000000  0.5506940000000  0.5369470000000 1.0
C      1  0.5431170000000  0.5313480000000  0.5369470000000 1.0
C      1  0.5431380000000  0.4686800000000  0.5369470000000 1.0
C      1  0.4835430000000  0.4492950000000  0.5369470000000 1.0
C      1  0.4466920000000  0.4999830000000  0.5369470000000 1.0
C      1  0.4835110000000  0.4493060000000  0.4645980000000 1.0
C      1  0.5431170000000  0.4686520000000  0.4645980000000 1.0
C      1  0.5431370000000  0.5313200000000  0.4645980000000 1.0
C      1  0.4835430000000  0.5507050000000  0.4645980000000 1.0
C      1  0.4466920000000  0.5000170000000  0.4645980000000 1.0
C      1  0.5859620000000  0.4927210000000  0.5412680000000 1.0
C      1  0.5196410000000  0.4159950000000  0.5412680000000 1.0
C      1  0.4261760000000  0.4553620000000  0.5412680000000 1.0
C      1  0.4347340000000  0.5564170000000  0.5412680000000 1.0
C      1  0.5334870000000  0.5795060000000  0.5412680000000 1.0
C      1  0.5859620000000  0.5072790000000  0.4602760000000 1.0
C      1  0.5196410000000  0.5840050000000  0.4602760000000 1.0
C      1  0.4261760000000  0.5446380000000  0.4602760000000 1.0
C      1  0.4347340000000  0.4435830000000  0.4602760000000 1.0
C      1  0.5334870000000  0.4204940000000  0.4602760000000 1.0
C      1  0.5116040000000  0.4402010000000  0.5878830000000 1.0
C      1  0.4467140000000  0.4704850000000  0.5878830000000 1.0
C      1  0.4554630000000  0.5415580000000  0.5878830000000 1.0
C      1  0.5257610000000  0.5551990000000  0.5878830000000 1.0
C      1  0.5604580000000  0.4925570000000  0.5878830000000 1.0
C      1  0.5116040000000  0.5597990000000  0.4136610000000 1.0
C      1  0.4467140000000  0.5295150000000  0.4136610000000 1.0
C      1  0.4554630000000  0.4584420000000  0.4136610000000 1.0
C      1  0.5257610000000  0.4448010000000  0.4136610000000 1.0
C      1  0.5604580000000  0.5074430000000  0.4136610000000 1.0
C      1  0.4764590000000  0.4828970000000  0.5007720000000 1.0
C      1  0.5089920000000  0.5276740000000  0.5007720000000 1.0
C      1  0.5290980000000  0.5000000000000  0.5007720000000 1.0
C      1  0.5089920000000  0.4723260000000  0.5007720000000 1.0
C      1  0.4764590000000  0.5171030000000  0.5007720000000 1.0
END
