TITL C-862506-1665-312 6.02432908665831 125000 -139.49246709219 0 0 27 (C1) n - 1
REM
REM in /home/nfs/bkarasulu/CARBON/AIRSS/Generating-Clusters/TERSOFF/Higher-Symm/FIRE-HFTN
REM
REM
REM
REM
REM
REM ./C.cell (b20cbc046b6831c77cfcea5457e17084)
REM AIRSS Version 0.9.1 bugfix July 2018 build 013d7b7c2542+ Fri, 06 Jul 2018 19:26:36 +0100
REM compiler GCC version 9.2.1 20190827 (Red Hat 9.2.1-1)
REM options -cpp -mtune=generic -march=x86-64 -g -O0 -fpre-include=/usr/include/finclude/math-vector-fortran.h
REM seed -168329163 1047388416 -1222771382 -1739623712 -292238426 1048233500 -70399845 -1323940970 -161203313 -1511923057 860151796 -1996955277 131756401 749725481 -1344893214 -1811606192 1046617773 613095082 -1422978025 1526737796 1055510766 -121955755 147007917 838468668 -132516500 -1289891772 1567116934 561562423 -41555796 600562795 -405236371 -1051085223 -1022416412
REM
CELL 1.54180   50.00000   50.00000   50.00000   90.00000   90.00000   90.00000
LATT -1
SFAC C  
C      1  0.4538050000000  0.4743840000000  0.4525400000000 1.0
C      1  0.4543080000000  0.5135380000000  0.5636020000000 1.0
C      1  0.4818180000000  0.5409930000000  0.4339860000000 1.0
C      1  0.5220470000000  0.5437620000000  0.5556170000000 1.0
C      1  0.5476180000000  0.5214660000000  0.4632240000000 1.0
C      1  0.5458500000000  0.4815400000000  0.5220370000000 1.0
C      1  0.5196050000000  0.4548560000000  0.4817780000000 1.0
C      1  0.4781110000000  0.4513160000000  0.5300210000000 1.0
C      1  0.4791120000000  0.5239180000000  0.5522110000000 1.0
C      1  0.5027550000000  0.5324210000000  0.4524500000000 1.0
C      1  0.5250140000000  0.5213940000000  0.5370800000000 1.0
C      1  0.5311930000000  0.5003180000000  0.4748770000000 1.0
C      1  0.5171080000000  0.4765900000000  0.5205740000000 1.0
C      1  0.4945380000000  0.4687420000000  0.4761570000000 1.0
C      1  0.4712060000000  0.4791160000000  0.5357040000000 1.0
C      1  0.4661000000000  0.5008450000000  0.4537290000000 1.0
C      1  0.4946900000000  0.5452670000000  0.5646350000000 1.0
C      1  0.5306690000000  0.5405980000000  0.4498580000000 1.0
C      1  0.5505620000000  0.5082420000000  0.5318740000000 1.0
C      1  0.5414510000000  0.4736750000000  0.4810150000000 1.0
C      1  0.5054680000000  0.4498110000000  0.5210040000000 1.0
C      1  0.4707530000000  0.4552510000000  0.4659070000000 1.0
C      1  0.4495960000000  0.4868360000000  0.5537640000000 1.0
C      1  0.4599720000000  0.5221740000000  0.4347480000000 1.0
C      1  0.4957010000000  0.5043720000000  0.4734630000000 1.0
C      1  0.4953010000000  0.5041280000000  0.5272240000000 1.0
C      1  0.4870610000000  0.5154900000000  0.5003320000000 1.0
END
