TITL C-862127-1500-576 -1.12519596073818e-07 125000 -41.3069614062629 0 0 11 (D3h) n - 1
REM
REM in /home/nfs/bkarasulu/CARBON/AIRSS/Generating-Clusters/TERSOFF/Higher-Symm/FIRE-HFTN
REM
REM
REM
REM
REM
REM ./C.cell (b20cbc046b6831c77cfcea5457e17084)
REM AIRSS Version 0.9.1 bugfix July 2018 build 013d7b7c2542+ Fri, 06 Jul 2018 19:26:36 +0100
REM compiler GCC version 9.2.1 20190827 (Red Hat 9.2.1-1)
REM options -cpp -mtune=generic -march=x86-64 -g -O0 -fpre-include=/usr/include/finclude/math-vector-fortran.h
REM seed 1830492909 -1963546764 498887619 179152341 -1363007353 871760712 1341452215 1805095329 -1785024784 -554609579 -1814470992 -1489700420 -184608380 -1433320092 1316776210 -1837120083 -1093743247 431554893 545708037 -1641952019 1988209368 1555542769 1364715759 -802090073 -1208610429 -898868778 735615706 -300537364 526908317 -208463092 -1395492004 1076396480 -185445274
REM
CELL 1.54180   50.00000   50.00000   50.00000   90.00000   90.00000   90.00000
LATT -1
SFAC C  
C      1  0.5231770000000  0.5222430000000  0.5118750000000 1.0
C      1  0.5231770000000  0.4802920000000  0.5118750000000 1.0
C      1  0.5231770000000  0.5012680000000  0.4755440000000 1.0
C      1  0.4812330000000  0.4802920000000  0.5118750000000 1.0
C      1  0.4812330000000  0.5222430000000  0.5118750000000 1.0
C      1  0.4812330000000  0.5012680000000  0.4755440000000 1.0
C      1  0.5022050000000  0.5276200000000  0.4845500000000 1.0
C      1  0.5022050000000  0.4749150000000  0.4845500000000 1.0
C      1  0.5022050000000  0.5012680000000  0.5301940000000 1.0
C      1  0.4586430000000  0.5012680000000  0.4997640000000 1.0
C      1  0.5457670000000  0.5012680000000  0.4997640000000 1.0
END
