TITL C-862134-6730-790 -631006.524010278 125000 -792.191365185803 0 0 141 (C1) n - 1
REM
REM in /home/nfs/bkarasulu/CARBON/AIRSS/Generating-Clusters/TERSOFF/Higher-Symm/FIRE-HFTN
REM
REM
REM
REM
REM
REM ./C.cell (b20cbc046b6831c77cfcea5457e17084)
REM AIRSS Version 0.9.1 bugfix July 2018 build 013d7b7c2542+ Fri, 06 Jul 2018 19:26:36 +0100
REM compiler GCC version 9.2.1 20190827 (Red Hat 9.2.1-1)
REM options -cpp -mtune=generic -march=x86-64 -g -O0 -fpre-include=/usr/include/finclude/math-vector-fortran.h
REM seed -232651000 -572547394 -2087145669 -1720240294 1679555907 1611407077 779785093 1697833263 2136993542 -906804162 -1438977428 1614645600 -414739749 837183613 1943730636 828933963 768458286 1674024984 1634439658 -1191724098 -355702673 -1479399681 1076819373 1153143867 932797427 1053285661 580515447 -679620118 -1228037620 -1676299075 -744631974 -1076290535 679688415
REM
CELL 1.54180   50.00000   50.00000   50.00000   90.00000   90.00000   90.00000
LATT -1
SFAC C  
C      1  0.5605540000000  0.4183700000000  0.4662890000000 1.0
C      1  0.4407640000000  0.5821650000000  0.5345260000000 1.0
C      1  0.5473650000000  0.5991920000000  0.5527330000000 1.0
C      1  0.4507910000000  0.4000040000000  0.4447940000000 1.0
C      1  0.5552970000000  0.5225370000000  0.4146770000000 1.0
C      1  0.4427050000000  0.4767940000000  0.5858980000000 1.0
C      1  0.4139580000000  0.4441720000000  0.4167820000000 1.0
C      1  0.5838180000000  0.5567220000000  0.5843580000000 1.0
C      1  0.4867120000000  0.4693700000000  0.4026000000000 1.0
C      1  0.5125830000000  0.5279880000000  0.5958520000000 1.0
C      1  0.4931480000000  0.4406040000000  0.4615930000000 1.0
C      1  0.5082350000000  0.5561730000000  0.5366790000000 1.0
C      1  0.4583050000000  0.5237920000000  0.6009990000000 1.0
C      1  0.5410280000000  0.4738510000000  0.3988810000000 1.0
C      1  0.5069500000000  0.3927940000000  0.5332900000000 1.0
C      1  0.4934350000000  0.6075530000000  0.4680230000000 1.0
C      1  0.6000780000000  0.5102810000000  0.4796940000000 1.0
C      1  0.3974540000000  0.4932050000000  0.5211270000000 1.0
C      1  0.5146140000000  0.5022070000000  0.6090000000000 1.0
C      1  0.4874760000000  0.4964170000000  0.3922580000000 1.0
C      1  0.5463680000000  0.5166090000000  0.5599250000000 1.0
C      1  0.4534790000000  0.4822950000000  0.4385190000000 1.0
C      1  0.4344570000000  0.4746180000000  0.5141120000000 1.0
C      1  0.5625380000000  0.5272760000000  0.4878080000000 1.0
C      1  0.4825640000000  0.4042460000000  0.5185200000000 1.0
C      1  0.5179360000000  0.5955490000000  0.4822230000000 1.0
C      1  0.5157840000000  0.5826880000000  0.4351090000000 1.0
C      1  0.4829390000000  0.4167800000000  0.5656700000000 1.0
C      1  0.3950680000000  0.4424790000000  0.5288330000000 1.0
C      1  0.6071130000000  0.5509270000000  0.4717890000000 1.0
C      1  0.5351220000000  0.4531920000000  0.4348940000000 1.0
C      1  0.4644330000000  0.5447440000000  0.5651810000000 1.0
C      1  0.4021310000000  0.4488270000000  0.4751290000000 1.0
C      1  0.5989300000000  0.5543380000000  0.5265190000000 1.0
C      1  0.4420020000000  0.4288880000000  0.5392600000000 1.0
C      1  0.5583050000000  0.5716400000000  0.4598700000000 1.0
C      1  0.4422540000000  0.5378180000000  0.4420140000000 1.0
C      1  0.5559210000000  0.4622100000000  0.5584890000000 1.0
C      1  0.5670650000000  0.5650260000000  0.4333250000000 1.0
C      1  0.4318370000000  0.4352410000000  0.5653050000000 1.0
C      1  0.5437140000000  0.5866210000000  0.5784620000000 1.0
C      1  0.4531560000000  0.4127170000000  0.4190210000000 1.0
C      1  0.4776960000000  0.5586320000000  0.4600580000000 1.0
C      1  0.5226390000000  0.4426710000000  0.5400690000000 1.0
C      1  0.4493380000000  0.4490290000000  0.5835060000000 1.0
C      1  0.5489070000000  0.5504890000000  0.4163560000000 1.0
C      1  0.4379050000000  0.5085270000000  0.4306740000000 1.0
C      1  0.5612510000000  0.4910250000000  0.5687780000000 1.0
C      1  0.4487480000000  0.4680960000000  0.4638790000000 1.0
C      1  0.5540170000000  0.5320340000000  0.5362070000000 1.0
C      1  0.5737740000000  0.5081060000000  0.4347460000000 1.0
C      1  0.4245330000000  0.4913850000000  0.5657480000000 1.0
C      1  0.4346410000000  0.4450080000000  0.5150350000000 1.0
C      1  0.5672150000000  0.5560830000000  0.4837970000000 1.0
C      1  0.4701350000000  0.5048710000000  0.3705950000000 1.0
C      1  0.5348140000000  0.4975290000000  0.6293340000000 1.0
C      1  0.5168770000000  0.4922810000000  0.5426520000000 1.0
C      1  0.4778720000000  0.5093800000000  0.4592230000000 1.0
C      1  0.5916660000000  0.5671130000000  0.4987390000000 1.0
C      1  0.4107820000000  0.4331870000000  0.5000290000000 1.0
C      1  0.5182590000000  0.4378460000000  0.5110890000000 1.0
C      1  0.4813830000000  0.5624240000000  0.4887380000000 1.0
C      1  0.5508240000000  0.5833460000000  0.5287070000000 1.0
C      1  0.4491100000000  0.4156070000000  0.4691570000000 1.0
C      1  0.5603440000000  0.4176350000000  0.4966790000000 1.0
C      1  0.4398250000000  0.5827760000000  0.5040950000000 1.0
C      1  0.4912020000000  0.5069160000000  0.5382860000000 1.0
C      1  0.5016030000000  0.4917600000000  0.4644810000000 1.0
C      1  0.5722280000000  0.5890360000000  0.5093420000000 1.0
C      1  0.4281090000000  0.4107600000000  0.4891020000000 1.0
C      1  0.4911980000000  0.5810640000000  0.5413360000000 1.0
C      1  0.5100330000000  0.4154560000000  0.4585510000000 1.0
C      1  0.5697930000000  0.4439360000000  0.5094370000000 1.0
C      1  0.4296810000000  0.5563600000000  0.4915370000000 1.0
C      1  0.4846840000000  0.5399570000000  0.5926580000000 1.0
C      1  0.5145670000000  0.4569860000000  0.4069880000000 1.0
C      1  0.5086930000000  0.5718710000000  0.4961730000000 1.0
C      1  0.4912090000000  0.4277360000000  0.5040510000000 1.0
C      1  0.4975920000000  0.4623310000000  0.5805020000000 1.0
C      1  0.5013390000000  0.5364790000000  0.4213910000000 1.0
C      1  0.5141020000000  0.4662380000000  0.5554450000000 1.0
C      1  0.4839410000000  0.5345510000000  0.4458050000000 1.0
C      1  0.4436930000000  0.4398580000000  0.4140390000000 1.0
C      1  0.5537760000000  0.5598620000000  0.5844790000000 1.0
C      1  0.4054640000000  0.4879270000000  0.4489740000000 1.0
C      1  0.5982200000000  0.5148490000000  0.5520130000000 1.0
C      1  0.3999820000000  0.4571480000000  0.4401190000000 1.0
C      1  0.6005160000000  0.5459020000000  0.5616860000000 1.0
C      1  0.4681240000000  0.5883830000000  0.4969780000000 1.0
C      1  0.5320740000000  0.4116180000000  0.5037450000000 1.0
C      1  0.4423640000000  0.5368250000000  0.5090190000000 1.0
C      1  0.5572710000000  0.4634380000000  0.4916620000000 1.0
C      1  0.4626510000000  0.5853110000000  0.4310250000000 1.0
C      1  0.5357010000000  0.4152020000000  0.5718000000000 1.0
C      1  0.4562840000000  0.5573760000000  0.4239490000000 1.0
C      1  0.5417930000000  0.4435750000000  0.5774330000000 1.0
C      1  0.4380290000000  0.5225140000000  0.5759080000000 1.0
C      1  0.5609300000000  0.4762260000000  0.4243950000000 1.0
C      1  0.4055950000000  0.4645200000000  0.5507060000000 1.0
C      1  0.5937260000000  0.5356250000000  0.4468090000000 1.0
C      1  0.5784470000000  0.4932790000000  0.5923050000000 1.0
C      1  0.4209860000000  0.5066890000000  0.4068650000000 1.0
C      1  0.5796070000000  0.4977050000000  0.4631590000000 1.0
C      1  0.4178910000000  0.5044220000000  0.5385780000000 1.0
C      1  0.5336350000000  0.5870820000000  0.4586110000000 1.0
C      1  0.4660420000000  0.4126390000000  0.5414960000000 1.0
C      1  0.4283200000000  0.5164630000000  0.3805840000000 1.0
C      1  0.5724280000000  0.4819980000000  0.6183190000000 1.0
C      1  0.5069410000000  0.5141210000000  0.4036310000000 1.0
C      1  0.4955210000000  0.4817610000000  0.6024230000000 1.0
C      1  0.5362770000000  0.5355970000000  0.5797850000000 1.0
C      1  0.4621240000000  0.4632520000000  0.4182350000000 1.0
C      1  0.5818990000000  0.5281990000000  0.5285080000000 1.0
C      1  0.4210550000000  0.4736030000000  0.4724840000000 1.0
C      1  0.4281120000000  0.5304310000000  0.5339770000000 1.0
C      1  0.5720140000000  0.4707150000000  0.4678870000000 1.0
C      1  0.5109170000000  0.4628690000000  0.4678560000000 1.0
C      1  0.4900120000000  0.5343000000000  0.5286050000000 1.0
C      1  0.4856690000000  0.5990400000000  0.5184340000000 1.0
C      1  0.5154360000000  0.3992530000000  0.4826490000000 1.0
C      1  0.5368240000000  0.4266190000000  0.4495450000000 1.0
C      1  0.4642330000000  0.5714710000000  0.5505840000000 1.0
C      1  0.5283950000000  0.4576870000000  0.4911250000000 1.0
C      1  0.4718860000000  0.5406890000000  0.5070050000000 1.0
C      1  0.4888280000000  0.5952010000000  0.4408430000000 1.0
C      1  0.5102090000000  0.4048330000000  0.5607810000000 1.0
C      1  0.4233770000000  0.5500060000000  0.4627710000000 1.0
C      1  0.5748960000000  0.4492150000000  0.5384440000000 1.0
C      1  0.5376500000000  0.5566880000000  0.5298930000000 1.0
C      1  0.4638160000000  0.4414840000000  0.4683320000000 1.0
C      1  0.4778310000000  0.4410740000000  0.5809620000000 1.0
C      1  0.5204240000000  0.5583690000000  0.4195690000000 1.0
C      1  0.4557960000000  0.4916520000000  0.5042680000000 1.0
C      1  0.5389430000000  0.5158940000000  0.4998640000000 1.0
C      1  0.4546620000000  0.5070130000000  0.4784750000000 1.0
C      1  0.5389390000000  0.4954680000000  0.5221350000000 1.0
C      1  0.4186130000000  0.5511460000000  0.5520950000000 1.0
C      1  0.5821620000000  0.4503560000000  0.4497710000000 1.0
C      1  0.5143700000000  0.5177990000000  0.4847500000000 1.0
C      1  0.4812770000000  0.4897670000000  0.5163600000000 1.0
C      1  0.5030890000000  0.4902490000000  0.4986470000000 1.0
END
