TITL C-862131-2149-266 -852810.042376973 125000 -705.705815655987 0 0 128 (Ci) n - 1
REM
REM in /home/nfs/bkarasulu/CARBON/AIRSS/Generating-Clusters/TERSOFF/Higher-Symm/FIRE-HFTN
REM
REM
REM
REM
REM
REM ./C.cell (b20cbc046b6831c77cfcea5457e17084)
REM AIRSS Version 0.9.1 bugfix July 2018 build 013d7b7c2542+ Fri, 06 Jul 2018 19:26:36 +0100
REM compiler GCC version 9.2.1 20190827 (Red Hat 9.2.1-1)
REM options -cpp -mtune=generic -march=x86-64 -g -O0 -fpre-include=/usr/include/finclude/math-vector-fortran.h
REM seed -1618038413 1312520149 -1102105349 781789924 -1931202697 188962896 1335859175 2028718282 -965645694 -268263356 -1754240099 22061813 -1108071897 -752486195 671865358 437055993 -1361924218 -1400991659 -631810679 -13872258 -850590617 -2128033556 1048791351 62678937 -731082127 -775966076 -639800913 1042515238 1778946087 -2136979495 -1693002219 741711738 720495908
REM
CELL 1.54180   50.00000   50.00000   50.00000   90.00000   90.00000   90.00000
LATT -1
SFAC C  
C      1  0.5700610000000  0.4508770000000  0.4594990000000 1.0
C      1  0.4299390000000  0.5491230000000  0.5405000000000 1.0
C      1  0.4758700000000  0.5195260000000  0.5373550000000 1.0
C      1  0.5241300000000  0.4804750000000  0.4626450000000 1.0
C      1  0.4441300000000  0.5043710000000  0.5740990000000 1.0
C      1  0.5558700000000  0.4956290000000  0.4259010000000 1.0
C      1  0.5694930000000  0.4778940000000  0.4694500000000 1.0
C      1  0.4305070000000  0.5221070000000  0.5305500000000 1.0
C      1  0.4663170000000  0.4538370000000  0.6262290000000 1.0
C      1  0.5336830000000  0.5461630000000  0.3737710000000 1.0
C      1  0.5424370000000  0.4919450000000  0.6009770000000 1.0
C      1  0.4575620000000  0.5080550000000  0.3990220000000 1.0
C      1  0.4584040000000  0.5488440000000  0.4367030000000 1.0
C      1  0.5415960000000  0.4511560000000  0.5632970000000 1.0
C      1  0.5399480000000  0.5125290000000  0.5451110000000 1.0
C      1  0.4600510000000  0.4874710000000  0.4548890000000 1.0
C      1  0.5109140000000  0.3792150000000  0.5163100000000 1.0
C      1  0.4890860000000  0.6207850000000  0.4836890000000 1.0
C      1  0.4789740000000  0.4471790000000  0.4334540000000 1.0
C      1  0.5210260000000  0.5528210000000  0.5665460000000 1.0
C      1  0.5490690000000  0.4665130000000  0.5134110000000 1.0
C      1  0.4509310000000  0.5334850000000  0.4865880000000 1.0
C      1  0.4471230000000  0.5655340000000  0.4597370000000 1.0
C      1  0.5528770000000  0.4344660000000  0.5402630000000 1.0
C      1  0.4760680000000  0.4631000000000  0.4577570000000 1.0
C      1  0.5239320000000  0.5369000000000  0.5422430000000 1.0
C      1  0.5143050000000  0.4301550000000  0.3911060000000 1.0
C      1  0.4856950000000  0.5698450000000  0.6088940000000 1.0
C      1  0.5412020000000  0.5107060000000  0.4061750000000 1.0
C      1  0.4587980000000  0.4892940000000  0.5938250000000 1.0
C      1  0.4771480000000  0.5105320000000  0.4410250000000 1.0
C      1  0.5228510000000  0.4894680000000  0.5589750000000 1.0
C      1  0.5232470000000  0.5206110000000  0.3620800000000 1.0
C      1  0.4767530000000  0.4793890000000  0.6379200000000 1.0
C      1  0.5821920000000  0.5461790000000  0.5401490000000 1.0
C      1  0.4178080000000  0.4538200000000  0.4598510000000 1.0
C      1  0.4678380000000  0.4148940000000  0.4691040000000 1.0
C      1  0.5321620000000  0.5851060000000  0.5308970000000 1.0
C      1  0.5498960000000  0.4954000000000  0.4548800000000 1.0
C      1  0.4501050000000  0.5046010000000  0.5451200000000 1.0
C      1  0.5881660000000  0.5370660000000  0.4858290000000 1.0
C      1  0.4118350000000  0.4629340000000  0.5141710000000 1.0
C      1  0.4241510000000  0.4198930000000  0.4947250000000 1.0
C      1  0.5758490000000  0.5801070000000  0.5052750000000 1.0
C      1  0.5133980000000  0.5786530000000  0.4710090000000 1.0
C      1  0.4866010000000  0.4213440000000  0.5289920000000 1.0
C      1  0.4892000000000  0.4549880000000  0.5720560000000 1.0
C      1  0.5108020000000  0.5450140000000  0.4279440000000 1.0
C      1  0.5008520000000  0.5391200000000  0.4775980000000 1.0
C      1  0.4991490000000  0.4608830000000  0.5224010000000 1.0
C      1  0.4505000000000  0.4788750000000  0.4026350000000 1.0
C      1  0.5495000000000  0.5211250000000  0.5973650000000 1.0
C      1  0.5757150000000  0.5543890000000  0.4649420000000 1.0
C      1  0.4242860000000  0.4456110000000  0.5350590000000 1.0
C      1  0.5502330000000  0.5599410000000  0.4213720000000 1.0
C      1  0.4497670000000  0.4400590000000  0.5786280000000 1.0
C      1  0.4522290000000  0.4768220000000  0.5329910000000 1.0
C      1  0.5477710000000  0.5231780000000  0.4670090000000 1.0
C      1  0.5226440000000  0.4515240000000  0.4625430000000 1.0
C      1  0.4773560000000  0.5484760000000  0.5374580000000 1.0
C      1  0.4950930000000  0.5337260000000  0.4503960000000 1.0
C      1  0.5049070000000  0.4662740000000  0.5496030000000 1.0
C      1  0.5374090000000  0.4333470000000  0.4094960000000 1.0
C      1  0.4625910000000  0.5666530000000  0.5905030000000 1.0
C      1  0.4537170000000  0.5667550000000  0.5377560000000 1.0
C      1  0.5462840000000  0.4332450000000  0.4622440000000 1.0
C      1  0.5214700000000  0.5103450000000  0.5076780000000 1.0
C      1  0.4785300000000  0.4896560000000  0.4923220000000 1.0
C      1  0.4303520000000  0.5200330000000  0.5017000000000 1.0
C      1  0.5696480000000  0.4799660000000  0.4983000000000 1.0
C      1  0.5562910000000  0.4690190000000  0.5838550000000 1.0
C      1  0.4437090000000  0.5309800000000  0.4161450000000 1.0
C      1  0.5365090000000  0.4229030000000  0.5162660000000 1.0
C      1  0.4634910000000  0.5770960000000  0.4837340000000 1.0
C      1  0.5612560000000  0.5899940000000  0.5299800000000 1.0
C      1  0.4387430000000  0.4100060000000  0.4700210000000 1.0
C      1  0.5395240000000  0.5916220000000  0.4691700000000 1.0
C      1  0.4604760000000  0.4083790000000  0.5308300000000 1.0
C      1  0.5892450000000  0.5529410000000  0.5112610000000 1.0
C      1  0.4107550000000  0.4470590000000  0.4887390000000 1.0
C      1  0.5719180000000  0.5190820000000  0.5506950000000 1.0
C      1  0.4280820000000  0.4809180000000  0.4493050000000 1.0
C      1  0.5906720000000  0.4981650000000  0.5409520000000 1.0
C      1  0.4093270000000  0.5018350000000  0.4590480000000 1.0
C      1  0.4885890000000  0.5921550000000  0.4784810000000 1.0
C      1  0.5114110000000  0.4078440000000  0.5215180000000 1.0
C      1  0.4960590000000  0.4700890000000  0.5962990000000 1.0
C      1  0.5039410000000  0.5299100000000  0.4037010000000 1.0
C      1  0.4903390000000  0.6327640000000  0.5100300000000 1.0
C      1  0.5096610000000  0.3672350000000  0.4899700000000 1.0
C      1  0.4086110000000  0.5078590000000  0.4873640000000 1.0
C      1  0.5913880000000  0.4921410000000  0.5126360000000 1.0
C      1  0.4721700000000  0.5011630000000  0.6178930000000 1.0
C      1  0.5278300000000  0.4988370000000  0.3821070000000 1.0
C      1  0.4553050000000  0.4598930000000  0.5990050000000 1.0
C      1  0.5446960000000  0.5401080000000  0.4009950000000 1.0
C      1  0.4916540000000  0.5055940000000  0.5183720000000 1.0
C      1  0.5083470000000  0.4944060000000  0.4816280000000 1.0
C      1  0.4893340000000  0.6180340000000  0.5349480000000 1.0
C      1  0.5106670000000  0.3819650000000  0.4650510000000 1.0
C      1  0.5265180000000  0.5419740000000  0.5931100000000 1.0
C      1  0.4734820000000  0.4580260000000  0.4068900000000 1.0
C      1  0.5263030000000  0.5570030000000  0.5202580000000 1.0
C      1  0.4736970000000  0.4429970000000  0.4797420000000 1.0
C      1  0.5221660000000  0.5816160000000  0.5594960000000 1.0
C      1  0.4778330000000  0.4183840000000  0.4405040000000 1.0
C      1  0.4724110000000  0.4686940000000  0.5128960000000 1.0
C      1  0.5275890000000  0.5313070000000  0.4871040000000 1.0
C      1  0.5412680000000  0.4191790000000  0.4354820000000 1.0
C      1  0.4587320000000  0.5808210000000  0.5645180000000 1.0
C      1  0.4931040000000  0.4504440000000  0.3866780000000 1.0
C      1  0.5068960000000  0.5495560000000  0.6133220000000 1.0
C      1  0.5734700000000  0.5723740000000  0.5512850000000 1.0
C      1  0.4265300000000  0.4276260000000  0.4487150000000 1.0
C      1  0.5321250000000  0.5811800000000  0.4291190000000 1.0
C      1  0.4678740000000  0.4188180000000  0.5708820000000 1.0
C      1  0.6083280000000  0.4844090000000  0.5594940000000 1.0
C      1  0.3916720000000  0.5155900000000  0.4405060000000 1.0
C      1  0.4272230000000  0.4760500000000  0.4196430000000 1.0
C      1  0.5727770000000  0.5239500000000  0.5803570000000 1.0
C      1  0.4503580000000  0.5826810000000  0.5111680000000 1.0
C      1  0.5496430000000  0.4173190000000  0.4888310000000 1.0
C      1  0.5647620000000  0.5794160000000  0.4771130000000 1.0
C      1  0.4352380000000  0.4205840000000  0.5228870000000 1.0
C      1  0.4837720000000  0.5097140000000  0.4113620000000 1.0
C      1  0.5162280000000  0.4902860000000  0.5886390000000 1.0
C      1  0.5219930000000  0.4612430000000  0.5044270000000 1.0
C      1  0.4780070000000  0.5387570000000  0.4955720000000 1.0
END
