TITL C-862133-5440-1203 3.80220822033637e-07 125000 -843.77788516677 0 0 151 (Cs) n - 1
REM
REM in /home/nfs/bkarasulu/CARBON/AIRSS/Generating-Clusters/TERSOFF/Higher-Symm/FIRE-HFTN
REM
REM
REM
REM
REM
REM ./C.cell (b20cbc046b6831c77cfcea5457e17084)
REM AIRSS Version 0.9.1 bugfix July 2018 build 013d7b7c2542+ Fri, 06 Jul 2018 19:26:36 +0100
REM compiler GCC version 9.2.1 20190827 (Red Hat 9.2.1-1)
REM options -cpp -mtune=generic -march=x86-64 -g -O0 -fpre-include=/usr/include/finclude/math-vector-fortran.h
REM seed 1373323031 148690739 156480219 -374356955 -480666806 -1618324014 -1045210667 1053142696 1955668988 644938361 795006598 -1338304130 -1940175798 -882568191 -2056151348 882526319 1806415332 -1918707140 345230564 -2135899684 2038481716 -1034556142 -731516195 -730598457 1384547962 -274597271 -756794466 45522685 -351668789 180387642 229128485 -1743292837 1837757917
REM
CELL 1.54180   50.00000   50.00000   50.00000   90.00000   90.00000   90.00000
LATT -1
SFAC C  
C      1  0.5165660000000  0.5976300000000  0.5144850000000 1.0
C      1  0.5162400000000  0.5140780000000  0.4019780000000 1.0
C      1  0.5166900000000  0.4023180000000  0.4866320000000 1.0
C      1  0.5165410000000  0.4860480000000  0.5977880000000 1.0
C      1  0.4818890000000  0.5976300000000  0.5144850000000 1.0
C      1  0.4822150000000  0.5140780000000  0.4019780000000 1.0
C      1  0.4817650000000  0.4023180000000  0.4866320000000 1.0
C      1  0.4819150000000  0.4860480000000  0.5977880000000 1.0
C      1  0.5341060000000  0.4571360000000  0.4741220000000 1.0
C      1  0.5345680000000  0.4734880000000  0.5434700000000 1.0
C      1  0.5347460000000  0.5435580000000  0.5268760000000 1.0
C      1  0.5338550000000  0.5269370000000  0.4566640000000 1.0
C      1  0.4643490000000  0.4571360000000  0.4741220000000 1.0
C      1  0.4638870000000  0.4734880000000  0.5434700000000 1.0
C      1  0.4637090000000  0.5435580000000  0.5268760000000 1.0
C      1  0.4646000000000  0.5269370000000  0.4566640000000 1.0
C      1  0.5593820000000  0.4661230000000  0.5765450000000 1.0
C      1  0.5591530000000  0.5767590000000  0.5350690000000 1.0
C      1  0.5587680000000  0.5340100000000  0.4236150000000 1.0
C      1  0.5595030000000  0.4244500000000  0.4670920000000 1.0
C      1  0.4390740000000  0.4661230000000  0.5765450000000 1.0
C      1  0.4393020000000  0.5767590000000  0.5350690000000 1.0
C      1  0.4396870000000  0.5340100000000  0.4236150000000 1.0
C      1  0.4389530000000  0.4244500000000  0.4670920000000 1.0
C      1  0.5154050000000  0.4640170000000  0.3941030000000 1.0
C      1  0.5154940000000  0.3939640000000  0.5362150000000 1.0
C      1  0.5154790000000  0.5355920000000  0.6065350000000 1.0
C      1  0.5155980000000  0.6064990000000  0.4648720000000 1.0
C      1  0.4830510000000  0.4640170000000  0.3941030000000 1.0
C      1  0.4829610000000  0.3939640000000  0.5362150000000 1.0
C      1  0.4829760000000  0.5355920000000  0.6065350000000 1.0
C      1  0.4828570000000  0.6064990000000  0.4648720000000 1.0
C      1  0.4276260000000  0.5067580000000  0.4254320000000 1.0
C      1  0.4270160000000  0.4267800000000  0.4947080000000 1.0
C      1  0.4270910000000  0.4937810000000  0.5737920000000 1.0
C      1  0.4271120000000  0.5735210000000  0.5075330000000 1.0
C      1  0.5708300000000  0.5067580000000  0.4254320000000 1.0
C      1  0.5714390000000  0.4267800000000  0.4947080000000 1.0
C      1  0.5713640000000  0.4937810000000  0.5737920000000 1.0
C      1  0.5713440000000  0.5735210000000  0.5075330000000 1.0
C      1  0.5201980000000  0.5272910000000  0.4883470000000 1.0
C      1  0.5201700000000  0.4885980000000  0.4722990000000 1.0
C      1  0.5201890000000  0.4728680000000  0.5111580000000 1.0
C      1  0.5201770000000  0.5115870000000  0.5272170000000 1.0
C      1  0.4782570000000  0.5272910000000  0.4883470000000 1.0
C      1  0.4782860000000  0.4885980000000  0.4722990000000 1.0
C      1  0.4782670000000  0.4728680000000  0.5111580000000 1.0
C      1  0.4782780000000  0.5115870000000  0.5272170000000 1.0
C      1  0.5639730000000  0.5471890000000  0.5472230000000 1.0
C      1  0.5637950000000  0.5449290000000  0.4545260000000 1.0
C      1  0.5637880000000  0.4544710000000  0.4555850000000 1.0
C      1  0.5637570000000  0.4539180000000  0.5474350000000 1.0
C      1  0.4344820000000  0.5471890000000  0.5472230000000 1.0
C      1  0.4346600000000  0.5449290000000  0.4545260000000 1.0
C      1  0.4346670000000  0.4544710000000  0.4555850000000 1.0
C      1  0.4346990000000  0.4539170000000  0.5474350000000 1.0
C      1  0.5344330000000  0.3938810000000  0.5117580000000 1.0
C      1  0.5342330000000  0.5110170000000  0.6064550000000 1.0
C      1  0.5345640000000  0.6061060000000  0.4893790000000 1.0
C      1  0.5339850000000  0.4886340000000  0.3937230000000 1.0
C      1  0.4640220000000  0.3938810000000  0.5117580000000 1.0
C      1  0.4642220000000  0.5110170000000  0.6064550000000 1.0
C      1  0.4638910000000  0.6061060000000  0.4893790000000 1.0
C      1  0.4644700000000  0.4886340000000  0.3937230000000 1.0
C      1  0.5617060000000  0.4581230000000  0.4258440000000 1.0
C      1  0.5614980000000  0.4247890000000  0.5432630000000 1.0
C      1  0.5616680000000  0.5425830000000  0.5761860000000 1.0
C      1  0.5620240000000  0.5743370000000  0.4586210000000 1.0
C      1  0.4367500000000  0.4581230000000  0.4258440000000 1.0
C      1  0.4369570000000  0.4247890000000  0.5432630000000 1.0
C      1  0.4367870000000  0.5425830000000  0.5761860000000 1.0
C      1  0.4364320000000  0.5743370000000  0.4586210000000 1.0
C      1  0.4664510000000  0.5915030000000  0.5398000000000 1.0
C      1  0.4666410000000  0.5392890000000  0.4088380000000 1.0
C      1  0.4660530000000  0.4091920000000  0.4616480000000 1.0
C      1  0.4662450000000  0.4609430000000  0.5915380000000 1.0
C      1  0.5320050000000  0.5915030000000  0.5398000000000 1.0
C      1  0.5318140000000  0.5392890000000  0.4088380000000 1.0
C      1  0.5324030000000  0.4091920000000  0.4616480000000 1.0
C      1  0.5322100000000  0.4609430000000  0.5915380000000 1.0
C      1  0.4472860000000  0.4978210000000  0.5238040000000 1.0
C      1  0.4473260000000  0.5236740000000  0.5019440000000 1.0
C      1  0.4473240000000  0.5029490000000  0.4742290000000 1.0
C      1  0.4467750000000  0.4774580000000  0.4972590000000 1.0
C      1  0.5511690000000  0.4978210000000  0.5238040000000 1.0
C      1  0.5511290000000  0.5236740000000  0.5019440000000 1.0
C      1  0.5511320000000  0.5029490000000  0.4742290000000 1.0
C      1  0.5516800000000  0.4774580000000  0.4972590000000 1.0
C      1  0.5235470000000  0.5030980000000  0.4317140000000 1.0
C      1  0.5237500000000  0.4319760000000  0.4977200000000 1.0
C      1  0.5236540000000  0.4972620000000  0.5682260000000 1.0
C      1  0.5236070000000  0.5680210000000  0.5031910000000 1.0
C      1  0.4749090000000  0.5030980000000  0.4317140000000 1.0
C      1  0.4747060000000  0.4319760000000  0.4977200000000 1.0
C      1  0.4748010000000  0.4972620000000  0.5682260000000 1.0
C      1  0.4748480000000  0.5680210000000  0.5031910000000 1.0
C      1  0.4840470000000  0.5780790000000  0.5600690000000 1.0
C      1  0.4840360000000  0.5598590000000  0.4221180000000 1.0
C      1  0.4838980000000  0.4222180000000  0.4411570000000 1.0
C      1  0.4839710000000  0.4405690000000  0.5782530000000 1.0
C      1  0.5144080000000  0.5780790000000  0.5600690000000 1.0
C      1  0.5144190000000  0.5598590000000  0.4221180000000 1.0
C      1  0.5145580000000  0.4222180000000  0.4411570000000 1.0
C      1  0.5144840000000  0.4405690000000  0.5782530000000 1.0
C      1  0.5871780000000  0.4991690000000  0.5450480000000 1.0
C      1  0.5868160000000  0.5455510000000  0.5038870000000 1.0
C      1  0.5864940000000  0.5025580000000  0.4507670000000 1.0
C      1  0.5865600000000  0.4544630000000  0.5000790000000 1.0
C      1  0.4112780000000  0.4991690000000  0.5450480000000 1.0
C      1  0.4116400000000  0.5455510000000  0.5038870000000 1.0
C      1  0.4119610000000  0.5025580000000  0.4507670000000 1.0
C      1  0.4118960000000  0.4544630000000  0.5000790000000 1.0
C      1  0.5234650000000  0.4500110000000  0.4448830000000 1.0
C      1  0.5229490000000  0.4446820000000  0.5503920000000 1.0
C      1  0.5230450000000  0.5502780000000  0.5558620000000 1.0
C      1  0.5236150000000  0.5560780000000  0.4498230000000 1.0
C      1  0.4749900000000  0.4500110000000  0.4448830000000 1.0
C      1  0.4755070000000  0.4446820000000  0.5503920000000 1.0
C      1  0.4754100000000  0.5502780000000  0.5558620000000 1.0
C      1  0.4748400000000  0.5560780000000  0.4498230000000 1.0
C      1  0.5149130000000  0.5739850000000  0.4708330000000 1.0
C      1  0.5149360000000  0.4707170000000  0.4265530000000 1.0
C      1  0.5148000000000  0.4264320000000  0.5295510000000 1.0
C      1  0.5148610000000  0.5292920000000  0.5740110000000 1.0
C      1  0.4835420000000  0.5739850000000  0.4708330000000 1.0
C      1  0.4835200000000  0.4707170000000  0.4265530000000 1.0
C      1  0.4836550000000  0.4264320000000  0.5295510000000 1.0
C      1  0.4835950000000  0.5292920000000  0.5740110000000 1.0
C      1  0.5587350000000  0.5873000000000  0.4846890000000 1.0
C      1  0.5580770000000  0.4841060000000  0.4122850000000 1.0
C      1  0.5587040000000  0.4121270000000  0.5169850000000 1.0
C      1  0.5586420000000  0.5161750000000  0.5884270000000 1.0
C      1  0.4397210000000  0.5873000000000  0.4846890000000 1.0
C      1  0.4403780000000  0.4841060000000  0.4122850000000 1.0
C      1  0.4397520000000  0.4121270000000  0.5169850000000 1.0
C      1  0.4398140000000  0.5161750000000  0.5884270000000 1.0
C      1  0.5837380000000  0.4688700000000  0.5293170000000 1.0
C      1  0.5842200000000  0.5294830000000  0.5320130000000 1.0
C      1  0.5853310000000  0.5288130000000  0.4755100000000 1.0
C      1  0.5855260000000  0.4733360000000  0.4721120000000 1.0
C      1  0.4147170000000  0.4688700000000  0.5293170000000 1.0
C      1  0.4142350000000  0.5294830000000  0.5320130000000 1.0
C      1  0.4131250000000  0.5288130000000  0.4755090000000 1.0
C      1  0.4129290000000  0.4733360000000  0.4721120000000 1.0
C      1  0.4992280000000  0.5005760000000  0.4514890000000 1.0
C      1  0.4992280000000  0.4999300000000  0.5484330000000 1.0
C      1  0.4992280000000  0.4515650000000  0.4997620000000 1.0
C      1  0.4992280000000  0.5483790000000  0.5001380000000 1.0
C      1  0.4097380000000  0.4998370000000  0.4925010000000 1.0
C      1  0.5887170000000  0.4998370000000  0.4925010000000 1.0
C      1  0.4992280000000  0.5001100000000  0.4997630000000 1.0
END
