TITL C-862501-1041-157 0.110689383917299 125000 -570.769804231231 0 0 99 (C1) n - 1
REM
REM in /home/nfs/bkarasulu/CARBON/AIRSS/Generating-Clusters/TERSOFF/Higher-Symm/FIRE-HFTN
REM
REM
REM
REM
REM
REM ./C.cell (b20cbc046b6831c77cfcea5457e17084)
REM AIRSS Version 0.9.1 bugfix July 2018 build 013d7b7c2542+ Fri, 06 Jul 2018 19:26:36 +0100
REM compiler GCC version 9.2.1 20190827 (Red Hat 9.2.1-1)
REM options -cpp -mtune=generic -march=x86-64 -g -O0 -fpre-include=/usr/include/finclude/math-vector-fortran.h
REM seed 1025128381 -592506503 1887688172 252033559 2108820815 1322550057 982780231 2085448748 -1227934424 -505969954 -1144543433 174455316 1903326810 214172227 1952691964 -550622074 1381484290 776208472 -1600226032 -1220151267 12480077 -1965621567 1413606588 -1727896256 -2131991920 -475628873 -239973071 1521934125 1470314681 1898348397 316233477 1722835683 -1758470549
REM
CELL 1.54180   50.00000   50.00000   50.00000   90.00000   90.00000   90.00000
LATT -1
SFAC C  
C      1  0.5651340000000  0.5240560000000  0.4899430000000 1.0
C      1  0.4345830000000  0.4754490000000  0.4860270000000 1.0
C      1  0.5657190000000  0.5232150000000  0.5194150000000 1.0
C      1  0.4343320000000  0.4736380000000  0.5156180000000 1.0
C      1  0.4376760000000  0.5266820000000  0.4851070000000 1.0
C      1  0.5590030000000  0.4716940000000  0.4898840000000 1.0
C      1  0.4390990000000  0.5258790000000  0.5148960000000 1.0
C      1  0.5602480000000  0.4725850000000  0.5202250000000 1.0
C      1  0.4679130000000  0.4833950000000  0.5773390000000 1.0
C      1  0.5336900000000  0.5194180000000  0.5790870000000 1.0
C      1  0.4670110000000  0.4811960000000  0.4233380000000 1.0
C      1  0.5323690000000  0.5165130000000  0.4246590000000 1.0
C      1  0.5303390000000  0.4839020000000  0.5826180000000 1.0
C      1  0.4696320000000  0.5191340000000  0.5832250000000 1.0
C      1  0.5317770000000  0.4808900000000  0.4173870000000 1.0
C      1  0.4690000000000  0.5171640000000  0.4214280000000 1.0
C      1  0.4680610000000  0.5735730000000  0.4722490000000 1.0
C      1  0.5325250000000  0.4250720000000  0.4662270000000 1.0
C      1  0.4687690000000  0.5748460000000  0.5336960000000 1.0
C      1  0.5348280000000  0.4332560000000  0.5269810000000 1.0
C      1  0.5302920000000  0.5803220000000  0.4683140000000 1.0
C      1  0.4677640000000  0.4223470000000  0.4701810000000 1.0
C      1  0.5328130000000  0.5762410000000  0.5302360000000 1.0
C      1  0.4722130000000  0.4196970000000  0.5327480000000 1.0
C      1  0.4828860000000  0.4403760000000  0.4855470000000 1.0
C      1  0.5172320000000  0.5602730000000  0.4836940000000 1.0
C      1  0.4840370000000  0.4398390000000  0.5165140000000 1.0
C      1  0.5174850000000  0.5587490000000  0.5143230000000 1.0
C      1  0.5162880000000  0.4437390000000  0.4798560000000 1.0
C      1  0.4854240000000  0.5567420000000  0.4872680000000 1.0
C      1  0.5155800000000  0.4468340000000  0.5110540000000 1.0
C      1  0.4841340000000  0.5561530000000  0.5190500000000 1.0
C      1  0.5305640000000  0.5689510000000  0.4398540000000 1.0
C      1  0.4692450000000  0.4303180000000  0.4408350000000 1.0
C      1  0.5317380000000  0.5692450000000  0.5594920000000 1.0
C      1  0.4714370000000  0.4314030000000  0.5611060000000 1.0
C      1  0.4681330000000  0.5657090000000  0.4433750000000 1.0
C      1  0.5318760000000  0.4323510000000  0.4375440000000 1.0
C      1  0.4694490000000  0.5680500000000  0.5625110000000 1.0
C      1  0.5333810000000  0.4386780000000  0.5560840000000 1.0
C      1  0.4853540000000  0.5443560000000  0.5733160000000 1.0
C      1  0.5162090000000  0.4605680000000  0.5688520000000 1.0
C      1  0.4843430000000  0.5419480000000  0.4319650000000 1.0
C      1  0.5157950000000  0.4561320000000  0.4273740000000 1.0
C      1  0.5168560000000  0.5444650000000  0.5711240000000 1.0
C      1  0.4854060000000  0.4581900000000  0.5696670000000 1.0
C      1  0.5155280000000  0.5428740000000  0.4312010000000 1.0
C      1  0.4841370000000  0.4559190000000  0.4301040000000 1.0
C      1  0.4364390000000  0.5142820000000  0.4208840000000 1.0
C      1  0.5637200000000  0.4834600000000  0.4220540000000 1.0
C      1  0.4372240000000  0.5157040000000  0.5812680000000 1.0
C      1  0.5626290000000  0.4860780000000  0.5840100000000 1.0
C      1  0.5654150000000  0.5140500000000  0.4241480000000 1.0
C      1  0.4341820000000  0.4834070000000  0.4214930000000 1.0
C      1  0.5664580000000  0.5168940000000  0.5827780000000 1.0
C      1  0.4351940000000  0.4848680000000  0.5802820000000 1.0
C      1  0.4488110000000  0.5899190000000  0.4879140000000 1.0
C      1  0.5536000000000  0.4125190000000  0.4830050000000 1.0
C      1  0.4493350000000  0.5907780000000  0.5178400000000 1.0
C      1  0.5543550000000  0.4161410000000  0.5126670000000 1.0
C      1  0.5494450000000  0.5966040000000  0.4848700000000 1.0
C      1  0.4514580000000  0.4032970000000  0.4866660000000 1.0
C      1  0.5501750000000  0.5950580000000  0.5149740000000 1.0
C      1  0.4532840000000  0.4023410000000  0.5168870000000 1.0
C      1  0.5873090000000  0.5115930000000  0.5358350000000 1.0
C      1  0.4139540000000  0.4866170000000  0.5333560000000 1.0
C      1  0.5850010000000  0.5110830000000  0.4718560000000 1.0
C      1  0.4130090000000  0.4864030000000  0.4688070000000 1.0
C      1  0.4169870000000  0.5173130000000  0.5332890000000 1.0
C      1  0.5836410000000  0.4811330000000  0.5370370000000 1.0
C      1  0.4150130000000  0.5170880000000  0.4679620000000 1.0
C      1  0.5812280000000  0.4805240000000  0.4712350000000 1.0
C      1  0.4602620000000  0.4833540000000  0.5262700000000 1.0
C      1  0.5396320000000  0.5149760000000  0.5299350000000 1.0
C      1  0.4602330000000  0.4852210000000  0.4758390000000 1.0
C      1  0.5389390000000  0.5149560000000  0.4800900000000 1.0
C      1  0.5359770000000  0.4862650000000  0.5307880000000 1.0
C      1  0.4631350000000  0.5114010000000  0.5241790000000 1.0
C      1  0.5355340000000  0.4872180000000  0.4796610000000 1.0
C      1  0.4620950000000  0.5139190000000  0.4743300000000 1.0
C      1  0.4159030000000  0.4749970000000  0.5604960000000 1.0
C      1  0.5865020000000  0.5244960000000  0.5625370000000 1.0
C      1  0.4150430000000  0.4739070000000  0.4418750000000 1.0
C      1  0.5837330000000  0.5235230000000  0.4450280000000 1.0
C      1  0.5799690000000  0.4716450000000  0.5649880000000 1.0
C      1  0.4205950000000  0.5287950000000  0.5605920000000 1.0
C      1  0.5783680000000  0.4694350000000  0.4436470000000 1.0
C      1  0.4185880000000  0.5274760000000  0.4403020000000 1.0
C      1  0.5115490000000  0.4756160000000  0.4668160000000 1.0
C      1  0.4873870000000  0.5286330000000  0.4740470000000 1.0
C      1  0.5105780000000  0.4778310000000  0.5188200000000 1.0
C      1  0.4877130000000  0.5246470000000  0.5330300000000 1.0
C      1  0.4828470000000  0.4688060000000  0.4767800000000 1.0
C      1  0.5185180000000  0.5325820000000  0.4717970000000 1.0
C      1  0.4833830000000  0.4671900000000  0.5287100000000 1.0
C      1  0.5168490000000  0.5301830000000  0.5228490000000 1.0
C      1  0.5001110000000  0.5089510000000  0.5562140000000 1.0
C      1  0.5016090000000  0.4928570000000  0.4439780000000 1.0
C      1  0.5007600000000  0.4986870000000  0.5002110000000 1.0
END
