TITL C-862129-6180-1207 3.89072502034708 125000 -1018.88516076877 0 0 180 (Ci) n - 1
REM
REM in /home/nfs/bkarasulu/CARBON/AIRSS/Generating-Clusters/TERSOFF/Higher-Symm/FIRE-HFTN
REM
REM
REM
REM
REM
REM ./C.cell (b20cbc046b6831c77cfcea5457e17084)
REM AIRSS Version 0.9.1 bugfix July 2018 build 013d7b7c2542+ Fri, 06 Jul 2018 19:26:36 +0100
REM compiler GCC version 9.2.1 20190827 (Red Hat 9.2.1-1)
REM options -cpp -mtune=generic -march=x86-64 -g -O0 -fpre-include=/usr/include/finclude/math-vector-fortran.h
REM seed 1177917798 251350827 -969361285 -1207103245 -151465802 -1624094973 -225201247 1905715659 -659068230 -182211528 279067239 -33645210 652808346 -1408502100 -136084049 -357011066 1279897330 1279404176 473180856 -741570790 -2074785367 140700358 1725045743 -1212346319 1556355185 -356774365 -684890150 -1534011730 -452210760 1083776787 836385937 -136717466 -366817581
REM
CELL 1.54180   50.00000   50.00000   50.00000   90.00000   90.00000   90.00000
LATT -1
SFAC C  
C      1  0.5101450000000  0.5618000000000  0.4005410000000 1.0
C      1  0.4898550000000  0.4382000000000  0.5994590000000 1.0
C      1  0.4951690000000  0.4714430000000  0.4964900000000 1.0
C      1  0.5048310000000  0.5285570000000  0.5035100000000 1.0
C      1  0.5669910000000  0.5071730000000  0.5778580000000 1.0
C      1  0.4330090000000  0.4928270000000  0.4221420000000 1.0
C      1  0.4180290000000  0.4767780000000  0.4712250000000 1.0
C      1  0.5819710000000  0.5232220000000  0.5287750000000 1.0
C      1  0.5049620000000  0.4509850000000  0.4338260000000 1.0
C      1  0.4950380000000  0.5490150000000  0.5661740000000 1.0
C      1  0.5409820000000  0.5575350000000  0.4734540000000 1.0
C      1  0.4590180000000  0.4424650000000  0.5265460000000 1.0
C      1  0.6046040000000  0.4818820000000  0.5093690000000 1.0
C      1  0.3953960000000  0.5181180000000  0.4906310000000 1.0
C      1  0.4465190000000  0.5116170000000  0.3992020000000 1.0
C      1  0.5534810000000  0.4883830000000  0.6007980000000 1.0
C      1  0.5076570000000  0.5863790000000  0.4488690000000 1.0
C      1  0.4923430000000  0.4136210000000  0.5511310000000 1.0
C      1  0.4391030000000  0.5189880000000  0.5754690000000 1.0
C      1  0.5608970000000  0.4810120000000  0.4245310000000 1.0
C      1  0.5219860000000  0.5357910000000  0.6240210000000 1.0
C      1  0.4780140000000  0.4642090000000  0.3759790000000 1.0
C      1  0.5151620000000  0.4903010000000  0.5303440000000 1.0
C      1  0.4848380000000  0.5096990000000  0.4696560000000 1.0
C      1  0.5070360000000  0.5875360000000  0.5777000000000 1.0
C      1  0.4929640000000  0.4124640000000  0.4223000000000 1.0
C      1  0.5471760000000  0.4416260000000  0.4197580000000 1.0
C      1  0.4528240000000  0.5583740000000  0.5802420000000 1.0
C      1  0.4428930000000  0.4190250000000  0.4333080000000 1.0
C      1  0.5571070000000  0.5809750000000  0.5666920000000 1.0
C      1  0.4841910000000  0.5051540000000  0.5822210000000 1.0
C      1  0.5158090000000  0.4948460000000  0.4177790000000 1.0
C      1  0.5381750000000  0.4584620000000  0.4914790000000 1.0
C      1  0.4618250000000  0.5415380000000  0.5085210000000 1.0
C      1  0.5361280000000  0.5455750000000  0.5583500000000 1.0
C      1  0.4638720000000  0.4544250000000  0.4416500000000 1.0
C      1  0.4487060000000  0.5840710000000  0.5212140000000 1.0
C      1  0.5512940000000  0.4159290000000  0.4787860000000 1.0
C      1  0.5426580000000  0.5167500000000  0.5607630000000 1.0
C      1  0.4573420000000  0.4832500000000  0.4392370000000 1.0
C      1  0.5855080000000  0.4895560000000  0.4071500000000 1.0
C      1  0.4144920000000  0.5104440000000  0.5928500000000 1.0
C      1  0.3907720000000  0.5246210000000  0.5339000000000 1.0
C      1  0.6092280000000  0.4753790000000  0.4661000000000 1.0
C      1  0.4324720000000  0.4339820000000  0.4833590000000 1.0
C      1  0.5675280000000  0.5660180000000  0.5166410000000 1.0
C      1  0.4942910000000  0.4204270000000  0.4980000000000 1.0
C      1  0.5057090000000  0.5795730000000  0.5020000000000 1.0
C      1  0.5637450000000  0.5917290000000  0.4965860000000 1.0
C      1  0.4362550000000  0.4082710000000  0.5034140000000 1.0
C      1  0.3971070000000  0.5599770000000  0.4878980000000 1.0
C      1  0.6028930000000  0.4400230000000  0.5121020000000 1.0
C      1  0.4938430000000  0.4885580000000  0.3812800000000 1.0
C      1  0.5061570000000  0.5114420000000  0.6187200000000 1.0
C      1  0.5029550000000  0.6204490000000  0.4927640000000 1.0
C      1  0.4970450000000  0.3795510000000  0.5072360000000 1.0
C      1  0.4403000000000  0.5188670000000  0.4805290000000 1.0
C      1  0.5597000000000  0.4811330000000  0.5194710000000 1.0
C      1  0.5286650000000  0.4641020000000  0.5207360000000 1.0
C      1  0.4713350000000  0.5358980000000  0.4792640000000 1.0
C      1  0.4592190000000  0.5884820000000  0.4362670000000 1.0
C      1  0.5407810000000  0.4115180000000  0.5637330000000 1.0
C      1  0.6216440000000  0.5038850000000  0.4722810000000 1.0
C      1  0.3783560000000  0.4961150000000  0.5277190000000 1.0
C      1  0.4578070000000  0.4532330000000  0.3942230000000 1.0
C      1  0.5421930000000  0.5467670000000  0.6057770000000 1.0
C      1  0.4259950000000  0.5646580000000  0.5306340000000 1.0
C      1  0.5740050000000  0.4353420000000  0.4693660000000 1.0
C      1  0.4655380000000  0.3923250000000  0.5097680000000 1.0
C      1  0.5344620000000  0.6076750000000  0.4902320000000 1.0
C      1  0.5697230000000  0.5085290000000  0.4650150000000 1.0
C      1  0.4302770000000  0.4914710000000  0.5349850000000 1.0
C      1  0.5307260000000  0.4950320000000  0.4723020000000 1.0
C      1  0.4692740000000  0.5049680000000  0.5276980000000 1.0
C      1  0.4341700000000  0.4414950000000  0.5684250000000 1.0
C      1  0.5658300000000  0.5585050000000  0.4315750000000 1.0
C      1  0.5258370000000  0.4182300000000  0.4621210000000 1.0
C      1  0.4741630000000  0.5817700000000  0.5378790000000 1.0
C      1  0.4774370000000  0.4185270000000  0.5253640000000 1.0
C      1  0.5225630000000  0.5814730000000  0.4746360000000 1.0
C      1  0.5910580000000  0.5183050000000  0.4072130000000 1.0
C      1  0.4089420000000  0.4816950000000  0.5927870000000 1.0
C      1  0.4845020000000  0.3955550000000  0.4468340000000 1.0
C      1  0.5154980000000  0.6044450000000  0.5531660000000 1.0
C      1  0.4776080000000  0.6079920000000  0.4795190000000 1.0
C      1  0.5223920000000  0.3920080000000  0.5204810000000 1.0
C      1  0.4755510000000  0.5472070000000  0.4519870000000 1.0
C      1  0.5244490000000  0.4527930000000  0.5480130000000 1.0
C      1  0.5110330000000  0.5542280000000  0.5157250000000 1.0
C      1  0.4889670000000  0.4457720000000  0.4842750000000 1.0
C      1  0.4552280000000  0.3958630000000  0.4469290000000 1.0
C      1  0.5447720000000  0.6041370000000  0.5530710000000 1.0
C      1  0.5841490000000  0.5337860000000  0.4692110000000 1.0
C      1  0.4158510000000  0.4662140000000  0.5307890000000 1.0
C      1  0.4054590000000  0.4572590000000  0.4912770000000 1.0
C      1  0.5945410000000  0.5427410000000  0.5087230000000 1.0
C      1  0.5508190000000  0.5835240000000  0.4236380000000 1.0
C      1  0.4491810000000  0.4164760000000  0.5763620000000 1.0
C      1  0.5423030000000  0.4748730000000  0.4525290000000 1.0
C      1  0.4576970000000  0.5251270000000  0.5474710000000 1.0
C      1  0.5716330000000  0.4053930000000  0.5266620000000 1.0
C      1  0.4283670000000  0.5946070000000  0.4733380000000 1.0
C      1  0.5235930000000  0.4841190000000  0.3917930000000 1.0
C      1  0.4764070000000  0.5158810000000  0.6082070000000 1.0
C      1  0.5869840000000  0.4932160000000  0.5298260000000 1.0
C      1  0.4130160000000  0.5067840000000  0.4701740000000 1.0
C      1  0.4978980000000  0.5374090000000  0.4369330000000 1.0
C      1  0.5021020000000  0.4625910000000  0.5630670000000 1.0
C      1  0.4191590000000  0.4661560000000  0.4427030000000 1.0
C      1  0.5808410000000  0.5338440000000  0.5572970000000 1.0
C      1  0.4816370000000  0.5992580000000  0.4513940000000 1.0
C      1  0.5183630000000  0.4007420000000  0.5486060000000 1.0
C      1  0.4262060000000  0.5505680000000  0.4451650000000 1.0
C      1  0.5737940000000  0.4494320000000  0.5548350000000 1.0
C      1  0.5424130000000  0.4590080000000  0.3939070000000 1.0
C      1  0.4575870000000  0.5409920000000  0.6060930000000 1.0
C      1  0.4146540000000  0.5693660000000  0.4671260000000 1.0
C      1  0.5853460000000  0.4306340000000  0.5328740000000 1.0
C      1  0.5818420000000  0.4810120000000  0.5577090000000 1.0
C      1  0.4181580000000  0.5189880000000  0.4422910000000 1.0
C      1  0.5937910000000  0.4586670000000  0.4886090000000 1.0
C      1  0.4062090000000  0.5413330000000  0.5113910000000 1.0
C      1  0.5969570000000  0.4657820000000  0.4396940000000 1.0
C      1  0.4030430000000  0.5342180000000  0.5603060000000 1.0
C      1  0.5498060000000  0.5318730000000  0.3911330000000 1.0
C      1  0.4501940000000  0.4681270000000  0.6088670000000 1.0
C      1  0.5544210000000  0.5225500000000  0.5158000000000 1.0
C      1  0.4455790000000  0.4774500000000  0.4842000000000 1.0
C      1  0.4256510000000  0.5557040000000  0.5602680000000 1.0
C      1  0.5743490000000  0.4442960000000  0.4397320000000 1.0
C      1  0.4245210000000  0.4133140000000  0.5306550000000 1.0
C      1  0.5754790000000  0.5866860000000  0.4693450000000 1.0
C      1  0.4598600000000  0.4962170000000  0.4652930000000 1.0
C      1  0.5401400000000  0.5037830000000  0.5347070000000 1.0
C      1  0.3886820000000  0.4705850000000  0.5397550000000 1.0
C      1  0.6113180000000  0.5294150000000  0.4602450000000 1.0
C      1  0.5044710000000  0.4933500000000  0.4806460000000 1.0
C      1  0.4955290000000  0.5066500000000  0.5193540000000 1.0
C      1  0.5493600000000  0.4025250000000  0.5071470000000 1.0
C      1  0.4506400000000  0.5974750000000  0.4928530000000 1.0
C      1  0.4265960000000  0.4363860000000  0.4505250000000 1.0
C      1  0.5734040000000  0.5636140000000  0.5494750000000 1.0
C      1  0.4534810000000  0.5601580000000  0.4385640000000 1.0
C      1  0.5465190000000  0.4398420000000  0.5614360000000 1.0
C      1  0.5360500000000  0.5567240000000  0.5315730000000 1.0
C      1  0.4639500000000  0.4432760000000  0.4684270000000 1.0
C      1  0.5183820000000  0.4453030000000  0.4732150000000 1.0
C      1  0.4816180000000  0.5546970000000  0.5267850000000 1.0
C      1  0.5689540000000  0.5576680000000  0.4613020000000 1.0
C      1  0.4310460000000  0.4423320000000  0.5386980000000 1.0
C      1  0.5019080000000  0.4013870000000  0.4717230000000 1.0
C      1  0.4980920000000  0.5986130000000  0.5282770000000 1.0
C      1  0.5218320000000  0.4257670000000  0.4315380000000 1.0
C      1  0.4781680000000  0.5742330000000  0.5684620000000 1.0
C      1  0.6189430000000  0.5203380000000  0.5005320000000 1.0
C      1  0.3810570000000  0.4796620000000  0.4994680000000 1.0
C      1  0.4827580000000  0.5497630000000  0.3983100000000 1.0
C      1  0.5172420000000  0.4502370000000  0.6016900000000 1.0
C      1  0.5660080000000  0.5301180000000  0.6004620000000 1.0
C      1  0.4339920000000  0.4698820000000  0.3995380000000 1.0
C      1  0.4763490000000  0.5167210000000  0.3953530000000 1.0
C      1  0.5236510000000  0.4832790000000  0.6046470000000 1.0
C      1  0.4342970000000  0.4668500000000  0.5834280000000 1.0
C      1  0.5657030000000  0.5331500000000  0.4165720000000 1.0
C      1  0.4659320000000  0.4348370000000  0.4173800000000 1.0
C      1  0.5340680000000  0.5651630000000  0.5826200000000 1.0
C      1  0.5607590000000  0.5087940000000  0.4361850000000 1.0
C      1  0.4392410000000  0.4912060000000  0.5638150000000 1.0
C      1  0.5209190000000  0.5806970000000  0.4226090000000 1.0
C      1  0.4790810000000  0.4193030000000  0.5773910000000 1.0
C      1  0.5036350000000  0.4844450000000  0.5814780000000 1.0
C      1  0.4963650000000  0.5155550000000  0.4185220000000 1.0
C      1  0.5671140000000  0.4793190000000  0.4860510000000 1.0
C      1  0.4328860000000  0.5206810000000  0.5139490000000 1.0
C      1  0.5640010000000  0.6012300000000  0.4450360000000 1.0
C      1  0.4359990000000  0.3987700000000  0.5549640000000 1.0
C      1  0.4696990000000  0.4489280000000  0.6168650000000 1.0
C      1  0.5303010000000  0.5510720000000  0.3831350000000 1.0
C      1  0.5169680000000  0.4753620000000  0.4378630000000 1.0
C      1  0.4830320000000  0.5246380000000  0.5621370000000 1.0
END
