TITL C-862502-1143-1430 -0.00401747471426557 125000 -109.860036869613 0 0 24 (C2) n - 1
REM
REM in /home/nfs/bkarasulu/CARBON/AIRSS/Generating-Clusters/TERSOFF/Higher-Symm/FIRE-HFTN
REM
REM
REM
REM
REM
REM ./C.cell (b20cbc046b6831c77cfcea5457e17084)
REM AIRSS Version 0.9.1 bugfix July 2018 build 013d7b7c2542+ Fri, 06 Jul 2018 19:26:36 +0100
REM compiler GCC version 9.2.1 20190827 (Red Hat 9.2.1-1)
REM options -cpp -mtune=generic -march=x86-64 -g -O0 -fpre-include=/usr/include/finclude/math-vector-fortran.h
REM seed 1572269565 368728769 973242312 -1056773867 652933497 -715505365 -281980589 316015956 1562670995 -1839577264 -1709025792 -1995100281 -804712128 758686048 -1580550227 224967951 -1090637329 1562669409 -1103336200 878748754 -167884263 -982114303 -32744919 -2143234821 1200361100 -1359541957 2087380720 -2024670188 1971532736 -89450927 -2059895106 1033232252 1116508054
REM
CELL 1.54180   50.00000   50.00000   50.00000   90.00000   90.00000   90.00000
LATT -1
SFAC C  
C      1  0.4989190000000  0.5209020000000  0.5702060000000 1.0
C      1  0.5246530000000  0.5020820000000  0.5597370000000 1.0
C      1  0.5193040000000  0.4780040000000  0.5786940000000 1.0
C      1  0.4897420000000  0.4745360000000  0.5798940000000 1.0
C      1  0.4774770000000  0.4965490000000  0.5616520000000 1.0
C      1  0.4989190000000  0.4781050000000  0.4273460000000 1.0
C      1  0.5246530000000  0.4969250000000  0.4378150000000 1.0
C      1  0.5193040000000  0.5210030000000  0.4188590000000 1.0
C      1  0.4897420000000  0.5244710000000  0.4176590000000 1.0
C      1  0.4774770000000  0.5024590000000  0.4359000000000 1.0
C      1  0.4762800000000  0.5488970000000  0.4099180000000 1.0
C      1  0.5386200000000  0.5415840000000  0.4124480000000 1.0
C      1  0.5508900000000  0.4867350000000  0.4445640000000 1.0
C      1  0.4953770000000  0.4500540000000  0.4335410000000 1.0
C      1  0.4491420000000  0.4986700000000  0.4404340000000 1.0
C      1  0.4762800000000  0.4501110000000  0.5876350000000 1.0
C      1  0.5386200000000  0.4574230000000  0.5851040000000 1.0
C      1  0.5508900000000  0.5122730000000  0.5529890000000 1.0
C      1  0.4953770000000  0.5489530000000  0.5640120000000 1.0
C      1  0.4491420000000  0.5003370000000  0.5571190000000 1.0
C      1  0.5006590000000  0.4947340000000  0.5374590000000 1.0
C      1  0.5006590000000  0.5042740000000  0.4600940000000 1.0
C      1  0.4981800000000  0.5068080000000  0.5112700000000 1.0
C      1  0.4981800000000  0.4922000000000  0.4862830000000 1.0
END
