TITL C-862133-5440-1294 0.000541346675901123 125000 -1004.42891839123 0 0 160 (C1) n - 1
REM
REM in /home/nfs/bkarasulu/CARBON/AIRSS/Generating-Clusters/TERSOFF/Higher-Symm/FIRE-HFTN
REM
REM
REM
REM
REM
REM ./C.cell (b20cbc046b6831c77cfcea5457e17084)
REM AIRSS Version 0.9.1 bugfix July 2018 build 013d7b7c2542+ Fri, 06 Jul 2018 19:26:36 +0100
REM compiler GCC version 9.2.1 20190827 (Red Hat 9.2.1-1)
REM options -cpp -mtune=generic -march=x86-64 -g -O0 -fpre-include=/usr/include/finclude/math-vector-fortran.h
REM seed 1999298631 2133210001 -1250374570 -1591173199 -90819535 -1574244303 -459483058 -1230353755 354108623 470932122 -723537049 -267226255 1504891034 -2130054380 1466283624 610250815 -1996266218 117607450 2085807195 -1313668339 -438955579 -171989923 -770562765 -1704965226 1979259417 721500527 -554982591 -689347932 -135407676 1096954962 718411154 -1712028886 414668773
REM
CELL 1.54180   50.00000   50.00000   50.00000   90.00000   90.00000   90.00000
LATT -1
SFAC C  
C      1  0.4817920000000  0.4807690000000  0.4301100000000 1.0
C      1  0.4281680000000  0.4774490000000  0.4924450000000 1.0
C      1  0.4705840000000  0.4824100000000  0.5665930000000 1.0
C      1  0.5539320000000  0.4779750000000  0.5486260000000 1.0
C      1  0.5633300000000  0.4838120000000  0.4613430000000 1.0
C      1  0.5136950000000  0.4798610000000  0.4298690000000 1.0
C      1  0.5724960000000  0.4836160000000  0.4938510000000 1.0
C      1  0.5287980000000  0.4791150000000  0.5688060000000 1.0
C      1  0.4452590000000  0.4792430000000  0.5472200000000 1.0
C      1  0.4375930000000  0.4698430000000  0.4626590000000 1.0
C      1  0.5526220000000  0.5292900000000  0.5469670000000 1.0
C      1  0.5654810000000  0.5339810000000  0.4649430000000 1.0
C      1  0.4791180000000  0.5313050000000  0.4444110000000 1.0
C      1  0.4404250000000  0.5255530000000  0.4852570000000 1.0
C      1  0.4716450000000  0.5316800000000  0.5606300000000 1.0
C      1  0.4514060000000  0.5303820000000  0.5399270000000 1.0
C      1  0.4563540000000  0.5157390000000  0.4616330000000 1.0
C      1  0.5105360000000  0.5308540000000  0.4412950000000 1.0
C      1  0.5759850000000  0.5334300000000  0.4918890000000 1.0
C      1  0.5296520000000  0.5298370000000  0.5645560000000 1.0
C      1  0.4724570000000  0.5089450000000  0.4233700000000 1.0
C      1  0.4222250000000  0.5057920000000  0.4969450000000 1.0
C      1  0.4756520000000  0.5089400000000  0.5775500000000 1.0
C      1  0.5677680000000  0.5043070000000  0.5449330000000 1.0
C      1  0.5674120000000  0.5101710000000  0.4485150000000 1.0
C      1  0.5239920000000  0.5078150000000  0.4272650000000 1.0
C      1  0.5861120000000  0.5085960000000  0.5022010000000 1.0
C      1  0.5230130000000  0.5058780000000  0.5800460000000 1.0
C      1  0.4334750000000  0.5065310000000  0.5403570000000 1.0
C      1  0.4418890000000  0.4944330000000  0.4482080000000 1.0
C      1  0.4641740000000  0.5057150000000  0.3764660000000 1.0
C      1  0.3742100000000  0.5063390000000  0.4933500000000 1.0
C      1  0.4577170000000  0.5064320000000  0.6215970000000 1.0
C      1  0.6043060000000  0.5002220000000  0.5767670000000 1.0
C      1  0.6069060000000  0.5068170000000  0.4286050000000 1.0
C      1  0.5337360000000  0.5080390000000  0.3791500000000 1.0
C      1  0.6307410000000  0.5017080000000  0.4941580000000 1.0
C      1  0.5463810000000  0.5044170000000  0.6201870000000 1.0
C      1  0.4025060000000  0.5096810000000  0.5764280000000 1.0
C      1  0.3975060000000  0.5009160000000  0.4284380000000 1.0
C      1  0.5603650000000  0.5832910000000  0.4674740000000 1.0
C      1  0.4822930000000  0.5823920000000  0.4367000000000 1.0
C      1  0.4213440000000  0.5855870000000  0.4884920000000 1.0
C      1  0.4740330000000  0.5810370000000  0.5578230000000 1.0
C      1  0.5546960000000  0.5802520000000  0.5492570000000 1.0
C      1  0.4277200000000  0.5885220000000  0.4574500000000 1.0
C      1  0.5116340000000  0.5817380000000  0.4374610000000 1.0
C      1  0.5714530000000  0.5829420000000  0.4949090000000 1.0
C      1  0.5300500000000  0.5801820000000  0.5656220000000 1.0
C      1  0.4524240000000  0.5811550000000  0.5378240000000 1.0
C      1  0.4383980000000  0.4034790000000  0.4661930000000 1.0
C      1  0.4434790000000  0.4077820000000  0.5518870000000 1.0
C      1  0.5283840000000  0.4072470000000  0.5682320000000 1.0
C      1  0.5682480000000  0.4090950000000  0.4907880000000 1.0
C      1  0.5163130000000  0.4088180000000  0.4251110000000 1.0
C      1  0.5629990000000  0.4102510000000  0.4612900000000 1.0
C      1  0.5511340000000  0.4067940000000  0.5480680000000 1.0
C      1  0.4685840000000  0.4085640000000  0.5689980000000 1.0
C      1  0.4256110000000  0.4055420000000  0.4944600000000 1.0
C      1  0.4864810000000  0.4066610000000  0.4298660000000 1.0
C      1  0.4836850000000  0.3837590000000  0.5725370000000 1.0
C      1  0.5554540000000  0.3827730000000  0.5322590000000 1.0
C      1  0.5553600000000  0.3856800000000  0.4473890000000 1.0
C      1  0.4765680000000  0.3815940000000  0.4412070000000 1.0
C      1  0.4270620000000  0.3816350000000  0.5114290000000 1.0
C      1  0.5124870000000  0.3830490000000  0.5718880000000 1.0
C      1  0.4361460000000  0.3826810000000  0.5388160000000 1.0
C      1  0.4545930000000  0.3802840000000  0.4596750000000 1.0
C      1  0.5326540000000  0.3849750000000  0.4296240000000 1.0
C      1  0.5639460000000  0.3839180000000  0.5048360000000 1.0
C      1  0.6115840000000  0.5078680000000  0.5187360000000 1.0
C      1  0.5444780000000  0.5126950000000  0.4071030000000 1.0
C      1  0.4277100000000  0.5002720000000  0.4232640000000 1.0
C      1  0.4036070000000  0.5108920000000  0.5438500000000 1.0
C      1  0.5160090000000  0.5085370000000  0.6093860000000 1.0
C      1  0.3977680000000  0.5132830000000  0.5110630000000 1.0
C      1  0.4503970000000  0.5126740000000  0.4029710000000 1.0
C      1  0.5756960000000  0.5120900000000  0.4191940000000 1.0
C      1  0.5965880000000  0.5053020000000  0.5478130000000 1.0
C      1  0.4828820000000  0.5121060000000  0.6056130000000 1.0
C      1  0.4661650000000  0.4295580000000  0.4293570000000 1.0
C      1  0.4208790000000  0.4310670000000  0.5112360000000 1.0
C      1  0.4840230000000  0.4335250000000  0.5767340000000 1.0
C      1  0.5658420000000  0.4310270000000  0.5379080000000 1.0
C      1  0.5553910000000  0.4351190000000  0.4465410000000 1.0
C      1  0.5320600000000  0.4340230000000  0.4276680000000 1.0
C      1  0.5730240000000  0.4330720000000  0.5083740000000 1.0
C      1  0.5144350000000  0.4320810000000  0.5780050000000 1.0
C      1  0.4297060000000  0.4317530000000  0.5403170000000 1.0
C      1  0.4397390000000  0.4255680000000  0.4456610000000 1.0
C      1  0.4436240000000  0.5631840000000  0.4609060000000 1.0
C      1  0.4459700000000  0.5555660000000  0.5242510000000 1.0
C      1  0.5152610000000  0.5550180000000  0.5680880000000 1.0
C      1  0.5731260000000  0.5570320000000  0.5085760000000 1.0
C      1  0.5251620000000  0.5565120000000  0.4438060000000 1.0
C      1  0.5516870000000  0.5578700000000  0.4560460000000 1.0
C      1  0.5627800000000  0.5550580000000  0.5359840000000 1.0
C      1  0.4865470000000  0.5558880000000  0.5645520000000 1.0
C      1  0.4393740000000  0.5548710000000  0.4938780000000 1.0
C      1  0.4676020000000  0.5589180000000  0.4458390000000 1.0
C      1  0.5585060000000  0.6329950000000  0.4691040000000 1.0
C      1  0.4843940000000  0.6318280000000  0.4276240000000 1.0
C      1  0.4273460000000  0.6349350000000  0.4906540000000 1.0
C      1  0.4717510000000  0.6303910000000  0.5618120000000 1.0
C      1  0.5559580000000  0.6301140000000  0.5529480000000 1.0
C      1  0.4360980000000  0.6365210000000  0.4631260000000 1.0
C      1  0.5130330000000  0.6311850000000  0.4301610000000 1.0
C      1  0.5694370000000  0.6326400000000  0.4957790000000 1.0
C      1  0.5314520000000  0.6300800000000  0.5679670000000 1.0
C      1  0.4480280000000  0.6303900000000  0.5454000000000 1.0
C      1  0.4867610000000  0.6059880000000  0.5660190000000 1.0
C      1  0.5646970000000  0.6062300000000  0.5388470000000 1.0
C      1  0.5504410000000  0.6083790000000  0.4559560000000 1.0
C      1  0.4681150000000  0.6088040000000  0.4347050000000 1.0
C      1  0.4258750000000  0.6094870000000  0.5050570000000 1.0
C      1  0.5157540000000  0.6057980000000  0.5702050000000 1.0
C      1  0.4395800000000  0.6067180000000  0.5305360000000 1.0
C      1  0.4417320000000  0.6124140000000  0.4477750000000 1.0
C      1  0.5266830000000  0.6071530000000  0.4389200000000 1.0
C      1  0.5721020000000  0.6077390000000  0.5106020000000 1.0
C      1  0.4868070000000  0.4785710000000  0.5411570000000 1.0
C      1  0.5349530000000  0.4681800000000  0.5242890000000 1.0
C      1  0.5358520000000  0.4824300000000  0.4734010000000 1.0
C      1  0.4854010000000  0.4752070000000  0.4604660000000 1.0
C      1  0.4566160000000  0.4719040000000  0.4999850000000 1.0
C      1  0.5129610000000  0.4698580000000  0.5445520000000 1.0
C      1  0.4643090000000  0.4660300000000  0.5258170000000 1.0
C      1  0.4664110000000  0.4604020000000  0.4746740000000 1.0
C      1  0.5148500000000  0.4696890000000  0.4597670000000 1.0
C      1  0.5416940000000  0.4845410000000  0.5022420000000 1.0
C      1  0.4128400000000  0.4862520000000  0.5933040000000 1.0
C      1  0.5641230000000  0.4805740000000  0.6129510000000 1.0
C      1  0.6255900000000  0.4797940000000  0.4742450000000 1.0
C      1  0.5149730000000  0.4848580000000  0.3721260000000 1.0
C      1  0.3834850000000  0.4796110000000  0.4452780000000 1.0
C      1  0.5902230000000  0.4790760000000  0.5940060000000 1.0
C      1  0.4379250000000  0.4848610000000  0.6133260000000 1.0
C      1  0.3738660000000  0.4818600000000  0.4754900000000 1.0
C      1  0.4833320000000  0.4829760000000  0.3732600000000 1.0
C      1  0.6163390000000  0.4823190000000  0.4440650000000 1.0
C      1  0.4275990000000  0.4570850000000  0.5550900000000 1.0
C      1  0.5293570000000  0.4557660000000  0.5864160000000 1.0
C      1  0.5868720000000  0.4573190000000  0.4981490000000 1.0
C      1  0.5244470000000  0.4580680000000  0.4136690000000 1.0
C      1  0.4237870000000  0.4489880000000  0.4496200000000 1.0
C      1  0.5700230000000  0.4542360000000  0.5546820000000 1.0
C      1  0.4703680000000  0.4585180000000  0.5846270000000 1.0
C      1  0.4096670000000  0.4556820000000  0.4997890000000 1.0
C      1  0.4717130000000  0.4561080000000  0.4151220000000 1.0
C      1  0.5722020000000  0.4592010000000  0.4473170000000 1.0
C      1  0.3823040000000  0.4580710000000  0.4907700000000 1.0
C      1  0.4530960000000  0.4601270000000  0.6077860000000 1.0
C      1  0.5876350000000  0.4546400000000  0.5775160000000 1.0
C      1  0.5992690000000  0.4593900000000  0.4375980000000 1.0
C      1  0.4735840000000  0.4582770000000  0.3861640000000 1.0
C      1  0.6137490000000  0.4563180000000  0.4873960000000 1.0
C      1  0.5474400000000  0.4565500000000  0.6088240000000 1.0
C      1  0.4108600000000  0.4610200000000  0.5781790000000 1.0
C      1  0.3965350000000  0.4532300000000  0.4407640000000 1.0
C      1  0.5254380000000  0.4606750000000  0.3850670000000 1.0
END
