TITL C-862134-6730-1145 -0.0122555679619998 125000 -1224.04472801639 0 0 200 (C5) n - 1
REM
REM in /home/nfs/bkarasulu/CARBON/AIRSS/Generating-Clusters/TERSOFF/Higher-Symm/FIRE-HFTN
REM
REM
REM
REM
REM
REM ./C.cell (b20cbc046b6831c77cfcea5457e17084)
REM AIRSS Version 0.9.1 bugfix July 2018 build 013d7b7c2542+ Fri, 06 Jul 2018 19:26:36 +0100
REM compiler GCC version 9.2.1 20190827 (Red Hat 9.2.1-1)
REM options -cpp -mtune=generic -march=x86-64 -g -O0 -fpre-include=/usr/include/finclude/math-vector-fortran.h
REM seed 1661651555 -253202990 -780675243 -1189992996 1799938857 -492410315 281647789 -1000809674 2058972495 -534024012 1572290417 -367562050 1764611168 -799079179 1268635547 662594478 1850734861 -153285474 -1971873277 390461519 -1651055174 -560146421 -1259144927 -122751748 1662458592 762320090 -653385587 -1727130466 -591829177 -332510764 -884891934 1538439575 1111697256
REM
CELL 1.54180   50.00000   50.00000   50.00000   90.00000   90.00000   90.00000
LATT -1
SFAC C  
C      1  0.4372040000000  0.5528680000000  0.5176490000000 1.0
C      1  0.5308750000000  0.5760600000000  0.5176490000000 1.0
C      1  0.5818780000000  0.4941400000000  0.5176480000000 1.0
C      1  0.5197280000000  0.4203180000000  0.5176480000000 1.0
C      1  0.4303150000000  0.4566140000000  0.5176480000000 1.0
C      1  0.4401870000000  0.4053280000000  0.4678370000000 1.0
C      1  0.3914780000000  0.5276300000000  0.4678380000000 1.0
C      1  0.4927420000000  0.6117490000000  0.4678390000000 1.0
C      1  0.6040370000000  0.5414350000000  0.4678380000000 1.0
C      1  0.5715560000000  0.4138590000000  0.4678370000000 1.0
C      1  0.6043510000000  0.5544630000000  0.5486840000000 1.0
C      1  0.5840440000000  0.4175860000000  0.5486830000000 1.0
C      1  0.4475910000000  0.3946020000000  0.5486830000000 1.0
C      1  0.3835650000000  0.5172740000000  0.5486840000000 1.0
C      1  0.4804490000000  0.6160730000000  0.5486850000000 1.0
C      1  0.5406250000000  0.4493450000000  0.3864000000000 1.0
C      1  0.4643770000000  0.4457110000000  0.3864000000000 1.0
C      1  0.4373590000000  0.5171040000000  0.3864000000000 1.0
C      1  0.4969090000000  0.5648610000000  0.3864010000000 1.0
C      1  0.5607310000000  0.5229840000000  0.3864010000000 1.0
C      1  0.4729850000000  0.5419880000000  0.5567980000000 1.0
C      1  0.5315850000000  0.5386680000000  0.5567980000000 1.0
C      1  0.5465360000000  0.4819090000000  0.5567980000000 1.0
C      1  0.4971760000000  0.4501510000000  0.5567980000000 1.0
C      1  0.4517180000000  0.4872820000000  0.5567980000000 1.0
C      1  0.4914220000000  0.5500200000000  0.6132320000000 1.0
C      1  0.5449220000000  0.5236140000000  0.6132320000000 1.0
C      1  0.5363410000000  0.4645730000000  0.6132310000000 1.0
C      1  0.4775380000000  0.4544890000000  0.6132310000000 1.0
C      1  0.4497770000000  0.5072980000000  0.6132310000000 1.0
C      1  0.4322930000000  0.5662390000000  0.5704640000000 1.0
C      1  0.5420750000000  0.5848620000000  0.5704640000000 1.0
C      1  0.5937110000000  0.4862080000000  0.5704630000000 1.0
C      1  0.5158410000000  0.4066130000000  0.5704620000000 1.0
C      1  0.4160800000000  0.4560750000000  0.5704620000000 1.0
C      1  0.5801540000000  0.5548470000000  0.4523650000000 1.0
C      1  0.5769320000000  0.4407180000000  0.4523640000000 1.0
C      1  0.4673920000000  0.4085150000000  0.4523640000000 1.0
C      1  0.4029160000000  0.5027420000000  0.4523650000000 1.0
C      1  0.4726070000000  0.5931800000000  0.4523660000000 1.0
C      1  0.5185820000000  0.5617850000000  0.5444670000000 1.0
C      1  0.5645040000000  0.5014200000000  0.5444660000000 1.0
C      1  0.5212830000000  0.4390920000000  0.5444650000000 1.0
C      1  0.4486500000000  0.4609360000000  0.5444660000000 1.0
C      1  0.4469810000000  0.5367650000000  0.5444660000000 1.0
C      1  0.5153020000000  0.4388760000000  0.4006230000000 1.0
C      1  0.4465960000000  0.4665600000000  0.4006230000000 1.0
C      1  0.4516930000000  0.5404580000000  0.4006240000000 1.0
C      1  0.5235490000000  0.5584460000000  0.4006240000000 1.0
C      1  0.5628620000000  0.4956650000000  0.4006240000000 1.0
C      1  0.5621670000000  0.4761590000000  0.5052230000000 1.0
C      1  0.4965360000000  0.4335080000000  0.5052220000000 1.0
C      1  0.4356930000000  0.4827470000000  0.5052230000000 1.0
C      1  0.4637190000000  0.5558290000000  0.5052230000000 1.0
C      1  0.5418850000000  0.5517570000000  0.5052230000000 1.0
C      1  0.4221010000000  0.5382140000000  0.5815660000000 1.0
C      1  0.5122720000000  0.5858940000000  0.5815670000000 1.0
C      1  0.5854830000000  0.5148710000000  0.5815660000000 1.0
C      1  0.5405590000000  0.4232950000000  0.5815650000000 1.0
C      1  0.4395840000000  0.4377220000000  0.5815650000000 1.0
C      1  0.5238280000000  0.4915010000000  0.4758180000000 1.0
C      1  0.4992800000000  0.4747120000000  0.4758180000000 1.0
C      1  0.4757270000000  0.4928710000000  0.4758180000000 1.0
C      1  0.4857190000000  0.5208820000000  0.4758180000000 1.0
C      1  0.5154460000000  0.5200350000000  0.4758180000000 1.0
C      1  0.3950640000000  0.5301000000000  0.4988460000000 1.0
C      1  0.4962000000000  0.6091010000000  0.4988470000000 1.0
C      1  0.6025870000000  0.5373280000000  0.4988460000000 1.0
C      1  0.5672020000000  0.4139690000000  0.4988450000000 1.0
C      1  0.4389460000000  0.4095020000000  0.4988450000000 1.0
C      1  0.4928600000000  0.3996770000000  0.4674360000000 1.0
C      1  0.4023810000000  0.4757900000000  0.4674360000000 1.0
C      1  0.4468080000000  0.5853600000000  0.4674370000000 1.0
C      1  0.5647450000000  0.5769660000000  0.4674370000000 1.0
C      1  0.5932060000000  0.4622080000000  0.4674360000000 1.0
C      1  0.5914220000000  0.4901110000000  0.4573760000000 1.0
C      1  0.5188460000000  0.4099970000000  0.4573750000000 1.0
C      1  0.4202260000000  0.4542640000000  0.4573750000000 1.0
C      1  0.4318510000000  0.5617370000000  0.4573760000000 1.0
C      1  0.5376560000000  0.5838920000000  0.4573760000000 1.0
C      1  0.4015550000000  0.4490790000000  0.5097290000000 1.0
C      1  0.4211500000000  0.5778910000000  0.5097300000000 1.0
C      1  0.5497130000000  0.5990600000000  0.5097310000000 1.0
C      1  0.6095740000000  0.4833320000000  0.5097300000000 1.0
C      1  0.5180080000000  0.3906380000000  0.5097290000000 1.0
C      1  0.4149720000000  0.5315710000000  0.4188570000000 1.0
C      1  0.5037500000000  0.5906220000000  0.4188580000000 1.0
C      1  0.5873450000000  0.5244380000000  0.4188570000000 1.0
C      1  0.5502330000000  0.4244820000000  0.4188560000000 1.0
C      1  0.4437000000000  0.4288900000000  0.4188560000000 1.0
C      1  0.5666920000000  0.4988060000000  0.4449310000000 1.0
C      1  0.5194730000000  0.4362030000000  0.4449310000000 1.0
C      1  0.4453430000000  0.4617660000000  0.4449310000000 1.0
C      1  0.4467470000000  0.5401680000000  0.4449320000000 1.0
C      1  0.5217450000000  0.5630590000000  0.4449320000000 1.0
C      1  0.4963400000000  0.4729230000000  0.3850590000000 1.0
C      1  0.4731170000000  0.4951150000000  0.3850590000000 1.0
C      1  0.4870450000000  0.5240590000000  0.3850600000000 1.0
C      1  0.5188770000000  0.5197560000000  0.3850600000000 1.0
C      1  0.5246220000000  0.4881520000000  0.3850590000000 1.0
C      1  0.4317650000000  0.5131740000000  0.4401060000000 1.0
C      1  0.4914430000000  0.5689670000000  0.4401060000000 1.0
C      1  0.5629470000000  0.5294510000000  0.4401060000000 1.0
C      1  0.5474610000000  0.4492350000000  0.4401050000000 1.0
C      1  0.4663860000000  0.4391760000000  0.4401050000000 1.0
C      1  0.4484550000000  0.4848570000000  0.4798460000000 1.0
C      1  0.4696700000000  0.5443430000000  0.4798460000000 1.0
C      1  0.5328000000000  0.5425480000000  0.4798460000000 1.0
C      1  0.5506010000000  0.4819540000000  0.4798460000000 1.0
C      1  0.4984740000000  0.4462990000000  0.4798450000000 1.0
C      1  0.4141350000000  0.4854600000000  0.5817560000000 1.0
C      1  0.4596390000000  0.5771680000000  0.5817570000000 1.0
C      1  0.5609200000000  0.5622320000000  0.5817570000000 1.0
C      1  0.5780120000000  0.4612920000000  0.5817560000000 1.0
C      1  0.4872940000000  0.4138440000000  0.5817550000000 1.0
C      1  0.3892250000000  0.4710790000000  0.4943770000000 1.0
C      1  0.4382630000000  0.5964160000000  0.4943790000000 1.0
C      1  0.5726190000000  0.5885090000000  0.4943790000000 1.0
C      1  0.6066180000000  0.4582860000000  0.4943770000000 1.0
C      1  0.4932740000000  0.3857100000000  0.4943770000000 1.0
C      1  0.3790550000000  0.5144740000000  0.5181730000000 1.0
C      1  0.4763920000000  0.6194980000000  0.5181740000000 1.0
C      1  0.6063540000000  0.5593800000000  0.5181740000000 1.0
C      1  0.5893390000000  0.4172000000000  0.5181720000000 1.0
C      1  0.4488600000000  0.3894470000000  0.5181720000000 1.0
C      1  0.5634740000000  0.4644910000000  0.4000020000000 1.0
C      1  0.4858430000000  0.4286600000000  0.4000010000000 1.0
C      1  0.4277760000000  0.4914200000000  0.4000020000000 1.0
C      1  0.4695210000000  0.5660380000000  0.4000020000000 1.0
C      1  0.5533870000000  0.5493950000000  0.4000020000000 1.0
C      1  0.5652340000000  0.4368830000000  0.5645960000000 1.0
C      1  0.4601310000000  0.4184540000000  0.5645950000000 1.0
C      1  0.4101260000000  0.5127180000000  0.5645960000000 1.0
C      1  0.4843240000000  0.5894050000000  0.5645970000000 1.0
C      1  0.5801860000000  0.5425360000000  0.5645970000000 1.0
C      1  0.5735340000000  0.5640890000000  0.4188510000000 1.0
C      1  0.5836750000000  0.4498700000000  0.4188500000000 1.0
C      1  0.4781800000000  0.4049300000000  0.4188500000000 1.0
C      1  0.4028390000000  0.4913750000000  0.4188500000000 1.0
C      1  0.4617720000000  0.5897400000000  0.4188510000000 1.0
C      1  0.4224810000000  0.5296030000000  0.5065120000000 1.0
C      1  0.5042000000000  0.5828730000000  0.5065120000000 1.0
C      1  0.5801150000000  0.5216150000000  0.5065120000000 1.0
C      1  0.5453140000000  0.4304860000000  0.5065110000000 1.0
C      1  0.4478910000000  0.4354230000000  0.5065110000000 1.0
C      1  0.5580540000000  0.5309480000000  0.5475790000000 1.0
C      1  0.5473730000000  0.4543510000000  0.5475780000000 1.0
C      1  0.4712240000000  0.4408390000000  0.5475780000000 1.0
C      1  0.4348430000000  0.5090850000000  0.5475790000000 1.0
C      1  0.4885060000000  0.5647750000000  0.5475790000000 1.0
C      1  0.4868630000000  0.5232920000000  0.4186320000000 1.0
C      1  0.5180910000000  0.5196920000000  0.4186320000000 1.0
C      1  0.5243180000000  0.4888800000000  0.4186320000000 1.0
C      1  0.4969380000000  0.4734360000000  0.4186320000000 1.0
C      1  0.4737900000000  0.4947040000000  0.4186320000000 1.0
C      1  0.5241170000000  0.6089810000000  0.4674270000000 1.0
C      1  0.6110990000000  0.5107410000000  0.4674260000000 1.0
C      1  0.5445470000000  0.3976580000000  0.4674250000000 1.0
C      1  0.4164320000000  0.4260080000000  0.4674250000000 1.0
C      1  0.4038060000000  0.5566130000000  0.4674260000000 1.0
C      1  0.3708110000000  0.4893380000000  0.5069580000000 1.0
C      1  0.4499380000000  0.6195710000000  0.5069590000000 1.0
C      1  0.5982490000000  0.5845610000000  0.5069590000000 1.0
C      1  0.6107830000000  0.4326900000000  0.5069580000000 1.0
C      1  0.4702180000000  0.3738390000000  0.5069570000000 1.0
C      1  0.4956930000000  0.5251090000000  0.6278430000000 1.0
C      1  0.5225500000000  0.5118550000000  0.6278430000000 1.0
C      1  0.5182440000000  0.4822160000000  0.6278430000000 1.0
C      1  0.4887250000000  0.4771520000000  0.6278430000000 1.0
C      1  0.4747870000000  0.5036620000000  0.6278430000000 1.0
C      1  0.5402050000000  0.3824770000000  0.4922940000000 1.0
C      1  0.4006530000000  0.4254460000000  0.4922950000000 1.0
C      1  0.3983950000000  0.5714470000000  0.4922960000000 1.0
C      1  0.5365520000000  0.6187100000000  0.4922970000000 1.0
C      1  0.6241950000000  0.5019200000000  0.4922960000000 1.0
C      1  0.4725020000000  0.4345910000000  0.5194200000000 1.0
C      1  0.4292950000000  0.5059390000000  0.5194200000000 1.0
C      1  0.4837990000000  0.5690800000000  0.5194210000000 1.0
C      1  0.5606930000000  0.5367540000000  0.5194210000000 1.0
C      1  0.5537110000000  0.4536360000000  0.5194200000000 1.0
C      1  0.5418230000000  0.5507410000000  0.6025820000000 1.0
C      1  0.5611820000000  0.4759030000000  0.6025810000000 1.0
C      1  0.4959900000000  0.4343650000000  0.6025800000000 1.0
C      1  0.4363390000000  0.4835310000000  0.6025810000000 1.0
C      1  0.4646660000000  0.5554550000000  0.6025810000000 1.0
C      1  0.5256160000000  0.4395380000000  0.6024750000000 1.0
C      1  0.4504140000000  0.4569530000000  0.6024750000000 1.0
C      1  0.4437380000000  0.5338560000000  0.6024760000000 1.0
C      1  0.5148140000000  0.5639700000000  0.6024760000000 1.0
C      1  0.5654170000000  0.5056780000000  0.6024760000000 1.0
C      1  0.4752300000000  0.5438840000000  0.4352010000000 1.0
C      1  0.5340820000000  0.5371190000000  0.4352010000000 1.0
C      1  0.5458340000000  0.4790570000000  0.4352010000000 1.0
C      1  0.4942450000000  0.4499380000000  0.4352010000000 1.0
C      1  0.4506100000000  0.4900040000000  0.4352010000000 1.0
C      1  0.5159230000000  0.5196460000000  0.5720130000000 1.0
C      1  0.5236050000000  0.4909270000000  0.5720120000000 1.0
C      1  0.4986660000000  0.4747460000000  0.5720120000000 1.0
C      1  0.4755700000000  0.4934640000000  0.5720120000000 1.0
C      1  0.4862360000000  0.5212140000000  0.5720130000000 1.0
END
