TITL C-862501-1041-42 15.3657324192767 125000 -127.457627206798 0 0 24 (C1) n - 1
REM
REM in /home/nfs/bkarasulu/CARBON/AIRSS/Generating-Clusters/TERSOFF/Higher-Symm/FIRE-HFTN
REM
REM
REM
REM
REM
REM ./C.cell (b20cbc046b6831c77cfcea5457e17084)
REM AIRSS Version 0.9.1 bugfix July 2018 build 013d7b7c2542+ Fri, 06 Jul 2018 19:26:36 +0100
REM compiler GCC version 9.2.1 20190827 (Red Hat 9.2.1-1)
REM options -cpp -mtune=generic -march=x86-64 -g -O0 -fpre-include=/usr/include/finclude/math-vector-fortran.h
REM seed -264900735 -1148612463 -280620584 -367112240 745030305 809649478 -50946997 -356633380 1812709566 1709480637 -899987073 866178645 -501418371 -242412014 362245256 1326510295 -1446368330 395321823 -1038551470 -863519634 -974048119 1225050948 -285312602 -1418979099 -1896746008 1603812684 -1413685668 1925069375 -995921421 701550545 -1252469091 -1671939295 -1303278737
REM
CELL 1.54180   50.00000   50.00000   50.00000   90.00000   90.00000   90.00000
LATT -1
SFAC C  
C      1  0.5086760000000  0.4489470000000  0.5142310000000 1.0
C      1  0.5119480000000  0.4974390000000  0.5530890000000 1.0
C      1  0.5131960000000  0.5494200000000  0.5189060000000 1.0
C      1  0.5106970000000  0.5330540000000  0.4589230000000 1.0
C      1  0.5079050000000  0.4709580000000  0.4560330000000 1.0
C      1  0.5356600000000  0.5323090000000  0.5121360000000 1.0
C      1  0.5339740000000  0.5212690000000  0.4716720000000 1.0
C      1  0.5320900000000  0.4793790000000  0.4697220000000 1.0
C      1  0.5326100000000  0.4645300000000  0.5089830000000 1.0
C      1  0.5348180000000  0.4972420000000  0.5351960000000 1.0
C      1  0.4966610000000  0.4497780000000  0.5407690000000 1.0
C      1  0.5004630000000  0.5229460000000  0.5612610000000 1.0
C      1  0.5004170000000  0.5651250000000  0.4979460000000 1.0
C      1  0.4965880000000  0.5180240000000  0.4383230000000 1.0
C      1  0.4942690000000  0.4467360000000  0.4647890000000 1.0
C      1  0.4946280000000  0.4364610000000  0.4919590000000 1.0
C      1  0.4981890000000  0.4724160000000  0.5589100000000 1.0
C      1  0.5010460000000  0.5472130000000  0.5453030000000 1.0
C      1  0.4992490000000  0.5574840000000  0.4699430000000 1.0
C      1  0.4952850000000  0.4890350000000  0.4369730000000 1.0
C      1  0.5004180000000  0.5004040000000  0.5005370000000 1.0
C      1  0.4826720000000  0.4812960000000  0.4879780000000 1.0
C      1  0.4537730000000  0.4828450000000  0.4883960000000 1.0
C      1  0.5324310000000  0.4990070000000  0.4995830000000 1.0
END
