TITL C-862500-986-1436 0.0794076502588905 125000 -553.565023849379 0 0 101 (Ci) n - 1
REM
REM in /home/nfs/bkarasulu/CARBON/AIRSS/Generating-Clusters/TERSOFF/Higher-Symm/FIRE-HFTN
REM
REM
REM
REM
REM
REM ./C.cell (b20cbc046b6831c77cfcea5457e17084)
REM AIRSS Version 0.9.1 bugfix July 2018 build 013d7b7c2542+ Fri, 06 Jul 2018 19:26:36 +0100
REM compiler GCC version 9.2.1 20190827 (Red Hat 9.2.1-1)
REM options -cpp -mtune=generic -march=x86-64 -g -O0 -fpre-include=/usr/include/finclude/math-vector-fortran.h
REM seed -280821201 1673198234 341596710 -1783161690 991537054 1163270622 1539759906 -405085720 -941328168 -888652025 -497948351 -1078315343 1332402748 1936766623 1032048180 -215377947 169847893 1460915836 1688397375 -475963966 1214162189 -1314285234 125848072 577910061 1368301345 -2121646688 514876303 -1321092258 -414080452 1514444211 1165112841 1126491354 -1971018388
REM
CELL 1.54180   50.00000   50.00000   50.00000   90.00000   90.00000   90.00000
LATT -1
SFAC C  
C      1  0.5047000000000  0.5404710000000  0.5187270000000 1.0
C      1  0.4954680000000  0.4602950000000  0.4819280000000 1.0
C      1  0.5409300000000  0.5489180000000  0.4559170000000 1.0
C      1  0.4592380000000  0.4518490000000  0.5447380000000 1.0
C      1  0.5061660000000  0.4747770000000  0.4338180000000 1.0
C      1  0.4940020000000  0.5259890000000  0.5668370000000 1.0
C      1  0.5135000000000  0.5648810000000  0.4848070000000 1.0
C      1  0.4866680000000  0.4358850000000  0.5158480000000 1.0
C      1  0.5076220000000  0.5424210000000  0.5477550000000 1.0
C      1  0.4925460000000  0.4583450000000  0.4529000000000 1.0
C      1  0.5067700000000  0.4194890000000  0.5041040000000 1.0
C      1  0.4933980000000  0.5812770000000  0.4965510000000 1.0
C      1  0.4483630000000  0.5436560000000  0.5420410000000 1.0
C      1  0.5518050000000  0.4571110000000  0.4586140000000 1.0
C      1  0.5595220000000  0.4748350000000  0.5585210000000 1.0
C      1  0.4406460000000  0.5259310000000  0.4421330000000 1.0
C      1  0.4798040000000  0.5584430000000  0.5893130000000 1.0
C      1  0.5203640000000  0.4423230000000  0.4113420000000 1.0
C      1  0.5870890000000  0.4901260000000  0.4385270000000 1.0
C      1  0.4130790000000  0.5106400000000  0.5621280000000 1.0
C      1  0.5251130000000  0.4123300000000  0.4585390000000 1.0
C      1  0.4750550000000  0.5884360000000  0.5421160000000 1.0
C      1  0.4653370000000  0.4515130000000  0.4459950000000 1.0
C      1  0.5348310000000  0.5492530000000  0.5546600000000 1.0
C      1  0.4913820000000  0.4495270000000  0.5441120000000 1.0
C      1  0.5087860000000  0.5512400000000  0.4565430000000 1.0
C      1  0.5321200000000  0.4367400000000  0.4394940000000 1.0
C      1  0.4680480000000  0.5640270000000  0.5611600000000 1.0
C      1  0.5004380000000  0.5298210000000  0.5965470000000 1.0
C      1  0.4997300000000  0.4709450000000  0.4041080000000 1.0
C      1  0.4884810000000  0.5614910000000  0.4357740000000 1.0
C      1  0.5116870000000  0.4392750000000  0.5648810000000 1.0
C      1  0.4660960000000  0.5267300000000  0.4087440000000 1.0
C      1  0.5340720000000  0.4740360000000  0.5919110000000 1.0
C      1  0.4695130000000  0.4824640000000  0.5739930000000 1.0
C      1  0.5306550000000  0.5183020000000  0.4266620000000 1.0
C      1  0.4749220000000  0.4950930000000  0.4146810000000 1.0
C      1  0.5252450000000  0.5056730000000  0.5859740000000 1.0
C      1  0.5190730000000  0.4945090000000  0.5548220000000 1.0
C      1  0.4810950000000  0.5062570000000  0.4458330000000 1.0
C      1  0.5217870000000  0.4170930000000  0.5432520000000 1.0
C      1  0.4783810000000  0.5836730000000  0.4574030000000 1.0
C      1  0.5501050000000  0.5862850000000  0.5290870000000 1.0
C      1  0.4500630000000  0.4144810000000  0.4715680000000 1.0
C      1  0.4246120000000  0.4674550000000  0.4696720000000 1.0
C      1  0.5755560000000  0.5333110000000  0.5309830000000 1.0
C      1  0.5433480000000  0.4499480000000  0.5666320000000 1.0
C      1  0.4568200000000  0.5508180000000  0.4340230000000 1.0
C      1  0.4624710000000  0.5173210000000  0.5322300000000 1.0
C      1  0.5376970000000  0.4834450000000  0.4684240000000 1.0
C      1  0.4547680000000  0.5135560000000  0.4874320000000 1.0
C      1  0.5454000000000  0.4872110000000  0.5132230000000 1.0
C      1  0.5507670000000  0.5562320000000  0.5279100000000 1.0
C      1  0.4494010000000  0.4445340000000  0.4727450000000 1.0
C      1  0.5454680000000  0.4280280000000  0.4789570000000 1.0
C      1  0.4547000000000  0.5727380000000  0.5216980000000 1.0
C      1  0.4206320000000  0.5438800000000  0.4787790000000 1.0
C      1  0.5795350000000  0.4568860000000  0.5218760000000 1.0
C      1  0.4734380000000  0.5091990000000  0.5600120000000 1.0
C      1  0.5267300000000  0.4915680000000  0.4406430000000 1.0
C      1  0.5312810000000  0.5485010000000  0.5044100000000 1.0
C      1  0.4688870000000  0.4522650000000  0.4962440000000 1.0
C      1  0.4448230000000  0.4682440000000  0.5661730000000 1.0
C      1  0.5553450000000  0.5325230000000  0.4344820000000 1.0
C      1  0.5786070000000  0.4634210000000  0.4478170000000 1.0
C      1  0.4215610000000  0.5373450000000  0.5528380000000 1.0
C      1  0.4750650000000  0.3990030000000  0.4687350000000 1.0
C      1  0.5251030000000  0.6017630000000  0.5319200000000 1.0
C      1  0.4118350000000  0.4907560000000  0.4867280000000 1.0
C      1  0.5883330000000  0.5100100000000  0.5139270000000 1.0
C      1  0.4782060000000  0.4906160000000  0.5226820000000 1.0
C      1  0.5219620000000  0.5101500000000  0.4779730000000 1.0
C      1  0.4236290000000  0.4850800000000  0.5518430000000 1.0
C      1  0.5765390000000  0.5156860000000  0.4488120000000 1.0
C      1  0.4296790000000  0.4804990000000  0.5233020000000 1.0
C      1  0.5704890000000  0.5202670000000  0.4773530000000 1.0
C      1  0.4531670000000  0.4717660000000  0.4263660000000 1.0
C      1  0.5470010000000  0.5290010000000  0.5742890000000 1.0
C      1  0.5739920000000  0.4834880000000  0.5077900000000 1.0
C      1  0.4261760000000  0.5172780000000  0.4928650000000 1.0
C      1  0.4982640000000  0.5923250000000  0.5233650000000 1.0
C      1  0.5019040000000  0.4084410000000  0.4772900000000 1.0
C      1  0.4792910000000  0.5279520000000  0.5038990000000 1.0
C      1  0.5208770000000  0.4728140000000  0.4967560000000 1.0
C      1  0.4940350000000  0.4649070000000  0.5830980000000 1.0
C      1  0.5061330000000  0.5358590000000  0.4175560000000 1.0
C      1  0.4549460000000  0.5069680000000  0.4589260000000 1.0
C      1  0.5452220000000  0.4937990000000  0.5417290000000 1.0
C      1  0.6065870000000  0.4465620000000  0.5241410000000 1.0
C      1  0.3935810000000  0.5542040000000  0.4765140000000 1.0
C      1  0.4388530000000  0.4839950000000  0.4493550000000 1.0
C      1  0.5613150000000  0.5167710000000  0.5513000000000 1.0
C      1  0.5430220000000  0.5314190000000  0.4827830000000 1.0
C      1  0.4571460000000  0.4693470000000  0.5178710000000 1.0
C      1  0.4630530000000  0.5764130000000  0.4868620000000 1.0
C      1  0.5371150000000  0.4243540000000  0.5137930000000 1.0
C      1  0.4445430000000  0.5594470000000  0.4670440000000 1.0
C      1  0.5556250000000  0.4413190000000  0.5336110000000 1.0
C      1  0.5036800000000  0.5217060000000  0.4586210000000 1.0
C      1  0.4964880000000  0.4790600000000  0.5420340000000 1.0
C      1  0.5000840000000  0.5003830000000  0.5003270000000 1.0
END
