TITL C-862502-1143-176 2.51911527846352e-05 125000 -442.138238287957 0 0 75 (C3) n - 1
REM
REM in /home/nfs/bkarasulu/CARBON/AIRSS/Generating-Clusters/TERSOFF/Higher-Symm/FIRE-HFTN
REM
REM
REM
REM
REM
REM ./C.cell (b20cbc046b6831c77cfcea5457e17084)
REM AIRSS Version 0.9.1 bugfix July 2018 build 013d7b7c2542+ Fri, 06 Jul 2018 19:26:36 +0100
REM compiler GCC version 9.2.1 20190827 (Red Hat 9.2.1-1)
REM options -cpp -mtune=generic -march=x86-64 -g -O0 -fpre-include=/usr/include/finclude/math-vector-fortran.h
REM seed -1434780937 -1144563081 1441713481 115573174 -22933318 -1813005461 748068897 1349873977 -1650448775 219102172 -1865474641 -2049810100 1444872862 -1917075664 -226622642 -671010097 -1478557098 973578991 -1030604576 -1053496430 -1945336164 954810248 468749172 -1868053017 259921551 1407424714 -612964670 797320586 85892300 -1486944959 1363555496 1131604348 847801521
REM
CELL 1.54180   50.00000   50.00000   50.00000   90.00000   90.00000   90.00000
LATT -1
SFAC C  
C      1  0.4659720000000  0.4995580000000  0.4106890000000 1.0
C      1  0.5943600000000  0.4995580000000  0.5151860000000 1.0
C      1  0.4396680000000  0.4995580000000  0.5741250000000 1.0
C      1  0.5009940000000  0.4681170000000  0.5207840000000 1.0
C      1  0.4815040000000  0.4681160000000  0.4904690000000 1.0
C      1  0.5175030000000  0.4681170000000  0.4887470000000 1.0
C      1  0.4509010000000  0.5375890000000  0.4341220000000 1.0
C      1  0.5816020000000  0.5375900000000  0.4904180000000 1.0
C      1  0.4674970000000  0.5375900000000  0.5754600000000 1.0
C      1  0.4235210000000  0.4857810000000  0.4742220000000 1.0
C      1  0.5605640000000  0.4857810000000  0.4466560000000 1.0
C      1  0.5159150000000  0.4857810000000  0.5791220000000 1.0
C      1  0.4403090000000  0.4539150000000  0.4738770000000 1.0
C      1  0.5524690000000  0.4539150000000  0.4613680000000 1.0
C      1  0.5072220000000  0.4539150000000  0.5647560000000 1.0
C      1  0.4886940000000  0.4582780000000  0.4426300000000 1.0
C      1  0.5553370000000  0.4582780000000  0.5188940000000 1.0
C      1  0.4559690000000  0.4582780000000  0.5384770000000 1.0
C      1  0.4792940000000  0.5588790000000  0.4672800000000 1.0
C      1  0.5386890000000  0.5588790000000  0.4984280000000 1.0
C      1  0.4820170000000  0.5588790000000  0.5342920000000 1.0
C      1  0.4312750000000  0.5311440000000  0.5050750000000 1.0
C      1  0.5299670000000  0.5311440000000  0.4379450000000 1.0
C      1  0.5387570000000  0.5311440000000  0.5569800000000 1.0
C      1  0.5275020000000  0.4997580000000  0.5314700000000 1.0
C      1  0.4589950000000  0.4997580000000  0.5080820000000 1.0
C      1  0.5135030000000  0.4997580000000  0.4604480000000 1.0
C      1  0.5863150000000  0.5088990000000  0.4887240000000 1.0
C      1  0.4666080000000  0.5088990000000  0.5803890000000 1.0
C      1  0.4470770000000  0.5088990000000  0.4308870000000 1.0
C      1  0.5459570000000  0.5060550000000  0.4294510000000 1.0
C      1  0.5381190000000  0.5060550000000  0.5750750000000 1.0
C      1  0.4159240000000  0.5060550000000  0.4954740000000 1.0
C      1  0.4742910000000  0.4621380000000  0.5627720000000 1.0
C      1  0.4584920000000  0.4621380000000  0.4463490000000 1.0
C      1  0.5672170000000  0.4621380000000  0.4908790000000 1.0
C      1  0.5635580000000  0.5486190000000  0.5108910000000 1.0
C      1  0.4587890000000  0.5486190000000  0.5495970000000 1.0
C      1  0.4776530000000  0.5486190000000  0.4395110000000 1.0
C      1  0.4939190000000  0.5031130000000  0.4176620000000 1.0
C      1  0.5743470000000  0.5031130000000  0.5359030000000 1.0
C      1  0.4317340000000  0.5031130000000  0.5464350000000 1.0
C      1  0.4892430000000  0.5383890000000  0.5159260000000 1.0
C      1  0.4915860000000  0.5383880000000  0.4827210000000 1.0
C      1  0.5191710000000  0.5383890000000  0.5013530000000 1.0
C      1  0.5246260000000  0.5563190000000  0.5647680000000 1.0
C      1  0.4315960000000  0.5563180000000  0.4889430000000 1.0
C      1  0.5437780000000  0.5563190000000  0.4462890000000 1.0
C      1  0.5101840000000  0.4426060000000  0.5357660000000 1.0
C      1  0.4639340000000  0.4426060000000  0.4909370000000 1.0
C      1  0.5258820000000  0.4426060000000  0.4732970000000 1.0
C      1  0.4899420000000  0.5119220000000  0.4715300000000 1.0
C      1  0.5296850000000  0.5119220000000  0.5055250000000 1.0
C      1  0.4803730000000  0.5119220000000  0.5229460000000 1.0
C      1  0.5362110000000  0.4358060000000  0.5221140000000 1.0
C      1  0.4627430000000  0.4358060000000  0.5203020000000 1.0
C      1  0.5010460000000  0.4358060000000  0.4575840000000 1.0
C      1  0.4872120000000  0.4907120000000  0.5677500000000 1.0
C      1  0.4477210000000  0.4907120000000  0.4550500000000 1.0
C      1  0.5650670000000  0.4907120000000  0.4772000000000 1.0
C      1  0.5341260000000  0.4940000000000  0.4827710000000 1.0
C      1  0.4978580000000  0.4940000000000  0.5381680000000 1.0
C      1  0.4680160000000  0.4940000000000  0.4790610000000 1.0
C      1  0.4556310000000  0.5712070000000  0.4796930000000 1.0
C      1  0.5397710000000  0.5712070000000  0.4717290000000 1.0
C      1  0.5045970000000  0.5712070000000  0.5485780000000 1.0
C      1  0.5615730000000  0.5308070000000  0.5367910000000 1.0
C      1  0.4373520000000  0.5308070000000  0.5349280000000 1.0
C      1  0.5010750000000  0.5308070000000  0.4282810000000 1.0
C      1  0.4424240000000  0.4826210000000  0.5269490000000 1.0
C      1  0.5054500000000  0.4826220000000  0.4366630000000 1.0
C      1  0.5521270000000  0.4826220000000  0.5363880000000 1.0
C      1  0.4876860000000  0.4237700000000  0.5299450000000 1.0
C      1  0.4802240000000  0.4237700000000  0.4743630000000 1.0
C      1  0.5320910000000  0.4237700000000  0.4956920000000 1.0
END
