TITL C-862500-986-882 3.01165722341053e-05 125000 -514.70107948166 0 0 98 (C1) n - 1
REM
REM in /home/nfs/bkarasulu/CARBON/AIRSS/Generating-Clusters/TERSOFF/Higher-Symm/FIRE-HFTN
REM
REM
REM
REM
REM
REM ./C.cell (b20cbc046b6831c77cfcea5457e17084)
REM AIRSS Version 0.9.1 bugfix July 2018 build 013d7b7c2542+ Fri, 06 Jul 2018 19:26:36 +0100
REM compiler GCC version 9.2.1 20190827 (Red Hat 9.2.1-1)
REM options -cpp -mtune=generic -march=x86-64 -g -O0 -fpre-include=/usr/include/finclude/math-vector-fortran.h
REM seed -711964041 -1138664714 1611342748 -1763551485 -1731556172 -62324820 -1241766739 -797623227 344229772 1505518952 -326391702 -1249234863 1914486843 775320891 1235113157 -1147612840 311654220 -695084753 772395323 -1200899335 -274016155 -2041031039 1050752342 1340925134 281084084 639851351 -1163387743 1648993020 1351857364 -770596285 1062214667 -1404226406 503532876
REM
CELL 1.54180   50.00000   50.00000   50.00000   90.00000   90.00000   90.00000
LATT -1
SFAC C  
C      1  0.4468630000000  0.4623000000000  0.5501540000000 1.0
C      1  0.4282710000000  0.4631740000000  0.4907000000000 1.0
C      1  0.4630550000000  0.4640940000000  0.4377100000000 1.0
C      1  0.5278370000000  0.4631950000000  0.4316430000000 1.0
C      1  0.5707160000000  0.4621580000000  0.4799670000000 1.0
C      1  0.5609030000000  0.4623370000000  0.5422210000000 1.0
C      1  0.5051260000000  0.4627870000000  0.5722710000000 1.0
C      1  0.4714320000000  0.5022590000000  0.4747400000000 1.0
C      1  0.5049320000000  0.5022170000000  0.4634820000000 1.0
C      1  0.5349070000000  0.5000450000000  0.4807560000000 1.0
C      1  0.5406400000000  0.4983880000000  0.5140210000000 1.0
C      1  0.5135080000000  0.5004710000000  0.5371790000000 1.0
C      1  0.4775540000000  0.4977890000000  0.5364810000000 1.0
C      1  0.4585860000000  0.4993980000000  0.5079270000000 1.0
C      1  0.4669750000000  0.4282990000000  0.4842010000000 1.0
C      1  0.4921960000000  0.4298170000000  0.4648810000000 1.0
C      1  0.5233500000000  0.4294020000000  0.4724430000000 1.0
C      1  0.5369320000000  0.4277240000000  0.5016100000000 1.0
C      1  0.5225630000000  0.4277640000000  0.5300730000000 1.0
C      1  0.4911850000000  0.4277850000000  0.5366130000000 1.0
C      1  0.4663580000000  0.4268310000000  0.5160680000000 1.0
C      1  0.5332470000000  0.5163590000000  0.4195670000000 1.0
C      1  0.5852650000000  0.5154410000000  0.4756430000000 1.0
C      1  0.5733650000000  0.5155590000000  0.5509670000000 1.0
C      1  0.5059340000000  0.5159270000000  0.5873860000000 1.0
C      1  0.4348480000000  0.5157330000000  0.5608850000000 1.0
C      1  0.4116890000000  0.5156640000000  0.4873910000000 1.0
C      1  0.4571080000000  0.5167190000000  0.4245080000000 1.0
C      1  0.5088580000000  0.5285340000000  0.5243570000000 1.0
C      1  0.4810880000000  0.5363980000000  0.5206160000000 1.0
C      1  0.4667370000000  0.5383730000000  0.4956620000000 1.0
C      1  0.4766560000000  0.5435470000000  0.4692410000000 1.0
C      1  0.5041550000000  0.5441210000000  0.4607910000000 1.0
C      1  0.5278210000000  0.5412400000000  0.4772190000000 1.0
C      1  0.5296490000000  0.5379990000000  0.5058590000000 1.0
C      1  0.4124170000000  0.4845510000000  0.4774080000000 1.0
C      1  0.4624880000000  0.4856970000000  0.4174760000000 1.0
C      1  0.5423080000000  0.4850990000000  0.4179860000000 1.0
C      1  0.5904420000000  0.4839480000000  0.4842620000000 1.0
C      1  0.5693430000000  0.4840130000000  0.5606510000000 1.0
C      1  0.4964190000000  0.4845370000000  0.5905280000000 1.0
C      1  0.4266460000000  0.4839600000000  0.5542070000000 1.0
C      1  0.5340850000000  0.4672700000000  0.5219220000000 1.0
C      1  0.5058100000000  0.4670490000000  0.5389420000000 1.0
C      1  0.4737740000000  0.4661960000000  0.5283970000000 1.0
C      1  0.4612980000000  0.4679850000000  0.4965460000000 1.0
C      1  0.4789470000000  0.4695840000000  0.4671380000000 1.0
C      1  0.5135230000000  0.4689750000000  0.4625290000000 1.0
C      1  0.5374050000000  0.4669010000000  0.4866800000000 1.0
C      1  0.5593280000000  0.4967340000000  0.4591240000000 1.0
C      1  0.5720080000000  0.4965730000000  0.5206750000000 1.0
C      1  0.5289940000000  0.4968920000000  0.5670890000000 1.0
C      1  0.4649330000000  0.4968560000000  0.5656220000000 1.0
C      1  0.4270640000000  0.4976640000000  0.5145170000000 1.0
C      1  0.4456380000000  0.4987330000000  0.4536700000000 1.0
C      1  0.5042740000000  0.4978660000000  0.4304090000000 1.0
C      1  0.5810900000000  0.4615860000000  0.5205620000000 1.0
C      1  0.5345850000000  0.4620580000000  0.5748260000000 1.0
C      1  0.4633030000000  0.4620020000000  0.5750370000000 1.0
C      1  0.4190290000000  0.4626300000000  0.5188400000000 1.0
C      1  0.4362710000000  0.4640090000000  0.4496080000000 1.0
C      1  0.5010100000000  0.4634490000000  0.4200080000000 1.0
C      1  0.5649580000000  0.4620340000000  0.4510680000000 1.0
C      1  0.4591820000000  0.5418370000000  0.5658130000000 1.0
C      1  0.4190940000000  0.5407740000000  0.5099180000000 1.0
C      1  0.4408370000000  0.5415180000000  0.4418590000000 1.0
C      1  0.5086970000000  0.5426410000000  0.4173900000000 1.0
C      1  0.5699450000000  0.5412750000000  0.4557820000000 1.0
C      1  0.5751470000000  0.5416150000000  0.5261530000000 1.0
C      1  0.5252560000000  0.5399160000000  0.5715470000000 1.0
C      1  0.4844120000000  0.4414730000000  0.4364330000000 1.0
C      1  0.5412710000000  0.4407030000000  0.4485790000000 1.0
C      1  0.5671100000000  0.4390780000000  0.5007430000000 1.0
C      1  0.5420270000000  0.4394930000000  0.5524070000000 1.0
C      1  0.4856300000000  0.4395190000000  0.5659540000000 1.0
C      1  0.4401240000000  0.4389310000000  0.5302730000000 1.0
C      1  0.4398350000000  0.4403740000000  0.4728300000000 1.0
C      1  0.5865290000000  0.5195610000000  0.5061720000000 1.0
C      1  0.5499460000000  0.5199460000000  0.5704400000000 1.0
C      1  0.4760270000000  0.5202770000000  0.5821430000000 1.0
C      1  0.4194100000000  0.5202600000000  0.5343710000000 1.0
C      1  0.4245090000000  0.5205300000000  0.4594310000000 1.0
C      1  0.4871420000000  0.5196870000000  0.4183560000000 1.0
C      1  0.5577810000000  0.5186070000000  0.4380200000000 1.0
C      1  0.4439700000000  0.5565390000000  0.5026330000000 1.0
C      1  0.4582320000000  0.5638740000000  0.4549140000000 1.0
C      1  0.5081650000000  0.5657560000000  0.4385740000000 1.0
C      1  0.5500310000000  0.5607540000000  0.4687480000000 1.0
C      1  0.5495380000000  0.5555970000000  0.5181520000000 1.0
C      1  0.5148540000000  0.5493650000000  0.5455400000000 1.0
C      1  0.4710040000000  0.5539280000000  0.5412180000000 1.0
C      1  0.4744460000000  0.5849470000000  0.4758950000000 1.0
C      1  0.5044970000000  0.5857220000000  0.4663940000000 1.0
C      1  0.5308510000000  0.5835760000000  0.4832740000000 1.0
C      1  0.5337480000000  0.5833410000000  0.5148460000000 1.0
C      1  0.5108590000000  0.5781660000000  0.5361970000000 1.0
C      1  0.4794580000000  0.5828890000000  0.5327080000000 1.0
C      1  0.4627350000000  0.5828300000000  0.5053290000000 1.0
END
