TITL C-862127-1500-621 2.25668981120551e-05 125000 -254.533357860945 0 0 48 (Ci) n - 1
REM
REM in /home/nfs/bkarasulu/CARBON/AIRSS/Generating-Clusters/TERSOFF/Higher-Symm/FIRE-HFTN
REM
REM
REM
REM
REM
REM ./C.cell (b20cbc046b6831c77cfcea5457e17084)
REM AIRSS Version 0.9.1 bugfix July 2018 build 013d7b7c2542+ Fri, 06 Jul 2018 19:26:36 +0100
REM compiler GCC version 9.2.1 20190827 (Red Hat 9.2.1-1)
REM options -cpp -mtune=generic -march=x86-64 -g -O0 -fpre-include=/usr/include/finclude/math-vector-fortran.h
REM seed 1889638800 1931886466 -1629394742 1907614460 -754634253 -1491092053 -36236381 1338372227 -1052279671 556451656 286021211 1579029035 934140697 582371485 -1670900218 -739291105 -1581376620 -319745133 2142680528 965353765 -600558001 -1495407303 -1318479240 -829136151 -1149349556 -609043509 -2010275069 -1136301153 -2074263846 889976244 -2019696749 1669639251 -1003834740
REM
CELL 1.54180   50.00000   50.00000   50.00000   90.00000   90.00000   90.00000
LATT -1
SFAC C  
C      1  0.4824010000000  0.5628940000000  0.5594890000000 1.0
C      1  0.4855530000000  0.5593240000000  0.4395540000000 1.0
C      1  0.4878670000000  0.4387520000000  0.4420250000000 1.0
C      1  0.4847660000000  0.4412000000000  0.5644440000000 1.0
C      1  0.5120440000000  0.5620150000000  0.5589640000000 1.0
C      1  0.5151450000000  0.5595670000000  0.4365460000000 1.0
C      1  0.5175090000000  0.4378730000000  0.4415010000000 1.0
C      1  0.5143580000000  0.4414430000000  0.5614360000000 1.0
C      1  0.5142290000000  0.4779140000000  0.4880910000000 1.0
C      1  0.5166280000000  0.4905150000000  0.5303760000000 1.0
C      1  0.5107870000000  0.5360990000000  0.5034380000000 1.0
C      1  0.5062550000000  0.5056360000000  0.4533530000000 1.0
C      1  0.4891240000000  0.4646680000000  0.4975520000000 1.0
C      1  0.4936560000000  0.4951320000000  0.5476360000000 1.0
C      1  0.4856810000000  0.5228530000000  0.5128990000000 1.0
C      1  0.4832820000000  0.5102520000000  0.4706140000000 1.0
C      1  0.5298190000000  0.5585340000000  0.4631780000000 1.0
C      1  0.5293220000000  0.4655570000000  0.4392820000000 1.0
C      1  0.5212460000000  0.4436380000000  0.5323060000000 1.0
C      1  0.5221770000000  0.5336650000000  0.5602510000000 1.0
C      1  0.4786650000000  0.5571290000000  0.4686840000000 1.0
C      1  0.4777330000000  0.4671020000000  0.4407380000000 1.0
C      1  0.4700910000000  0.4422330000000  0.5378120000000 1.0
C      1  0.4705880000000  0.5352110000000  0.5617070000000 1.0
C      1  0.5422640000000  0.5387450000000  0.5127490000000 1.0
C      1  0.5343810000000  0.5079560000000  0.4633200000000 1.0
C      1  0.5412870000000  0.4615180000000  0.4889140000000 1.0
C      1  0.5467480000000  0.4887650000000  0.5400660000000 1.0
C      1  0.4586240000000  0.5392490000000  0.5120760000000 1.0
C      1  0.4531620000000  0.5120030000000  0.4609240000000 1.0
C      1  0.4576470000000  0.4620230000000  0.4882400000000 1.0
C      1  0.4655300000000  0.4928110000000  0.5376700000000 1.0
C      1  0.5419590000000  0.5226450000000  0.5398630000000 1.0
C      1  0.5439240000000  0.5340180000000  0.4769880000000 1.0
C      1  0.5471950000000  0.4786820000000  0.4621380000000 1.0
C      1  0.5440050000000  0.4600640000000  0.5212820000000 1.0
C      1  0.4527150000000  0.5220850000000  0.5388520000000 1.0
C      1  0.4559050000000  0.5407030000000  0.4797070000000 1.0
C      1  0.4579520000000  0.4781220000000  0.4611270000000 1.0
C      1  0.4559870000000  0.4667490000000  0.5240020000000 1.0
C      1  0.4941410000000  0.4452150000000  0.5191820000000 1.0
C      1  0.5057690000000  0.5555530000000  0.4818080000000 1.0
C      1  0.4963290000000  0.5180750000000  0.5649960000000 1.0
C      1  0.5035820000000  0.4826920000000  0.4359930000000 1.0
C      1  0.4469100000000  0.5005650000000  0.5008390000000 1.0
C      1  0.5530010000000  0.5002020000000  0.5001510000000 1.0
C      1  0.5216460000000  0.5035340000000  0.5030450000000 1.0
C      1  0.4782650000000  0.4972330000000  0.4979440000000 1.0
END
