TITL C-862131-2149-1232 21.8549984470268 125000 -1088.78715013321 0 0 190 (C5) n - 1
REM
REM in /home/nfs/bkarasulu/CARBON/AIRSS/Generating-Clusters/TERSOFF/Higher-Symm/FIRE-HFTN
REM
REM
REM
REM
REM
REM ./C.cell (b20cbc046b6831c77cfcea5457e17084)
REM AIRSS Version 0.9.1 bugfix July 2018 build 013d7b7c2542+ Fri, 06 Jul 2018 19:26:36 +0100
REM compiler GCC version 9.2.1 20190827 (Red Hat 9.2.1-1)
REM options -cpp -mtune=generic -march=x86-64 -g -O0 -fpre-include=/usr/include/finclude/math-vector-fortran.h
REM seed -1523753918 -2021179958 -434118360 -170366361 1460987925 245306126 -1159141273 1982014010 -1239946012 -1623983489 774657008 -885868153 1248270227 -1266203531 222075166 1683792061 585202799 -1852047147 1478940990 956840321 1542825093 98500183 1419612636 470178743 697862632 645891567 707593342 -1750153464 812401173 1126428642 429267701 359309363 1645332582
REM
CELL 1.54180   50.00000   50.00000   50.00000   90.00000   90.00000   90.00000
LATT -1
SFAC C  
C      1  0.5813770000000  0.4398810000000  0.5287220000000 1.0
C      1  0.4679710000000  0.4040270000000  0.5287210000000 1.0
C      1  0.3988270000000  0.5008040000000  0.5287230000000 1.0
C      1  0.4695010000000  0.5964690000000  0.5287250000000 1.0
C      1  0.5823230000000  0.5588170000000  0.5287250000000 1.0
C      1  0.5816130000000  0.5581440000000  0.4728990000000 1.0
C      1  0.4699220000000  0.5955860000000  0.4729000000000 1.0
C      1  0.3997980000000  0.5009320000000  0.4728980000000 1.0
C      1  0.4681500000000  0.4049910000000  0.4728960000000 1.0
C      1  0.5805170000000  0.4403500000000  0.4728970000000 1.0
C      1  0.5359930000000  0.4385380000000  0.5280330000000 1.0
C      1  0.4526690000000  0.4467760000000  0.5280330000000 1.0
C      1  0.4347550000000  0.5285670000000  0.5280340000000 1.0
C      1  0.5070070000000  0.5708790000000  0.5280350000000 1.0
C      1  0.5695750000000  0.5152380000000  0.5280350000000 1.0
C      1  0.5355810000000  0.5673110000000  0.4739150000000 1.0
C      1  0.4469800000000  0.5546400000000  0.4739140000000 1.0
C      1  0.4316500000000  0.4664600000000  0.4739120000000 1.0
C      1  0.5107780000000  0.4246310000000  0.4739120000000 1.0
C      1  0.5750110000000  0.4869610000000  0.4739130000000 1.0
C      1  0.6159000000000  0.4910460000000  0.4073570000000 1.0
C      1  0.5272980000000  0.3870070000000  0.4073550000000 1.0
C      1  0.4009710000000  0.4391230000000  0.4073560000000 1.0
C      1  0.4114990000000  0.5753720000000  0.4073580000000 1.0
C      1  0.5443330000000  0.6074620000000  0.4073590000000 1.0
C      1  0.6198170000000  0.5107530000000  0.5869100000000 1.0
C      1  0.5267970000000  0.6172750000000  0.5869120000000 1.0
C      1  0.3967440000000  0.5617250000000  0.5869100000000 1.0
C      1  0.4093870000000  0.4208710000000  0.5869080000000 1.0
C      1  0.5472530000000  0.3893690000000  0.5869070000000 1.0
C      1  0.4797440000000  0.4515080000000  0.4551480000000 1.0
C      1  0.4476210000000  0.5042800000000  0.4551490000000 1.0
C      1  0.4878840000000  0.5511390000000  0.4551500000000 1.0
C      1  0.5448910000000  0.5273260000000  0.4551500000000 1.0
C      1  0.5398600000000  0.4657510000000  0.4551490000000 1.0
C      1  0.4773870000000  0.5474540000000  0.5484340000000 1.0
C      1  0.4478800000000  0.4931570000000  0.5484330000000 1.0
C      1  0.4904010000000  0.4483160000000  0.5484320000000 1.0
C      1  0.5461870000000  0.4748990000000  0.5484330000000 1.0
C      1  0.5381440000000  0.5361690000000  0.5484340000000 1.0
C      1  0.4225270000000  0.5586920000000  0.4283560000000 1.0
C      1  0.5318770000000  0.5918190000000  0.4283570000000 1.0
C      1  0.5971750000000  0.4980580000000  0.4283550000000 1.0
C      1  0.5281800000000  0.4069820000000  0.4283530000000 1.0
C      1  0.4202420000000  0.4444560000000  0.4283540000000 1.0
C      1  0.4232800000000  0.4393740000000  0.5694430000000 1.0
C      1  0.5339490000000  0.4083000000000  0.5694430000000 1.0
C      1  0.5977020000000  0.5039500000000  0.5694450000000 1.0
C      1  0.5264330000000  0.5941400000000  0.5694460000000 1.0
C      1  0.4186350000000  0.5542300000000  0.5694450000000 1.0
C      1  0.5889210000000  0.5245080000000  0.4328940000000 1.0
C      1  0.5507860000000  0.4230060000000  0.4328920000000 1.0
C      1  0.4424660000000  0.4279090000000  0.4328920000000 1.0
C      1  0.4136570000000  0.5324410000000  0.4328940000000 1.0
C      1  0.5041710000000  0.5921430000000  0.4328950000000 1.0
C      1  0.5889590000000  0.4775620000000  0.5657810000000 1.0
C      1  0.5488290000000  0.5776700000000  0.5657830000000 1.0
C      1  0.4412190000000  0.5704400000000  0.5657830000000 1.0
C      1  0.4148420000000  0.4658620000000  0.5657810000000 1.0
C      1  0.5061510000000  0.4084600000000  0.5657800000000 1.0
C      1  0.5158600000000  0.3853070000000  0.4876610000000 1.0
C      1  0.3958210000000  0.4494740000000  0.4876620000000 1.0
C      1  0.4197540000000  0.5834670000000  0.4876650000000 1.0
C      1  0.5545840000000  0.6021110000000  0.4876650000000 1.0
C      1  0.6139810000000  0.4796420000000  0.4876630000000 1.0
C      1  0.5188710000000  0.6065420000000  0.5093110000000 1.0
C      1  0.4045030000000  0.5508700000000  0.5093090000000 1.0
C      1  0.4221090000000  0.4248970000000  0.5093070000000 1.0
C      1  0.5473580000000  0.4027130000000  0.5093070000000 1.0
C      1  0.6071590000000  0.5149760000000  0.5093090000000 1.0
C      1  0.5506510000000  0.5576950000000  0.5011960000000 1.0
C      1  0.5705230000000  0.4696570000000  0.5011940000000 1.0
C      1  0.4929350000000  0.4235520000000  0.5011930000000 1.0
C      1  0.4251100000000  0.4830960000000  0.5011940000000 1.0
C      1  0.4607810000000  0.5660010000000  0.5011950000000 1.0
C      1  0.5503010000000  0.4465550000000  0.5013090000000 1.0
C      1  0.5663730000000  0.5313240000000  0.5013110000000 1.0
C      1  0.4907200000000  0.5728040000000  0.5013120000000 1.0
C      1  0.4278910000000  0.5136720000000  0.5013100000000 1.0
C      1  0.4647140000000  0.4356450000000  0.5013090000000 1.0
C      1  0.5356110000000  0.4978140000000  0.4835560000000 1.0
C      1  0.5089250000000  0.4654560000000  0.4835550000000 1.0
C      1  0.4699050000000  0.4808380000000  0.4835550000000 1.0
C      1  0.4724750000000  0.5227010000000  0.4835560000000 1.0
C      1  0.5130840000000  0.5331930000000  0.4835560000000 1.0
C      1  0.5334920000000  0.4876850000000  0.5093560000000 1.0
C      1  0.5220620000000  0.5280470000000  0.5093570000000 1.0
C      1  0.4801430000000  0.5296490000000  0.5093570000000 1.0
C      1  0.4656660000000  0.4902770000000  0.5093560000000 1.0
C      1  0.4986370000000  0.4643410000000  0.5093560000000 1.0
C      1  0.4795100000000  0.5392340000000  0.5895650000000 1.0
C      1  0.5309830000000  0.5316090000000  0.5895650000000 1.0
C      1  0.5396380000000  0.4803000000000  0.5895640000000 1.0
C      1  0.4935140000000  0.4562130000000  0.5895630000000 1.0
C      1  0.4563530000000  0.4926360000000  0.5895640000000 1.0
C      1  0.4815920000000  0.4600220000000  0.4135080000000 1.0
C      1  0.5323350000000  0.4701400000000  0.4135080000000 1.0
C      1  0.5383930000000  0.5215260000000  0.4135090000000 1.0
C      1  0.4913940000000  0.5431660000000  0.4135100000000 1.0
C      1  0.4562890000000  0.5051550000000  0.4135090000000 1.0
C      1  0.4657490000000  0.5666410000000  0.5839360000000 1.0
C      1  0.5527960000000  0.5531670000000  0.5839360000000 1.0
C      1  0.5668810000000  0.4662160000000  0.5839340000000 1.0
C      1  0.4885380000000  0.4259510000000  0.5839330000000 1.0
C      1  0.4260350000000  0.4880180000000  0.5839340000000 1.0
C      1  0.4682830000000  0.4324410000000  0.4174710000000 1.0
C      1  0.5544530000000  0.4489590000000  0.4174720000000 1.0
C      1  0.5653720000000  0.5360160000000  0.4174730000000 1.0
C      1  0.4859490000000  0.5733020000000  0.4174740000000 1.0
C      1  0.4259450000000  0.5092900000000  0.4174720000000 1.0
C      1  0.4198870000000  0.5787020000000  0.5198470000000 1.0
C      1  0.5500940000000  0.6005120000000  0.5198480000000 1.0
C      1  0.6110730000000  0.4834170000000  0.5198460000000 1.0
C      1  0.5185530000000  0.3892380000000  0.5198440000000 1.0
C      1  0.4003930000000  0.4481280000000  0.5198450000000 1.0
C      1  0.4188140000000  0.4234760000000  0.4780790000000 1.0
C      1  0.5476910000000  0.3991400000000  0.4780790000000 1.0
C      1  0.6106610000000  0.5141900000000  0.4780810000000 1.0
C      1  0.5207010000000  0.6096310000000  0.4780830000000 1.0
C      1  0.4021330000000  0.5535660000000  0.4780810000000 1.0
C      1  0.5232900000000  0.5140430000000  0.4386330000000 1.0
C      1  0.5205520000000  0.4821900000000  0.4386320000000 1.0
C      1  0.4894120000000  0.4749520000000  0.4386320000000 1.0
C      1  0.4729050000000  0.5023310000000  0.4386320000000 1.0
C      1  0.4938430000000  0.5264910000000  0.4386330000000 1.0
C      1  0.5237870000000  0.4872960000000  0.5646790000000 1.0
C      1  0.5194310000000  0.5186970000000  0.5646790000000 1.0
C      1  0.4882220000000  0.5242570000000  0.5646790000000 1.0
C      1  0.4732890000000  0.4962930000000  0.5646790000000 1.0
C      1  0.4952700000000  0.4734500000000  0.5646790000000 1.0
C      1  0.3894790000000  0.5301330000000  0.5246930000000 1.0
C      1  0.4945060000000  0.6144230000000  0.5246950000000 1.0
C      1  0.6071250000000  0.5405840000000  0.5246940000000 1.0
C      1  0.5717010000000  0.4106590000000  0.5246910000000 1.0
C      1  0.4371890000000  0.4042000000000  0.5246910000000 1.0
C      1  0.3861940000000  0.4738200000000  0.4725320000000 1.0
C      1  0.4897310000000  0.3836740000000  0.4725300000000 1.0
C      1  0.6074600000000  0.4542870000000  0.4725320000000 1.0
C      1  0.5766830000000  0.5880740000000  0.4725340000000 1.0
C      1  0.4399330000000  0.6001460000000  0.4725340000000 1.0
C      1  0.5618750000000  0.4196380000000  0.4601090000000 1.0
C      1  0.4426910000000  0.4163210000000  0.4601090000000 1.0
C      1  0.4027070000000  0.5286460000000  0.4601110000000 1.0
C      1  0.4971780000000  0.6013840000000  0.4601130000000 1.0
C      1  0.5955500000000  0.5340140000000  0.4601120000000 1.0
C      1  0.5609210000000  0.5792080000000  0.5385270000000 1.0
C      1  0.4434940000000  0.5824150000000  0.5385270000000 1.0
C      1  0.4041560000000  0.4717270000000  0.5385250000000 1.0
C      1  0.4972710000000  0.4001100000000  0.5385240000000 1.0
C      1  0.5941570000000  0.4665370000000  0.5385250000000 1.0
C      1  0.4807190000000  0.4102990000000  0.4331760000000 1.0
C      1  0.4087300000000  0.4906200000000  0.4331770000000 1.0
C      1  0.4628740000000  0.5839050000000  0.4331790000000 1.0
C      1  0.5683250000000  0.5612380000000  0.4331790000000 1.0
C      1  0.5793540000000  0.4539440000000  0.4331770000000 1.0
C      1  0.4788640000000  0.5887920000000  0.5689410000000 1.0
C      1  0.4090210000000  0.5073360000000  0.5689400000000 1.0
C      1  0.4649080000000  0.4157410000000  0.5689380000000 1.0
C      1  0.5692900000000  0.4405870000000  0.5689390000000 1.0
C      1  0.5779160000000  0.5475380000000  0.5689410000000 1.0
C      1  0.4887370000000  0.4757360000000  0.3882060000000 1.0
C      1  0.4734410000000  0.5032160000000  0.3882060000000 1.0
C      1  0.4948500000000  0.5262540000000  0.3882070000000 1.0
C      1  0.5233760000000  0.5130130000000  0.3882070000000 1.0
C      1  0.5195980000000  0.4817910000000  0.3882060000000 1.0
C      1  0.4875540000000  0.5237580000000  0.6149340000000 1.0
C      1  0.4735560000000  0.4955030000000  0.6149340000000 1.0
C      1  0.4961030000000  0.4734600000000  0.6149340000000 1.0
C      1  0.5240340000000  0.4880910000000  0.6149340000000 1.0
C      1  0.5187510000000  0.5191770000000  0.6149340000000 1.0
C      1  0.5481240000000  0.4280840000000  0.5547550000000 1.0
C      1  0.4464750000000  0.4320070000000  0.5547550000000 1.0
C      1  0.4187960000000  0.5298930000000  0.5547570000000 1.0
C      1  0.5033380000000  0.5864660000000  0.5547580000000 1.0
C      1  0.5832670000000  0.5235440000000  0.5547570000000 1.0
C      1  0.5469870000000  0.5749910000000  0.4458780000000 1.0
C      1  0.4432010000000  0.5678610000000  0.4458770000000 1.0
C      1  0.4179100000000  0.4669510000000  0.4458750000000 1.0
C      1  0.5060650000000  0.4117150000000  0.4458740000000 1.0
C      1  0.5858390000000  0.4784870000000  0.4458760000000 1.0
C      1  0.5318230000000  0.4475390000000  0.4768650000000 1.0
C      1  0.4599400000000  0.4535230000000  0.4768650000000 1.0
C      1  0.4434180000000  0.5237380000000  0.4768670000000 1.0
C      1  0.5050910000000  0.5611480000000  0.4768680000000 1.0
C      1  0.5597280000000  0.5140540000000  0.4768670000000 1.0
C      1  0.5300560000000  0.5519380000000  0.5253850000000 1.0
C      1  0.4598920000000  0.5446340000000  0.5253840000000 1.0
C      1  0.4451560000000  0.4756470000000  0.5253830000000 1.0
C      1  0.5062130000000  0.4403140000000  0.5253820000000 1.0
C      1  0.5586840000000  0.4874650000000  0.5253830000000 1.0
END
