TITL C-862133-5440-352 -2.18059525389825e-07 125000 -112.969581083191 0 0 20 (D4) n - 1
REM
REM in /home/nfs/bkarasulu/CARBON/AIRSS/Generating-Clusters/TERSOFF/Higher-Symm/FIRE-HFTN
REM
REM
REM
REM
REM
REM ./C.cell (b20cbc046b6831c77cfcea5457e17084)
REM AIRSS Version 0.9.1 bugfix July 2018 build 013d7b7c2542+ Fri, 06 Jul 2018 19:26:36 +0100
REM compiler GCC version 9.2.1 20190827 (Red Hat 9.2.1-1)
REM options -cpp -mtune=generic -march=x86-64 -g -O0 -fpre-include=/usr/include/finclude/math-vector-fortran.h
REM seed 1110256758 906031059 -365450748 2019666170 483664482 162346850 337942354 -1175773294 -1649428468 -1191588063 827091081 -473605486 -1830750315 -1473446138 -1993889997 1358224270 975185116 -1887089068 1856070130 424247981 1161203896 -2048301744 -1405618624 -1695923836 -1657677381 -195821194 987849346 972285087 -2038864335 1969764907 779776034 -652618286 881110716
REM
CELL 1.54180   50.00000   50.00000   50.00000   90.00000   90.00000   90.00000
LATT -1
SFAC C  
C      1  0.4894060000000  0.5322420000000  0.4714160000000 1.0
C      1  0.4894060000000  0.4714160000000  0.4677580000000 1.0
C      1  0.4894060000000  0.4677580000000  0.5285840000000 1.0
C      1  0.4894060000000  0.5285840000000  0.5322420000000 1.0
C      1  0.5000000000000  0.4838190000000  0.5505630000000 1.0
C      1  0.5000000000000  0.5505630000000  0.5161810000000 1.0
C      1  0.5000000000000  0.5161810000000  0.4494370000000 1.0
C      1  0.5000000000000  0.4494370000000  0.4838190000000 1.0
C      1  0.5105940000000  0.5096560000000  0.5419930000000 1.0
C      1  0.5105940000000  0.5419930000000  0.4903440000000 1.0
C      1  0.5105940000000  0.4903440000000  0.4580070000000 1.0
C      1  0.5105940000000  0.4580070000000  0.5096560000000 1.0
C      1  0.5328370000000  0.4942930000000  0.4778060000000 1.0
C      1  0.5328370000000  0.4778060000000  0.5057070000000 1.0
C      1  0.5328370000000  0.5057070000000  0.5221940000000 1.0
C      1  0.5328370000000  0.5221940000000  0.4942930000000 1.0
C      1  0.4671630000000  0.4852440000000  0.4824680000000 1.0
C      1  0.4671630000000  0.4824680000000  0.5147560000000 1.0
C      1  0.4671630000000  0.5147560000000  0.5175320000000 1.0
C      1  0.4671630000000  0.5175320000000  0.4852440000000 1.0
END
