TITL C-862133-5440-1160 0.530081760686749 125000 -356.598604193073 0 0 64 (C1) n - 1
REM
REM in /home/nfs/bkarasulu/CARBON/AIRSS/Generating-Clusters/TERSOFF/Higher-Symm/FIRE-HFTN
REM
REM
REM
REM
REM
REM ./C.cell (b20cbc046b6831c77cfcea5457e17084)
REM AIRSS Version 0.9.1 bugfix July 2018 build 013d7b7c2542+ Fri, 06 Jul 2018 19:26:36 +0100
REM compiler GCC version 9.2.1 20190827 (Red Hat 9.2.1-1)
REM options -cpp -mtune=generic -march=x86-64 -g -O0 -fpre-include=/usr/include/finclude/math-vector-fortran.h
REM seed -1243468011 -1534984248 -294867110 1080163837 1555680080 193839922 2078728412 -733119678 1850804464 1437110354 966287694 -1819676434 -1662726875 2100928834 -1019188558 202529733 -1659829250 -100670472 -846627128 -971869556 -1010520361 -1259665247 -2140487801 -1195116808 -1763067041 -435372066 -307179255 -1079571822 -33314699 2018666543 -619107728 283823133 -1927094195
REM
CELL 1.54180   50.00000   50.00000   50.00000   90.00000   90.00000   90.00000
LATT -1
SFAC C  
C      1  0.5265360000000  0.4940240000000  0.4077650000000 1.0
C      1  0.5096470000000  0.4252020000000  0.5019540000000 1.0
C      1  0.4662230000000  0.4605830000000  0.4324610000000 1.0
C      1  0.4813660000000  0.5084650000000  0.4397770000000 1.0
C      1  0.5041080000000  0.5292820000000  0.4335710000000 1.0
C      1  0.4893660000000  0.4894520000000  0.5838580000000 1.0
C      1  0.4967710000000  0.4437600000000  0.5592300000000 1.0
C      1  0.4554090000000  0.4981150000000  0.5745850000000 1.0
C      1  0.4326830000000  0.5303470000000  0.5445830000000 1.0
C      1  0.5360120000000  0.5313290000000  0.5625600000000 1.0
C      1  0.4900660000000  0.5581440000000  0.5381450000000 1.0
C      1  0.5676890000000  0.4952640000000  0.4932500000000 1.0
C      1  0.5502100000000  0.4672370000000  0.5027130000000 1.0
C      1  0.5166040000000  0.5657760000000  0.5265900000000 1.0
C      1  0.4535900000000  0.4534400000000  0.5055650000000 1.0
C      1  0.4899800000000  0.5436970000000  0.5636180000000 1.0
C      1  0.4431100000000  0.5187000000000  0.5197290000000 1.0
C      1  0.5194610000000  0.4999210000000  0.5669190000000 1.0
C      1  0.5582550000000  0.5037190000000  0.4476110000000 1.0
C      1  0.5524690000000  0.5444070000000  0.4835500000000 1.0
C      1  0.5130880000000  0.4964900000000  0.5079850000000 1.0
C      1  0.4941890000000  0.4468910000000  0.4813560000000 1.0
C      1  0.5169490000000  0.4677310000000  0.5001360000000 1.0
C      1  0.5284790000000  0.5620540000000  0.4737620000000 1.0
C      1  0.4451030000000  0.4822270000000  0.4736360000000 1.0
C      1  0.4817710000000  0.5375550000000  0.5175320000000 1.0
C      1  0.4584800000000  0.5252810000000  0.4480130000000 1.0
C      1  0.5254730000000  0.5215760000000  0.4156430000000 1.0
C      1  0.4456500000000  0.5255220000000  0.5708230000000 1.0
C      1  0.5245600000000  0.5132460000000  0.4870000000000 1.0
C      1  0.5083170000000  0.4708810000000  0.4499280000000 1.0
C      1  0.4407480000000  0.5119100000000  0.4681630000000 1.0
C      1  0.5566340000000  0.4389830000000  0.5109370000000 1.0
C      1  0.4655730000000  0.5447250000000  0.5787530000000 1.0
C      1  0.4443340000000  0.4537740000000  0.5331990000000 1.0
C      1  0.4688430000000  0.5539700000000  0.4564710000000 1.0
C      1  0.4657220000000  0.4579480000000  0.4615060000000 1.0
C      1  0.4382130000000  0.5303590000000  0.4922880000000 1.0
C      1  0.4656230000000  0.4808190000000  0.4966780000000 1.0
C      1  0.5070350000000  0.4761060000000  0.4196470000000 1.0
C      1  0.5383200000000  0.5471570000000  0.5356790000000 1.0
C      1  0.4979310000000  0.5164830000000  0.5529450000000 1.0
C      1  0.4689050000000  0.4320590000000  0.4944140000000 1.0
C      1  0.5099340000000  0.5669770000000  0.4963420000000 1.0
C      1  0.5385360000000  0.4369620000000  0.4731190000000 1.0
C      1  0.5003220000000  0.5219670000000  0.4747290000000 1.0
C      1  0.4879930000000  0.4923080000000  0.4705510000000 1.0
C      1  0.5213910000000  0.4493820000000  0.5463180000000 1.0
C      1  0.5346110000000  0.4608210000000  0.4572040000000 1.0
C      1  0.4903790000000  0.5446550000000  0.4912330000000 1.0
C      1  0.5564070000000  0.4751820000000  0.4444920000000 1.0
C      1  0.4510960000000  0.5562650000000  0.4824250000000 1.0
C      1  0.4565470000000  0.4766940000000  0.5485060000000 1.0
C      1  0.4792740000000  0.4643950000000  0.5673770000000 1.0
C      1  0.4633490000000  0.4962390000000  0.5228690000000 1.0
C      1  0.5533600000000  0.5137220000000  0.4744260000000 1.0
C      1  0.5042770000000  0.5555750000000  0.4500120000000 1.0
C      1  0.5337300000000  0.4771660000000  0.5509600000000 1.0
C      1  0.5298800000000  0.4327160000000  0.5223590000000 1.0
C      1  0.5695690000000  0.5104280000000  0.5208420000000 1.0
C      1  0.5544420000000  0.4832450000000  0.5311440000000 1.0
C      1  0.4901250000000  0.5090710000000  0.5254080000000 1.0
C      1  0.5569070000000  0.5373230000000  0.5153580000000 1.0
C      1  0.4783720000000  0.4842930000000  0.4198020000000 1.0
END
