TITL C-862506-1665-642 0.00062734074699095 125000 -93.1489726082766 0 0 18 (C1) n - 1
REM
REM in /home/nfs/bkarasulu/CARBON/AIRSS/Generating-Clusters/TERSOFF/Higher-Symm/FIRE-HFTN
REM
REM
REM
REM
REM
REM ./C.cell (b20cbc046b6831c77cfcea5457e17084)
REM AIRSS Version 0.9.1 bugfix July 2018 build 013d7b7c2542+ Fri, 06 Jul 2018 19:26:36 +0100
REM compiler GCC version 9.2.1 20190827 (Red Hat 9.2.1-1)
REM options -cpp -mtune=generic -march=x86-64 -g -O0 -fpre-include=/usr/include/finclude/math-vector-fortran.h
REM seed 806124531 -211632487 1112196285 1693700889 1447906548 367718258 -240521390 -126231745 -327728356 335056320 1880069175 -597609559 1887933419 -1333140582 -1160735795 1106398928 1442675589 -127207376 1806851128 1423123876 999707600 538012829 -1136025618 1845036126 1790785409 -585047327 -403159267 1417175381 1791621786 -2095200252 1393484391 -580301558 813652115
REM
CELL 1.54180   50.00000   50.00000   50.00000   90.00000   90.00000   90.00000
LATT -1
SFAC C  
C      1  0.5403270000000  0.5129170000000  0.5149680000000 1.0
C      1  0.5328230000000  0.5118710000000  0.5431700000000 1.0
C      1  0.5056790000000  0.5175060000000  0.5536780000000 1.0
C      1  0.4803600000000  0.5092580000000  0.5408410000000 1.0
C      1  0.4782180000000  0.4981410000000  0.5139900000000 1.0
C      1  0.4558150000000  0.5037900000000  0.4964000000000 1.0
C      1  0.4567180000000  0.5013220000000  0.4671570000000 1.0
C      1  0.4765980000000  0.5143650000000  0.4497040000000 1.0
C      1  0.5041910000000  0.5049930000000  0.4454700000000 1.0
C      1  0.5257540000000  0.5078720000000  0.4647460000000 1.0
C      1  0.5202540000000  0.5129880000000  0.4932500000000 1.0
C      1  0.5055350000000  0.5390680000000  0.4949980000000 1.0
C      1  0.5095170000000  0.4629780000000  0.4964800000000 1.0
C      1  0.5004760000000  0.4126100000000  0.5000720000000 1.0
C      1  0.5025020000000  0.4907060000000  0.5012920000000 1.0
C      1  0.4948470000000  0.4402170000000  0.5067010000000 1.0
C      1  0.5046980000000  0.5888800000000  0.5072330000000 1.0
C      1  0.5138570000000  0.5616860000000  0.5110270000000 1.0
END
