TITL C-862127-1500-838 -0.403749199877692 125000 -912.483186365232 0 0 159 (C3) n - 1
REM
REM in /home/nfs/bkarasulu/CARBON/AIRSS/Generating-Clusters/TERSOFF/Higher-Symm/FIRE-HFTN
REM
REM
REM
REM
REM
REM ./C.cell (b20cbc046b6831c77cfcea5457e17084)
REM AIRSS Version 0.9.1 bugfix July 2018 build 013d7b7c2542+ Fri, 06 Jul 2018 19:26:36 +0100
REM compiler GCC version 9.2.1 20190827 (Red Hat 9.2.1-1)
REM options -cpp -mtune=generic -march=x86-64 -g -O0 -fpre-include=/usr/include/finclude/math-vector-fortran.h
REM seed 820299182 815801229 777954 -660699628 -977656660 -1326544449 1897738123 -772436639 -2005398574 735262384 -1954108083 1521832456 -1032212421 -1913894790 -2041714016 1955021263 94402333 -1217529412 1442184451 1701421550 -1792139216 -1357361240 1062221901 -927765355 1560869600 -1703669646 163999673 1703210074 -440544568 1050828813 -1810078657 1425880586 1765658284
REM
CELL 1.54180   50.00000   50.00000   50.00000   90.00000   90.00000   90.00000
LATT -1
SFAC C  
C      1  0.4839450000000  0.6040000000000  0.5300080000000 1.0
C      1  0.4820400000000  0.6040000000000  0.4710920000000 1.0
C      1  0.5340150000000  0.6040000000000  0.4989000000000 1.0
C      1  0.4746700000000  0.5734040000000  0.5794110000000 1.0
C      1  0.4438930000000  0.5734040000000  0.4383580000000 1.0
C      1  0.5814370000000  0.5734040000000  0.4822310000000 1.0
C      1  0.4739070000000  0.4673090000000  0.3920400000000 1.0
C      1  0.6065430000000  0.4673090000000  0.5313830000000 1.0
C      1  0.4195500000000  0.4673090000000  0.5765780000000 1.0
C      1  0.4764750000000  0.5210690000000  0.6391520000000 1.0
C      1  0.3912530000000  0.5210690000000  0.4100510000000 1.0
C      1  0.6322720000000  0.5210690000000  0.4507960000000 1.0
C      1  0.4565250000000  0.4718750000000  0.4745920000000 1.0
C      1  0.5437410000000  0.4718750000000  0.4750540000000 1.0
C      1  0.4997340000000  0.4718750000000  0.5503540000000 1.0
C      1  0.5233510000000  0.4694810000000  0.5663220000000 1.0
C      1  0.4308880000000  0.4694810000000  0.4870620000000 1.0
C      1  0.5457610000000  0.4694810000000  0.4466170000000 1.0
C      1  0.4735460000000  0.5707390000000  0.4384770000000 1.0
C      1  0.5665080000000  0.5707390000000  0.5078520000000 1.0
C      1  0.4599460000000  0.5707390000000  0.5536710000000 1.0
C      1  0.4183150000000  0.5287880000000  0.5627280000000 1.0
C      1  0.4865180000000  0.5287880000000  0.3978950000000 1.0
C      1  0.5951670000000  0.5287880000000  0.5393770000000 1.0
C      1  0.3967870000000  0.4677010000000  0.4586650000000 1.0
C      1  0.5874030000000  0.4677010000000  0.4312820000000 1.0
C      1  0.5158090000000  0.4677010000000  0.6100520000000 1.0
C      1  0.5215570000000  0.4490100000000  0.5867830000000 1.0
C      1  0.4140650000000  0.4490100000000  0.4752780000000 1.0
C      1  0.5643780000000  0.4490100000000  0.4379390000000 1.0
C      1  0.5229570000000  0.4143970000000  0.5487310000000 1.0
C      1  0.4463190000000  0.4143970000000  0.4955160000000 1.0
C      1  0.5307230000000  0.4143970000000  0.4557530000000 1.0
C      1  0.5187890000000  0.4328340000000  0.4935090000000 1.0
C      1  0.4962270000000  0.4328340000000  0.5195170000000 1.0
C      1  0.4849840000000  0.4328340000000  0.4869740000000 1.0
C      1  0.4852840000000  0.4970200000000  0.5561080000000 1.0
C      1  0.4587670000000  0.4970200000000  0.4592010000000 1.0
C      1  0.5559490000000  0.4970200000000  0.4846910000000 1.0
C      1  0.4325600000000  0.5134870000000  0.4643570000000 1.0
C      1  0.5645880000000  0.5134870000000  0.4594160000000 1.0
C      1  0.5028530000000  0.5134870000000  0.5762260000000 1.0
C      1  0.5021470000000  0.4704610000000  0.4801180000000 1.0
C      1  0.5161450000000  0.4704610000000  0.5118000000000 1.0
C      1  0.4817080000000  0.4704610000000  0.5080820000000 1.0
C      1  0.5150170000000  0.5356260000000  0.4098530000000 1.0
C      1  0.5705610000000  0.5356260000000  0.5580780000000 1.0
C      1  0.4144220000000  0.5356260000000  0.5320680000000 1.0
C      1  0.4883680000000  0.3938840000000  0.4717300000000 1.0
C      1  0.5302990000000  0.3938840000000  0.5040610000000 1.0
C      1  0.4813330000000  0.3938840000000  0.5242090000000 1.0
C      1  0.5830060000000  0.4849760000000  0.4062830000000 1.0
C      1  0.5396580000000  0.4849760000000  0.6187440000000 1.0
C      1  0.3773350000000  0.4849760000000  0.4749730000000 1.0
C      1  0.3904240000000  0.4727340000000  0.5345840000000 1.0
C      1  0.5248380000000  0.4727340000000  0.3878130000000 1.0
C      1  0.5847380000000  0.4727340000000  0.5776030000000 1.0
C      1  0.4301750000000  0.4402950000000  0.5820880000000 1.0
C      1  0.4638230000000  0.4402950000000  0.3984860000000 1.0
C      1  0.6060020000000  0.4402950000000  0.5194260000000 1.0
C      1  0.3839060000000  0.5119610000000  0.4875560000000 1.0
C      1  0.5688240000000  0.5119610000000  0.4056810000000 1.0
C      1  0.5472700000000  0.5119610000000  0.6067620000000 1.0
C      1  0.4559180000000  0.4607480000000  0.5196240000000 1.0
C      1  0.5050460000000  0.4607480000000  0.4520120000000 1.0
C      1  0.5390360000000  0.4607480000000  0.5283640000000 1.0
C      1  0.4331740000000  0.4687250000000  0.4199040000000 1.0
C      1  0.6027780000000  0.4687250000000  0.4821750000000 1.0
C      1  0.4640470000000  0.4687250000000  0.5979210000000 1.0
C      1  0.4262900000000  0.5643280000000  0.4611520000000 1.0
C      1  0.5704990000000  0.5643280000000  0.4555900000000 1.0
C      1  0.5032110000000  0.5643280000000  0.5832590000000 1.0
C      1  0.6067930000000  0.4764270000000  0.4531350000000 1.0
C      1  0.4871900000000  0.4764270000000  0.6159180000000 1.0
C      1  0.4060170000000  0.4764270000000  0.4309470000000 1.0
C      1  0.5823060000000  0.5335210000000  0.4190720000000 1.0
C      1  0.5289330000000  0.5335210000000  0.6117430000000 1.0
C      1  0.3887610000000  0.5335210000000  0.4691850000000 1.0
C      1  0.5440850000000  0.4309910000000  0.5337570000000 1.0
C      1  0.4487230000000  0.4309910000000  0.5213000000000 1.0
C      1  0.5071930000000  0.4309910000000  0.4449430000000 1.0
C      1  0.5934060000000  0.5120440000000  0.5143270000000 1.0
C      1  0.4408900000000  0.5120440000000  0.5737290000000 1.0
C      1  0.4657040000000  0.5120440000000  0.4119450000000 1.0
C      1  0.4802240000000  0.5751280000000  0.5335690000000 1.0
C      1  0.4808160000000  0.5751280000000  0.4660890000000 1.0
C      1  0.5389600000000  0.5751280000000  0.5003420000000 1.0
C      1  0.4684600000000  0.4475010000000  0.4676950000000 1.0
C      1  0.5437470000000  0.4475010000000  0.4888380000000 1.0
C      1  0.4877930000000  0.4475010000000  0.5434670000000 1.0
C      1  0.5659240000000  0.5140560000000  0.5817300000000 1.0
C      1  0.3962580000000  0.5140560000000  0.5162270000000 1.0
C      1  0.5378180000000  0.5140560000000  0.4020430000000 1.0
C      1  0.4397320000000  0.5038530000000  0.5112610000000 1.0
C      1  0.5203810000000  0.5038530000000  0.4421760000000 1.0
C      1  0.5398860000000  0.5038530000000  0.5465630000000 1.0
C      1  0.4820550000000  0.4129550000000  0.4481300000000 1.0
C      1  0.5538930000000  0.4129550000000  0.5103940000000 1.0
C      1  0.4640520000000  0.4129550000000  0.5414750000000 1.0
C      1  0.5833110000000  0.4743290000000  0.5486720000000 1.0
C      1  0.4161940000000  0.4743290000000  0.5478140000000 1.0
C      1  0.5004950000000  0.4743290000000  0.4035150000000 1.0
C      1  0.5671880000000  0.5000320000000  0.5107530000000 1.0
C      1  0.4570940000000  0.5000320000000  0.5528100000000 1.0
C      1  0.4757180000000  0.5000320000000  0.4364370000000 1.0
C      1  0.5284030000000  0.4978750000000  0.5720440000000 1.0
C      1  0.4234070000000  0.4978750000000  0.4885760000000 1.0
C      1  0.5481900000000  0.4978750000000  0.4393800000000 1.0
C      1  0.5777910000000  0.5377830000000  0.4470770000000 1.0
C      1  0.5069370000000  0.5377830000000  0.5938310000000 1.0
C      1  0.4152720000000  0.5377830000000  0.4590920000000 1.0
C      1  0.5301040000000  0.6170380000000  0.4736300000000 1.0
C      1  0.5077850000000  0.6170380000000  0.5392550000000 1.0
C      1  0.4621110000000  0.6170380000000  0.4871140000000 1.0
C      1  0.6298590000000  0.4926490000000  0.4458720000000 1.0
C      1  0.4819470000000  0.4926490000000  0.6395250000000 1.0
C      1  0.3881940000000  0.4926490000000  0.4146030000000 1.0
C      1  0.4747790000000  0.5540320000000  0.4883630000000 1.0
C      1  0.5226890000000  0.5540320000000  0.4839770000000 1.0
C      1  0.5025320000000  0.5540320000000  0.5276600000000 1.0
C      1  0.4137170000000  0.5692670000000  0.5230720000000 1.0
C      1  0.5231610000000  0.5692670000000  0.4137410000000 1.0
C      1  0.5631220000000  0.5692670000000  0.5631870000000 1.0
C      1  0.5441730000000  0.5764780000000  0.4417440000000 1.0
C      1  0.5283650000000  0.5764780000000  0.5673820000000 1.0
C      1  0.4274630000000  0.5764780000000  0.4908730000000 1.0
C      1  0.4699530000000  0.3945390000000  0.4953540000000 1.0
C      1  0.5190470000000  0.3945390000000  0.4763010000000 1.0
C      1  0.5110000000000  0.3945390000000  0.5283450000000 1.0
C      1  0.4460660000000  0.5427590000000  0.5256210000000 1.0
C      1  0.5047780000000  0.5427590000000  0.4404820000000 1.0
C      1  0.5491550000000  0.5427590000000  0.5338970000000 1.0
C      1  0.4771740000000  0.4288890000000  0.5663430000000 1.0
C      1  0.4539590000000  0.4288890000000  0.4470610000000 1.0
C      1  0.5688670000000  0.4288890000000  0.4865970000000 1.0
C      1  0.5078460000000  0.4250180000000  0.5727150000000 1.0
C      1  0.4331030000000  0.4250180000000  0.4704380000000 1.0
C      1  0.5590500000000  0.4250180000000  0.4568470000000 1.0
C      1  0.5199030000000  0.5644090000000  0.4553280000000 1.0
C      1  0.5287350000000  0.5644090000000  0.5395730000000 1.0
C      1  0.4513610000000  0.5644090000000  0.5050990000000 1.0
C      1  0.5759510000000  0.5792780000000  0.5356730000000 1.0
C      1  0.4311310000000  0.5792780000000  0.5479390000000 1.0
C      1  0.4929180000000  0.5792780000000  0.4163880000000 1.0
C      1  0.4450630000000  0.4404660000000  0.4214300000000 1.0
C      1  0.5955120000000  0.4404660000000  0.4917090000000 1.0
C      1  0.4594250000000  0.4404660000000  0.5868610000000 1.0
C      1  0.4517380000000  0.4874030000000  0.4003330000000 1.0
C      1  0.6104450000000  0.4874030000000  0.5080380000000 1.0
C      1  0.4378170000000  0.4874040000000  0.5916290000000 1.0
C      1  0.5007430000000  0.4832040000000  0.4323970000000 1.0
C      1  0.5581740000000  0.4832040000000  0.5344450000000 1.0
C      1  0.4410830000000  0.4832040000000  0.5331580000000 1.0
C      1  0.5241140000000  0.5244450000000  0.5275180000000 1.0
C      1  0.4641120000000  0.5244450000000  0.5071240000000 1.0
C      1  0.5117740000000  0.5244450000000  0.4653580000000 1.0
C      1  0.5046510000000  0.6187800000000  0.4613580000000 1.0
C      1  0.5311390000000  0.6187800000000  0.5233490000000 1.0
C      1  0.4642100000000  0.6187800000000  0.5152930000000 1.0
END
