TITL C-862507-1800-333 -0.00117028193930335 125000 -415.711816152524 0 0 77 (C5) n - 1
REM
REM in /home/nfs/bkarasulu/CARBON/AIRSS/Generating-Clusters/TERSOFF/Higher-Symm/FIRE-HFTN
REM
REM
REM
REM
REM
REM ./C.cell (b20cbc046b6831c77cfcea5457e17084)
REM AIRSS Version 0.9.1 bugfix July 2018 build 013d7b7c2542+ Fri, 06 Jul 2018 19:26:36 +0100
REM compiler GCC version 9.2.1 20190827 (Red Hat 9.2.1-1)
REM options -cpp -mtune=generic -march=x86-64 -g -O0 -fpre-include=/usr/include/finclude/math-vector-fortran.h
REM seed -1676364538 -1225856076 262560974 -218082838 -59983679 1525511486 1228433361 64356542 2003327347 -1041172900 128700651 -1245280678 -2092318954 977659668 1348920405 965330019 321407768 790545764 -1631179801 1130662875 -481285099 868397271 -1128908770 470843362 2124748194 106781937 1953016266 -1896524074 2146025088 1142270556 -2119307747 2102534038 -381882425
REM
CELL 1.54180   50.00000   50.00000   50.00000   90.00000   90.00000   90.00000
LATT -1
SFAC C  
C      1  0.4663280000000  0.4893870000000  0.5249170000000 1.0
C      1  0.4996300000000  0.4641370000000  0.5249170000000 1.0
C      1  0.5339340000000  0.4880070000000  0.5249180000000 1.0
C      1  0.5218340000000  0.5280080000000  0.5249180000000 1.0
C      1  0.4800510000000  0.5288610000000  0.5249170000000 1.0
C      1  0.4663280000000  0.4893870000000  0.4787230000000 1.0
C      1  0.4996300000000  0.4641370000000  0.4787240000000 1.0
C      1  0.5339350000000  0.4880070000000  0.4787240000000 1.0
C      1  0.5218340000000  0.5280080000000  0.4787240000000 1.0
C      1  0.4800510000000  0.5288610000000  0.4787240000000 1.0
C      1  0.4760640000000  0.5337780000000  0.5542610000000 1.0
C      1  0.4604190000000  0.4871150000000  0.5542600000000 1.0
C      1  0.4999640000000  0.4578160000000  0.5542610000000 1.0
C      1  0.5400490000000  0.4863720000000  0.5542610000000 1.0
C      1  0.5252780000000  0.5333190000000  0.5542610000000 1.0
C      1  0.4760650000000  0.5337780000000  0.4493800000000 1.0
C      1  0.4604200000000  0.4871150000000  0.4493800000000 1.0
C      1  0.4999650000000  0.4578160000000  0.4493800000000 1.0
C      1  0.5400500000000  0.4863720000000  0.4493810000000 1.0
C      1  0.5252790000000  0.5333190000000  0.4493810000000 1.0
C      1  0.5498590000000  0.5594480000000  0.5324550000000 1.0
C      1  0.4588100000000  0.5652300000000  0.5324540000000 1.0
C      1  0.4251750000000  0.4804240000000  0.5324540000000 1.0
C      1  0.4954360000000  0.4222290000000  0.5324540000000 1.0
C      1  0.5724950000000  0.4710680000000  0.5324550000000 1.0
C      1  0.5498600000000  0.5594480000000  0.4711870000000 1.0
C      1  0.4588110000000  0.5652300000000  0.4711860000000 1.0
C      1  0.4251750000000  0.4804240000000  0.4711860000000 1.0
C      1  0.4954370000000  0.4222290000000  0.4711870000000 1.0
C      1  0.5724960000000  0.4710680000000  0.4711870000000 1.0
C      1  0.5007090000000  0.5410170000000  0.4342040000000 1.0
C      1  0.4611510000000  0.5127890000000  0.4342040000000 1.0
C      1  0.4757730000000  0.4664450000000  0.4342040000000 1.0
C      1  0.5243680000000  0.4660300000000  0.4342040000000 1.0
C      1  0.5397790000000  0.5121190000000  0.4342040000000 1.0
C      1  0.5007070000000  0.5410170000000  0.5694370000000 1.0
C      1  0.4611500000000  0.5127890000000  0.5694370000000 1.0
C      1  0.4757720000000  0.4664440000000  0.5694370000000 1.0
C      1  0.5243670000000  0.4660300000000  0.5694380000000 1.0
C      1  0.5397780000000  0.5121190000000  0.5694380000000 1.0
C      1  0.5550120000000  0.4515620000000  0.5167210000000 1.0
C      1  0.5630080000000  0.5367920000000  0.5167210000000 1.0
C      1  0.4844200000000  0.5707350000000  0.5167200000000 1.0
C      1  0.4278540000000  0.5064820000000  0.5167200000000 1.0
C      1  0.4714820000000  0.4328290000000  0.5167200000000 1.0
C      1  0.5550120000000  0.4515620000000  0.4869210000000 1.0
C      1  0.5630080000000  0.5367920000000  0.4869220000000 1.0
C      1  0.4844210000000  0.5707350000000  0.4869210000000 1.0
C      1  0.4278540000000  0.5064820000000  0.4869200000000 1.0
C      1  0.4714820000000  0.4328290000000  0.4869210000000 1.0
C      1  0.4388760000000  0.5358420000000  0.5290960000000 1.0
C      1  0.4469640000000  0.4523840000000  0.5290960000000 1.0
C      1  0.5288370000000  0.4342870000000  0.5290960000000 1.0
C      1  0.5713490000000  0.5065600000000  0.5290970000000 1.0
C      1  0.5157500000000  0.5693250000000  0.5290960000000 1.0
C      1  0.4388760000000  0.5358420000000  0.4745450000000 1.0
C      1  0.4469650000000  0.4523840000000  0.4745450000000 1.0
C      1  0.5288380000000  0.4342870000000  0.4745450000000 1.0
C      1  0.5713490000000  0.5065610000000  0.4745460000000 1.0
C      1  0.5157500000000  0.5693250000000  0.4745450000000 1.0
C      1  0.5155120000000  0.4784410000000  0.5960280000000 1.0
C      1  0.5252380000000  0.5075320000000  0.5960280000000 1.0
C      1  0.5005760000000  0.5257720000000  0.5960270000000 1.0
C      1  0.4756080000000  0.5079530000000  0.5960270000000 1.0
C      1  0.4848390000000  0.4787010000000  0.5960270000000 1.0
C      1  0.5155130000000  0.4784410000000  0.4076140000000 1.0
C      1  0.5252390000000  0.5075320000000  0.4076140000000 1.0
C      1  0.5005780000000  0.5257720000000  0.4076140000000 1.0
C      1  0.4756100000000  0.5079530000000  0.4076140000000 1.0
C      1  0.4848410000000  0.4787020000000  0.4076140000000 1.0
C      1  0.4526830000000  0.4721670000000  0.5018200000000 1.0
C      1  0.5117900000000  0.4458380000000  0.5018210000000 1.0
C      1  0.5227520000000  0.5499600000000  0.5018210000000 1.0
C      1  0.5550950000000  0.4939170000000  0.5018210000000 1.0
C      1  0.4594570000000  0.5365170000000  0.5018200000000 1.0
C      1  0.5003550000000  0.4996800000000  0.5180810000000 1.0
C      1  0.5003560000000  0.4996800000000  0.4855600000000 1.0
END
