TITL C-862128-1543-965 0.221096676446348 125000 -282.719099770772 0 0 54 (C1) n - 1
REM
REM in /home/nfs/bkarasulu/CARBON/AIRSS/Generating-Clusters/TERSOFF/Higher-Symm/FIRE-HFTN
REM
REM
REM
REM
REM
REM ./C.cell (b20cbc046b6831c77cfcea5457e17084)
REM AIRSS Version 0.9.1 bugfix July 2018 build 013d7b7c2542+ Fri, 06 Jul 2018 19:26:36 +0100
REM compiler GCC version 9.2.1 20190827 (Red Hat 9.2.1-1)
REM options -cpp -mtune=generic -march=x86-64 -g -O0 -fpre-include=/usr/include/finclude/math-vector-fortran.h
REM seed -416438028 -2008483622 -682156065 -650436727 1928508025 1009109466 -2134697940 570555262 2081822148 541278635 -1265184235 1682360428 1310712134 -1095971873 -1347040227 701228635 -466119921 -1696902310 -1411685643 -466183693 379490339 -752481085 -995183169 -416399203 -763681579 -210024763 -1491370616 -1132698680 -1069425034 -758472218 -348609996 -176755048 681986967
REM
CELL 1.54180   50.00000   50.00000   50.00000   90.00000   90.00000   90.00000
LATT -1
SFAC C  
C      1  0.5026010000000  0.4755270000000  0.5421370000000 1.0
C      1  0.5275950000000  0.5217120000000  0.5521040000000 1.0
C      1  0.4764070000000  0.5211560000000  0.5585050000000 1.0
C      1  0.4606120000000  0.4574720000000  0.5173960000000 1.0
C      1  0.5612230000000  0.4927940000000  0.5181160000000 1.0
C      1  0.4784880000000  0.5657950000000  0.5129900000000 1.0
C      1  0.4503510000000  0.5097460000000  0.4554890000000 1.0
C      1  0.5139140000000  0.4519940000000  0.4651780000000 1.0
C      1  0.5364730000000  0.5333190000000  0.4656320000000 1.0
C      1  0.4687490000000  0.5201580000000  0.4344390000000 1.0
C      1  0.5009300000000  0.4573780000000  0.4391350000000 1.0
C      1  0.5392020000000  0.5159550000000  0.4411330000000 1.0
C      1  0.4854230000000  0.5749160000000  0.4831150000000 1.0
C      1  0.4446560000000  0.4529140000000  0.4895900000000 1.0
C      1  0.5717700000000  0.4796190000000  0.4907890000000 1.0
C      1  0.5520490000000  0.5353030000000  0.5414860000000 1.0
C      1  0.4503830000000  0.5343920000000  0.5576970000000 1.0
C      1  0.5037280000000  0.4462430000000  0.5379040000000 1.0
C      1  0.5217300000000  0.5601550000000  0.5149270000000 1.0
C      1  0.4417380000000  0.4949590000000  0.5171350000000 1.0
C      1  0.5413650000000  0.4559990000000  0.5220300000000 1.0
C      1  0.5455580000000  0.5230070000000  0.4919300000000 1.0
C      1  0.4502270000000  0.5350850000000  0.5082870000000 1.0
C      1  0.4968720000000  0.4491880000000  0.4886730000000 1.0
C      1  0.5169310000000  0.5230730000000  0.4217420000000 1.0
C      1  0.4765970000000  0.4951880000000  0.4192240000000 1.0
C      1  0.5208020000000  0.4734060000000  0.4222510000000 1.0
C      1  0.5580560000000  0.5391980000000  0.5128340000000 1.0
C      1  0.4362890000000  0.5388400000000  0.5330670000000 1.0
C      1  0.5047940000000  0.4335420000000  0.5118980000000 1.0
C      1  0.5084300000000  0.5421680000000  0.4955680000000 1.0
C      1  0.4589930000000  0.4921810000000  0.4926130000000 1.0
C      1  0.5315230000000  0.4707090000000  0.4983620000000 1.0
C      1  0.5009250000000  0.5626520000000  0.5369370000000 1.0
C      1  0.4527730000000  0.4780130000000  0.5408700000000 1.0
C      1  0.5510030000000  0.4758480000000  0.5435480000000 1.0
C      1  0.4947870000000  0.5374970000000  0.4378690000000 1.0
C      1  0.4725090000000  0.4708940000000  0.4379670000000 1.0
C      1  0.5418880000000  0.4848520000000  0.4420310000000 1.0
C      1  0.4772480000000  0.4902350000000  0.5578830000000 1.0
C      1  0.5272160000000  0.4914730000000  0.5571130000000 1.0
C      1  0.5016460000000  0.5366010000000  0.5527310000000 1.0
C      1  0.5295180000000  0.5007220000000  0.5052220000000 1.0
C      1  0.4808470000000  0.5308870000000  0.5086390000000 1.0
C      1  0.4836720000000  0.4737430000000  0.5014110000000 1.0
C      1  0.5457100000000  0.4674830000000  0.4690650000000 1.0
C      1  0.5059370000000  0.5517200000000  0.4647060000000 1.0
C      1  0.4508620000000  0.4775070000000  0.4640220000000 1.0
C      1  0.5030000000000  0.4973320000000  0.4517840000000 1.0
C      1  0.5028520000000  0.4850170000000  0.5828720000000 1.0
C      1  0.4922240000000  0.5099410000000  0.4740690000000 1.0
C      1  0.5055750000000  0.4970800000000  0.4098860000000 1.0
C      1  0.5037270000000  0.4626370000000  0.6012090000000 1.0
C      1  0.4985010000000  0.5020440000000  0.5026970000000 1.0
END
