TITL C-862133-5440-1307 -2.60502011256307 125000 -963.164477956616 0 0 166 (C1) n - 1
REM
REM in /home/nfs/bkarasulu/CARBON/AIRSS/Generating-Clusters/TERSOFF/Higher-Symm/FIRE-HFTN
REM
REM
REM
REM
REM
REM ./C.cell (b20cbc046b6831c77cfcea5457e17084)
REM AIRSS Version 0.9.1 bugfix July 2018 build 013d7b7c2542+ Fri, 06 Jul 2018 19:26:36 +0100
REM compiler GCC version 9.2.1 20190827 (Red Hat 9.2.1-1)
REM options -cpp -mtune=generic -march=x86-64 -g -O0 -fpre-include=/usr/include/finclude/math-vector-fortran.h
REM seed -2087466087 1282071520 -388395899 1391769983 1931096239 1106115378 -192782131 1541249704 973741492 2086670243 -2118767147 -1523656109 225605281 -1648643378 -904520401 -810768399 905214963 -597762099 -276940104 1003610756 -483000541 -435454930 1084372396 1281221155 -1943584309 1987631915 248536105 847535983 -67228417 -589502851 1938800891 1543012577 -1497953813
REM
CELL 1.54180   50.00000   50.00000   50.00000   90.00000   90.00000   90.00000
LATT -1
SFAC C  
C      1  0.4641370000000  0.4858120000000  0.4401280000000 1.0
C      1  0.4148180000000  0.5417030000000  0.4355170000000 1.0
C      1  0.4532940000000  0.4768870000000  0.5829040000000 1.0
C      1  0.5618320000000  0.5393660000000  0.5808250000000 1.0
C      1  0.3921040000000  0.4480890000000  0.5200640000000 1.0
C      1  0.5231970000000  0.4596910000000  0.4950850000000 1.0
C      1  0.5666110000000  0.4715220000000  0.5551820000000 1.0
C      1  0.5664460000000  0.5886460000000  0.4858570000000 1.0
C      1  0.4460440000000  0.5239860000000  0.5341720000000 1.0
C      1  0.4778220000000  0.5255810000000  0.4925920000000 1.0
C      1  0.4078340000000  0.4967050000000  0.5773040000000 1.0
C      1  0.4472910000000  0.5920670000000  0.4515570000000 1.0
C      1  0.5052990000000  0.5087850000000  0.3950660000000 1.0
C      1  0.4168460000000  0.5198380000000  0.5343900000000 1.0
C      1  0.3920830000000  0.4608030000000  0.5464230000000 1.0
C      1  0.5088310000000  0.5961310000000  0.5804750000000 1.0
C      1  0.4984910000000  0.5112070000000  0.5088890000000 1.0
C      1  0.4787870000000  0.4372670000000  0.4353010000000 1.0
C      1  0.4954260000000  0.4018700000000  0.5652280000000 1.0
C      1  0.4974860000000  0.4421340000000  0.4131630000000 1.0
C      1  0.5530940000000  0.4240800000000  0.5439650000000 1.0
C      1  0.5339650000000  0.6081690000000  0.5194340000000 1.0
C      1  0.4664610000000  0.3890300000000  0.4661000000000 1.0
C      1  0.5184420000000  0.5466460000000  0.5254310000000 1.0
C      1  0.4016690000000  0.5061720000000  0.5132270000000 1.0
C      1  0.4664120000000  0.4769650000000  0.4670190000000 1.0
C      1  0.4496430000000  0.4486790000000  0.5244690000000 1.0
C      1  0.6110220000000  0.5609670000000  0.4991020000000 1.0
C      1  0.4870460000000  0.6115410000000  0.5387450000000 1.0
C      1  0.6219030000000  0.5021480000000  0.5480490000000 1.0
C      1  0.5327150000000  0.5259390000000  0.5425110000000 1.0
C      1  0.4581070000000  0.5425320000000  0.5134470000000 1.0
C      1  0.5640590000000  0.4215410000000  0.5005670000000 1.0
C      1  0.6376250000000  0.4787200000000  0.5411680000000 1.0
C      1  0.5870810000000  0.4729630000000  0.5768930000000 1.0
C      1  0.4233370000000  0.4694330000000  0.5828870000000 1.0
C      1  0.5661060000000  0.4757550000000  0.4179720000000 1.0
C      1  0.3914960000000  0.4904040000000  0.5522410000000 1.0
C      1  0.5364370000000  0.5857420000000  0.5741780000000 1.0
C      1  0.4798420000000  0.3798080000000  0.5186860000000 1.0
C      1  0.4058040000000  0.4611520000000  0.4980340000000 1.0
C      1  0.3958280000000  0.4185140000000  0.5187050000000 1.0
C      1  0.4859630000000  0.5155380000000  0.5644140000000 1.0
C      1  0.5150770000000  0.6390060000000  0.4727730000000 1.0
C      1  0.5595340000000  0.5341160000000  0.5516240000000 1.0
C      1  0.5982210000000  0.4526930000000  0.5215270000000 1.0
C      1  0.4444500000000  0.5386010000000  0.4430230000000 1.0
C      1  0.4346120000000  0.5226570000000  0.4672880000000 1.0
C      1  0.5868020000000  0.4820580000000  0.4622580000000 1.0
C      1  0.4178130000000  0.5706940000000  0.4944320000000 1.0
C      1  0.4636610000000  0.5066280000000  0.5486340000000 1.0
C      1  0.5697490000000  0.5485420000000  0.4031570000000 1.0
C      1  0.6007120000000  0.4366900000000  0.4541500000000 1.0
C      1  0.5110030000000  0.4193160000000  0.5193110000000 1.0
C      1  0.5278330000000  0.4040020000000  0.4705250000000 1.0
C      1  0.5598150000000  0.5522260000000  0.4318770000000 1.0
C      1  0.5549630000000  0.5098710000000  0.5869540000000 1.0
C      1  0.5220660000000  0.4967120000000  0.5487630000000 1.0
C      1  0.6051490000000  0.5024790000000  0.4741200000000 1.0
C      1  0.4694390000000  0.4852850000000  0.3960100000000 1.0
C      1  0.4460210000000  0.5671760000000  0.5711420000000 1.0
C      1  0.4590380000000  0.5660710000000  0.4439240000000 1.0
C      1  0.3943640000000  0.5461710000000  0.4562620000000 1.0
C      1  0.6122300000000  0.5179560000000  0.5234860000000 1.0
C      1  0.4690540000000  0.5638710000000  0.5293610000000 1.0
C      1  0.4274600000000  0.5193400000000  0.5827210000000 1.0
C      1  0.4184300000000  0.4718450000000  0.4079910000000 1.0
C      1  0.5304000000000  0.4899660000000  0.4474380000000 1.0
C      1  0.5463140000000  0.4492610000000  0.5577400000000 1.0
C      1  0.5045860000000  0.6178010000000  0.5166940000000 1.0
C      1  0.4091860000000  0.4487080000000  0.5667880000000 1.0
C      1  0.4408440000000  0.4320440000000  0.4636360000000 1.0
C      1  0.5231450000000  0.5038220000000  0.4954980000000 1.0
C      1  0.5508960000000  0.5452700000000  0.5097050000000 1.0
C      1  0.4360040000000  0.4645460000000  0.5026110000000 1.0
C      1  0.5078030000000  0.4628850000000  0.4702270000000 1.0
C      1  0.4895690000000  0.4422920000000  0.4622800000000 1.0
C      1  0.3988930000000  0.4501620000000  0.4713200000000 1.0
C      1  0.4390060000000  0.4883200000000  0.3929500000000 1.0
C      1  0.5170720000000  0.5065830000000  0.4668510000000 1.0
C      1  0.5396520000000  0.5583270000000  0.5864910000000 1.0
C      1  0.4848470000000  0.4233970000000  0.4816690000000 1.0
C      1  0.5831390000000  0.4543980000000  0.4722930000000 1.0
C      1  0.5461960000000  0.4470910000000  0.5876260000000 1.0
C      1  0.4299670000000  0.5457580000000  0.5020550000000 1.0
C      1  0.4515270000000  0.5108360000000  0.4867670000000 1.0
C      1  0.3812620000000  0.5231810000000  0.4686470000000 1.0
C      1  0.4996960000000  0.5905320000000  0.5532020000000 1.0
C      1  0.3856380000000  0.4651240000000  0.4488590000000 1.0
C      1  0.5621320000000  0.4938500000000  0.6104660000000 1.0
C      1  0.5232090000000  0.4645190000000  0.5446960000000 1.0
C      1  0.5460660000000  0.4582640000000  0.4038880000000 1.0
C      1  0.4853650000000  0.5653720000000  0.4332130000000 1.0
C      1  0.4716550000000  0.5617590000000  0.5851660000000 1.0
C      1  0.5658170000000  0.5055500000000  0.4180940000000 1.0
C      1  0.5773340000000  0.4721460000000  0.5288320000000 1.0
C      1  0.4096840000000  0.4068800000000  0.4934610000000 1.0
C      1  0.4956520000000  0.4004200000000  0.5353140000000 1.0
C      1  0.6254730000000  0.4544750000000  0.5317040000000 1.0
C      1  0.5303020000000  0.5566530000000  0.4292540000000 1.0
C      1  0.4705230000000  0.5159580000000  0.4350380000000 1.0
C      1  0.3977340000000  0.5694190000000  0.4734700000000 1.0
C      1  0.4409100000000  0.4927510000000  0.5066200000000 1.0
C      1  0.4920540000000  0.5438370000000  0.5705780000000 1.0
C      1  0.5214820000000  0.4075530000000  0.4400240000000 1.0
C      1  0.4499850000000  0.4564980000000  0.4783670000000 1.0
C      1  0.4891360000000  0.5531750000000  0.4061760000000 1.0
C      1  0.4066800000000  0.4041390000000  0.5431540000000 1.0
C      1  0.5269540000000  0.4360430000000  0.4186320000000 1.0
C      1  0.4591520000000  0.3857820000000  0.4958510000000 1.0
C      1  0.4749380000000  0.4627010000000  0.5674180000000 1.0
C      1  0.5065880000000  0.4506850000000  0.5233730000000 1.0
C      1  0.4349780000000  0.4508300000000  0.4170200000000 1.0
C      1  0.5503550000000  0.6109040000000  0.4949240000000 1.0
C      1  0.4534270000000  0.5064350000000  0.5893610000000 1.0
C      1  0.5723550000000  0.4946770000000  0.5103200000000 1.0
C      1  0.3990960000000  0.4819680000000  0.4279690000000 1.0
C      1  0.5143530000000  0.5450880000000  0.5907760000000 1.0
C      1  0.5918720000000  0.4365830000000  0.4989150000000 1.0
C      1  0.4307540000000  0.3864660000000  0.5039740000000 1.0
C      1  0.5424710000000  0.6313410000000  0.4759030000000 1.0
C      1  0.5073270000000  0.4100310000000  0.4913270000000 1.0
C      1  0.5466580000000  0.5932390000000  0.5454050000000 1.0
C      1  0.4240480000000  0.3827920000000  0.5326960000000 1.0
C      1  0.5944960000000  0.5273310000000  0.4619090000000 1.0
C      1  0.5189490000000  0.5528510000000  0.4015900000000 1.0
C      1  0.5706790000000  0.5258150000000  0.4433520000000 1.0
C      1  0.4597180000000  0.4141700000000  0.4493230000000 1.0
C      1  0.4132880000000  0.4241330000000  0.4689450000000 1.0
C      1  0.6050420000000  0.4972680000000  0.5728190000000 1.0
C      1  0.4238780000000  0.5478530000000  0.5753200000000 1.0
C      1  0.3801560000000  0.5182380000000  0.4974960000000 1.0
C      1  0.5737170000000  0.5492190000000  0.5305470000000 1.0
C      1  0.4947290000000  0.6290960000000  0.4908160000000 1.0
C      1  0.5073740000000  0.5542770000000  0.4508180000000 1.0
C      1  0.4872510000000  0.4606370000000  0.3913420000000 1.0
C      1  0.5197860000000  0.4018080000000  0.5827350000000 1.0
C      1  0.4821140000000  0.5235720000000  0.4077040000000 1.0
C      1  0.4495860000000  0.5804910000000  0.5439080000000 1.0
C      1  0.5484460000000  0.4933510000000  0.5637850000000 1.0
C      1  0.5285100000000  0.5271900000000  0.3888100000000 1.0
C      1  0.5564930000000  0.4053290000000  0.4772470000000 1.0
C      1  0.5473720000000  0.4675470000000  0.4546500000000 1.0
C      1  0.5577250000000  0.5220780000000  0.3936780000000 1.0
C      1  0.4326210000000  0.5948050000000  0.4983360000000 1.0
C      1  0.6021380000000  0.5456600000000  0.5228780000000 1.0
C      1  0.5691560000000  0.4654070000000  0.6023200000000 1.0
C      1  0.5529480000000  0.4509340000000  0.4928110000000 1.0
C      1  0.5980050000000  0.5034410000000  0.5026520000000 1.0
C      1  0.6051640000000  0.5534540000000  0.4708460000000 1.0
C      1  0.5486690000000  0.5132750000000  0.5058020000000 1.0
C      1  0.4578530000000  0.6085810000000  0.5394120000000 1.0
C      1  0.5301370000000  0.4250090000000  0.5987430000000 1.0
C      1  0.4501210000000  0.6047810000000  0.4781540000000 1.0
C      1  0.5933910000000  0.5934160000000  0.4761550000000 1.0
C      1  0.5549180000000  0.5618230000000  0.4857530000000 1.0
C      1  0.5625930000000  0.4192230000000  0.4520520000000 1.0
C      1  0.4142720000000  0.4203110000000  0.5661940000000 1.0
C      1  0.5464180000000  0.4412710000000  0.4422940000000 1.0
C      1  0.6337690000000  0.4976470000000  0.4688960000000 1.0
C      1  0.4603260000000  0.4585200000000  0.4270640000000 1.0
C      1  0.4754290000000  0.4563480000000  0.5377010000000 1.0
C      1  0.4964440000000  0.5610810000000  0.5432940000000 1.0
C      1  0.4876070000000  0.5837150000000  0.5973400000000 1.0
C      1  0.4663630000000  0.6288780000000  0.4828510000000 1.0
C      1  0.4939500000000  0.5265370000000  0.4602540000000 1.0
END
