TITL C-862504-1170-320 0.00234043915658762 125000 -266.172536643054 0 0 54 (Ci) n - 1
REM
REM in /home/nfs/bkarasulu/CARBON/AIRSS/Generating-Clusters/TERSOFF/Higher-Symm/FIRE-HFTN
REM
REM
REM
REM
REM
REM ./C.cell (b20cbc046b6831c77cfcea5457e17084)
REM AIRSS Version 0.9.1 bugfix July 2018 build 013d7b7c2542+ Fri, 06 Jul 2018 19:26:36 +0100
REM compiler GCC version 9.2.1 20190827 (Red Hat 9.2.1-1)
REM options -cpp -mtune=generic -march=x86-64 -g -O0 -fpre-include=/usr/include/finclude/math-vector-fortran.h
REM seed 65718972 1767790256 234095535 558270764 517233595 -1397357158 317954448 1149705730 773215496 -585856880 414452640 -488975937 594059530 -159484853 -1686626263 -2055013350 1519265083 1202168157 -11711165 -838854665 -1526053207 -807768651 366605557 -328245538 -1418673002 -575343450 2135095096 -283970336 -1460445 -1165433802 -2072969630 997016402 -992020302
REM
CELL 1.54180   50.00000   50.00000   50.00000   90.00000   90.00000   90.00000
LATT -1
SFAC C  
C      1  0.5447370000000  0.5465340000000  0.5420010000000 1.0
C      1  0.4552630000000  0.4534660000000  0.4579990000000 1.0
C      1  0.5160200000000  0.5170850000000  0.5717280000000 1.0
C      1  0.4839800000000  0.4829150000000  0.4282720000000 1.0
C      1  0.4453510000000  0.5357070000000  0.5081240000000 1.0
C      1  0.5546490000000  0.4642930000000  0.4918760000000 1.0
C      1  0.5076980000000  0.5620060000000  0.4616680000000 1.0
C      1  0.4923020000000  0.4379940000000  0.5383320000000 1.0
C      1  0.4884250000000  0.5287840000000  0.4811960000000 1.0
C      1  0.5115750000000  0.4712160000000  0.5188040000000 1.0
C      1  0.4297520000000  0.4540860000000  0.4730770000000 1.0
C      1  0.5702480000000  0.5459140000000  0.5269230000000 1.0
C      1  0.4816410000000  0.5422970000000  0.5511210000000 1.0
C      1  0.5183590000000  0.4577030000000  0.4488790000000 1.0
C      1  0.4649400000000  0.5187870000000  0.4389610000000 1.0
C      1  0.5350600000000  0.4812130000000  0.5610390000000 1.0
C      1  0.5583260000000  0.5002160000000  0.5317180000000 1.0
C      1  0.4416740000000  0.4997840000000  0.4682820000000 1.0
C      1  0.4785480000000  0.5023760000000  0.5025310000000 1.0
C      1  0.5214520000000  0.4976240000000  0.4974690000000 1.0
C      1  0.4549160000000  0.4796660000000  0.5057740000000 1.0
C      1  0.5450840000000  0.5203340000000  0.4942260000000 1.0
C      1  0.5281820000000  0.4458950000000  0.4989940000000 1.0
C      1  0.4718180000000  0.5541050000000  0.5010060000000 1.0
C      1  0.4785760000000  0.4392220000000  0.4704820000000 1.0
C      1  0.5214240000000  0.5607780000000  0.5295180000000 1.0
C      1  0.5083050000000  0.5213630000000  0.4511230000000 1.0
C      1  0.4916950000000  0.4786370000000  0.5488770000000 1.0
C      1  0.5133280000000  0.5183700000000  0.5216420000000 1.0
C      1  0.4866720000000  0.4816300000000  0.4783580000000 1.0
C      1  0.5010550000000  0.4353490000000  0.4528060000000 1.0
C      1  0.4989450000000  0.5646510000000  0.5471940000000 1.0
C      1  0.4427190000000  0.4925620000000  0.5437940000000 1.0
C      1  0.5572810000000  0.5074380000000  0.4562060000000 1.0
C      1  0.4523080000000  0.5246110000000  0.4785750000000 1.0
C      1  0.5476920000000  0.4753890000000  0.5214250000000 1.0
C      1  0.5476870000000  0.4818490000000  0.4678410000000 1.0
C      1  0.4523130000000  0.5181510000000  0.5321590000000 1.0
C      1  0.4871690000000  0.4541860000000  0.4974410000000 1.0
C      1  0.5128310000000  0.5458140000000  0.5025590000000 1.0
C      1  0.5124110000000  0.4560580000000  0.5577700000000 1.0
C      1  0.4875890000000  0.5439420000000  0.4422300000000 1.0
C      1  0.5347280000000  0.5494660000000  0.4783710000000 1.0
C      1  0.4652720000000  0.4505340000000  0.5216290000000 1.0
C      1  0.4643260000000  0.4846440000000  0.4514710000000 1.0
C      1  0.5356740000000  0.5153560000000  0.5485290000000 1.0
C      1  0.5688550000000  0.5202050000000  0.5121250000000 1.0
C      1  0.4311450000000  0.4797950000000  0.4878750000000 1.0
C      1  0.4941120000000  0.4994980000000  0.5701700000000 1.0
C      1  0.5058880000000  0.5005020000000  0.4298300000000 1.0
C      1  0.5373110000000  0.5295060000000  0.4540460000000 1.0
C      1  0.4626890000000  0.4704940000000  0.5459540000000 1.0
C      1  0.5164030000000  0.4831980000000  0.4666110000000 1.0
C      1  0.4835970000000  0.5168020000000  0.5333890000000 1.0
END
