TITL C-862501-1041-403 4.4431562126803e-05 125000 -582.529726878415 0 0 115 (D5) n - 1
REM
REM in /home/nfs/bkarasulu/CARBON/AIRSS/Generating-Clusters/TERSOFF/Higher-Symm/FIRE-HFTN
REM
REM
REM
REM
REM
REM ./C.cell (b20cbc046b6831c77cfcea5457e17084)
REM AIRSS Version 0.9.1 bugfix July 2018 build 013d7b7c2542+ Fri, 06 Jul 2018 19:26:36 +0100
REM compiler GCC version 9.2.1 20190827 (Red Hat 9.2.1-1)
REM options -cpp -mtune=generic -march=x86-64 -g -O0 -fpre-include=/usr/include/finclude/math-vector-fortran.h
REM seed -1306210311 -1481146719 585316841 -1144443089 -192665959 111172060 -1618939742 -276347439 -1052033256 317330672 857504743 946146910 -890001298 -1583718254 1491459885 -1698287959 -326566179 -437523213 -817960277 -50944777 -1336311165 -298073233 611097749 1350028337 -1230668427 1910064256 844226054 1716482961 -586231777 910411856 1592179086 2039554926 -1419556608
REM
CELL 1.54180   50.00000   50.00000   50.00000   90.00000   90.00000   90.00000
LATT -1
SFAC C  
C      1  0.4547270000000  0.5652100000000  0.4440080000000 1.0
C      1  0.5480290000000  0.5632080000000  0.4440080000000 1.0
C      1  0.5749560000000  0.4738540000000  0.4440080000000 1.0
C      1  0.4982970000000  0.4206330000000  0.4440080000000 1.0
C      1  0.4239910000000  0.4770940000000  0.4440080000000 1.0
C      1  0.4547270000000  0.4347900000000  0.5545080000000 1.0
C      1  0.5480290000000  0.4367920000000  0.5545080000000 1.0
C      1  0.5749560000000  0.5261460000000  0.5545080000000 1.0
C      1  0.4982970000000  0.5793670000000  0.5545080000000 1.0
C      1  0.4239910000000  0.5229060000000  0.5545080000000 1.0
C      1  0.4780710000000  0.5591570000000  0.4210010000000 1.0
C      1  0.5494850000000  0.5391360000000  0.4210010000000 1.0
C      1  0.5525130000000  0.4650310000000  0.4210010000000 1.0
C      1  0.4829690000000  0.4392510000000  0.4210010000000 1.0
C      1  0.4369620000000  0.4974250000000  0.4210010000000 1.0
C      1  0.4780710000000  0.4408430000000  0.5775150000000 1.0
C      1  0.5494850000000  0.4608640000000  0.5775150000000 1.0
C      1  0.5525130000000  0.5349690000000  0.5775150000000 1.0
C      1  0.4829690000000  0.5607490000000  0.5775150000000 1.0
C      1  0.4369620000000  0.5025750000000  0.5775150000000 1.0
C      1  0.4198910000000  0.4843820000000  0.5200510000000 1.0
C      1  0.4603920000000  0.5713620000000  0.5200510000000 1.0
C      1  0.5556300000000  0.5597220000000  0.5200510000000 1.0
C      1  0.5739890000000  0.4655480000000  0.5200510000000 1.0
C      1  0.4900980000000  0.4189860000000  0.5200510000000 1.0
C      1  0.4198910000000  0.5156180000000  0.4784650000000 1.0
C      1  0.4603920000000  0.4286380000000  0.4784650000000 1.0
C      1  0.5556300000000  0.4402780000000  0.4784650000000 1.0
C      1  0.5739890000000  0.5344520000000  0.4784650000000 1.0
C      1  0.4900980000000  0.5810140000000  0.4784650000000 1.0
C      1  0.5282350000000  0.5069380000000  0.4819600000000 1.0
C      1  0.5153240000000  0.4752910000000  0.4819600000000 1.0
C      1  0.4812360000000  0.4777910000000  0.4819600000000 1.0
C      1  0.4730790000000  0.5109830000000  0.4819600000000 1.0
C      1  0.5021270000000  0.5289970000000  0.4819600000000 1.0
C      1  0.5282350000000  0.4930620000000  0.5165560000000 1.0
C      1  0.5153240000000  0.5247090000000  0.5165560000000 1.0
C      1  0.4812360000000  0.5222090000000  0.5165560000000 1.0
C      1  0.4730790000000  0.4890170000000  0.5165560000000 1.0
C      1  0.5021270000000  0.4710030000000  0.5165560000000 1.0
C      1  0.4892630000000  0.5270270000000  0.4121260000000 1.0
C      1  0.5223860000000  0.5185640000000  0.4121260000000 1.0
C      1  0.5245730000000  0.4844460000000  0.4121260000000 1.0
C      1  0.4928010000000  0.4718230000000  0.4121260000000 1.0
C      1  0.4709780000000  0.4981400000000  0.4121260000000 1.0
C      1  0.4892630000000  0.4729730000000  0.5863900000000 1.0
C      1  0.5223860000000  0.4814360000000  0.5863900000000 1.0
C      1  0.5245730000000  0.5155540000000  0.5863900000000 1.0
C      1  0.4928010000000  0.5281770000000  0.5863900000000 1.0
C      1  0.4709780000000  0.5018600000000  0.5863900000000 1.0
C      1  0.5416340000000  0.4397060000000  0.4283830000000 1.0
C      1  0.4555220000000  0.4417720000000  0.4283830000000 1.0
C      1  0.4308780000000  0.5243070000000  0.4283830000000 1.0
C      1  0.5017580000000  0.5732500000000  0.4283830000000 1.0
C      1  0.5702080000000  0.5209640000000  0.4283830000000 1.0
C      1  0.5416330000000  0.5602940000000  0.5701330000000 1.0
C      1  0.4555220000000  0.5582280000000  0.5701330000000 1.0
C      1  0.4308780000000  0.4756930000000  0.5701330000000 1.0
C      1  0.5017580000000  0.4267500000000  0.5701330000000 1.0
C      1  0.5702080000000  0.4790360000000  0.5701330000000 1.0
C      1  0.5601130000000  0.5005220000000  0.5547590000000 1.0
C      1  0.5190730000000  0.4429900000000  0.5547590000000 1.0
C      1  0.4516740000000  0.4642440000000  0.5547590000000 1.0
C      1  0.4510600000000  0.5349110000000  0.5547590000000 1.0
C      1  0.5180790000000  0.5573320000000  0.5547590000000 1.0
C      1  0.5601130000000  0.4994780000000  0.4437570000000 1.0
C      1  0.5190730000000  0.5570100000000  0.4437570000000 1.0
C      1  0.4516740000000  0.5357560000000  0.4437570000000 1.0
C      1  0.4510600000000  0.4650890000000  0.4437570000000 1.0
C      1  0.5180790000000  0.4426680000000  0.4437570000000 1.0
C      1  0.4483170000000  0.4207800000000  0.5249210000000 1.0
C      1  0.4086860000000  0.5246730000000  0.5249210000000 1.0
C      1  0.4952480000000  0.5944690000000  0.5249210000000 1.0
C      1  0.5883770000000  0.5337120000000  0.5249210000000 1.0
C      1  0.5593720000000  0.4263670000000  0.5249210000000 1.0
C      1  0.4483170000000  0.5792200000000  0.4735960000000 1.0
C      1  0.4086860000000  0.4753270000000  0.4735960000000 1.0
C      1  0.4952480000000  0.4055310000000  0.4735960000000 1.0
C      1  0.5883770000000  0.4662880000000  0.4735960000000 1.0
C      1  0.5593720000000  0.5736330000000  0.4735960000000 1.0
C      1  0.5713280000000  0.5144720000000  0.5021090000000 1.0
C      1  0.5358050000000  0.4366360000000  0.5021090000000 1.0
C      1  0.4508010000000  0.4463670000000  0.5021090000000 1.0
C      1  0.4337880000000  0.5302170000000  0.5021090000000 1.0
C      1  0.5082780000000  0.5723090000000  0.5021090000000 1.0
C      1  0.5713280000000  0.4855280000000  0.4964070000000 1.0
C      1  0.5358050000000  0.5633640000000  0.4964070000000 1.0
C      1  0.4508010000000  0.5536330000000  0.4964070000000 1.0
C      1  0.4337880000000  0.4697830000000  0.4964070000000 1.0
C      1  0.5082780000000  0.4276910000000  0.4964070000000 1.0
C      1  0.5096210000000  0.4712090000000  0.5477520000000 1.0
C      1  0.4755910000000  0.4819530000000  0.5477520000000 1.0
C      1  0.4752940000000  0.5176380000000  0.5477520000000 1.0
C      1  0.5091400000000  0.5289470000000  0.5477520000000 1.0
C      1  0.5303550000000  0.5002530000000  0.5477520000000 1.0
C      1  0.5096210000000  0.5287910000000  0.4507640000000 1.0
C      1  0.4755910000000  0.5180470000000  0.4507640000000 1.0
C      1  0.4752940000000  0.4823620000000  0.4507640000000 1.0
C      1  0.5091400000000  0.4710530000000  0.4507640000000 1.0
C      1  0.5303550000000  0.4997470000000  0.4507640000000 1.0
C      1  0.4799990000000  0.5522110000000  0.4784710000000 1.0
C      1  0.5434750000000  0.5351570000000  0.4784710000000 1.0
C      1  0.5468700000000  0.4695160000000  0.4784710000000 1.0
C      1  0.4854920000000  0.4460040000000  0.4784710000000 1.0
C      1  0.4441630000000  0.4971120000000  0.4784710000000 1.0
C      1  0.4799990000000  0.4477890000000  0.5200450000000 1.0
C      1  0.5434750000000  0.4648430000000  0.5200450000000 1.0
C      1  0.5468700000000  0.5304840000000  0.5200450000000 1.0
C      1  0.4854920000000  0.5539960000000  0.5200450000000 1.0
C      1  0.4441630000000  0.5028880000000  0.5200450000000 1.0
C      1  0.4687570000000  0.5961550000000  0.4992580000000 1.0
C      1  0.4687570000000  0.4038450000000  0.4992580000000 1.0
C      1  0.5817950000000  0.5594270000000  0.4992580000000 1.0
C      1  0.5817950000000  0.4405730000000  0.4992580000000 1.0
C      1  0.3988960000000  0.5000000000000  0.4992580000000 1.0
END
