TITL C-862507-1800-324 12.0391299293443 125000 -476.860934242967 0 0 85 (C1) n - 1
REM
REM in /home/nfs/bkarasulu/CARBON/AIRSS/Generating-Clusters/TERSOFF/Higher-Symm/FIRE-HFTN
REM
REM
REM
REM
REM
REM ./C.cell (b20cbc046b6831c77cfcea5457e17084)
REM AIRSS Version 0.9.1 bugfix July 2018 build 013d7b7c2542+ Fri, 06 Jul 2018 19:26:36 +0100
REM compiler GCC version 9.2.1 20190827 (Red Hat 9.2.1-1)
REM options -cpp -mtune=generic -march=x86-64 -g -O0 -fpre-include=/usr/include/finclude/math-vector-fortran.h
REM seed -398416389 817642295 -1919892839 -1245407017 2032433948 -1150743903 -2101360976 -813799841 -1739067198 -1553223069 -300319034 -609471416 1425302534 703526089 1188032013 -1006341516 -875978195 428161402 1536943012 -57906098 -996716454 1341171661 611531868 -763150545 -1731523145 -57249962 1389284821 -225414777 460330465 -1576179696 1142067447 -197088661 -2028579334
REM
CELL 1.54180   50.00000   50.00000   50.00000   90.00000   90.00000   90.00000
LATT -1
SFAC C  
C      1  0.4598110000000  0.5627700000000  0.5136430000000 1.0
C      1  0.5294780000000  0.5740180000000  0.4967610000000 1.0
C      1  0.5143850000000  0.4629280000000  0.4878390000000 1.0
C      1  0.5494740000000  0.5054490000000  0.5696130000000 1.0
C      1  0.5880860000000  0.4926990000000  0.4713650000000 1.0
C      1  0.5633460000000  0.4595210000000  0.5421510000000 1.0
C      1  0.4975960000000  0.5550880000000  0.4615680000000 1.0
C      1  0.4958860000000  0.5679330000000  0.5361580000000 1.0
C      1  0.5006250000000  0.5378540000000  0.4878000000000 1.0
C      1  0.4269720000000  0.5201290000000  0.4364070000000 1.0
C      1  0.5245400000000  0.4748880000000  0.5378470000000 1.0
C      1  0.4306090000000  0.5569360000000  0.5144290000000 1.0
C      1  0.5436230000000  0.5217720000000  0.4387270000000 1.0
C      1  0.5259490000000  0.5178180000000  0.5211310000000 1.0
C      1  0.5749820000000  0.5415990000000  0.5138190000000 1.0
C      1  0.4182380000000  0.5302990000000  0.5119850000000 1.0
C      1  0.4641440000000  0.4640210000000  0.4960810000000 1.0
C      1  0.5134600000000  0.4161180000000  0.4960160000000 1.0
C      1  0.4976750000000  0.5204980000000  0.5322340000000 1.0
C      1  0.5416790000000  0.4351740000000  0.5371480000000 1.0
C      1  0.5170910000000  0.5217370000000  0.4253910000000 1.0
C      1  0.4864470000000  0.4781910000000  0.4330810000000 1.0
C      1  0.4852360000000  0.5432040000000  0.5147040000000 1.0
C      1  0.5582690000000  0.4924320000000  0.4511600000000 1.0
C      1  0.4897220000000  0.4955240000000  0.5648380000000 1.0
C      1  0.5159900000000  0.5524160000000  0.5523490000000 1.0
C      1  0.5113080000000  0.4582890000000  0.5177650000000 1.0
C      1  0.4791100000000  0.4225730000000  0.5063220000000 1.0
C      1  0.5506000000000  0.5609050000000  0.5159920000000 1.0
C      1  0.5202430000000  0.5145240000000  0.4894470000000 1.0
C      1  0.4647010000000  0.5398360000000  0.5642240000000 1.0
C      1  0.5027520000000  0.4547210000000  0.4373700000000 1.0
C      1  0.4557850000000  0.5178920000000  0.4958230000000 1.0
C      1  0.4807020000000  0.4930730000000  0.5324880000000 1.0
C      1  0.4440010000000  0.5233410000000  0.5480060000000 1.0
C      1  0.5499880000000  0.4812940000000  0.5002710000000 1.0
C      1  0.4149540000000  0.5155710000000  0.4866460000000 1.0
C      1  0.4575190000000  0.5109810000000  0.5245030000000 1.0
C      1  0.5270440000000  0.5641890000000  0.4685100000000 1.0
C      1  0.4423020000000  0.4700260000000  0.5409270000000 1.0
C      1  0.4723120000000  0.4611250000000  0.5470040000000 1.0
C      1  0.4359060000000  0.4629550000000  0.5112360000000 1.0
C      1  0.5904130000000  0.4918630000000  0.5029330000000 1.0
C      1  0.4711010000000  0.5673870000000  0.5538100000000 1.0
C      1  0.5494050000000  0.5472770000000  0.4570730000000 1.0
C      1  0.4569740000000  0.4975460000000  0.4718920000000 1.0
C      1  0.5237760000000  0.5118820000000  0.5831500000000 1.0
C      1  0.4982030000000  0.5271360000000  0.5678140000000 1.0
C      1  0.4200680000000  0.4844290000000  0.4870500000000 1.0
C      1  0.4979330000000  0.4496070000000  0.5688680000000 1.0
C      1  0.4323500000000  0.4952340000000  0.5542100000000 1.0
C      1  0.4369250000000  0.4714980000000  0.4623230000000 1.0
C      1  0.4945200000000  0.4347240000000  0.4561980000000 1.0
C      1  0.5026710000000  0.4916340000000  0.4819490000000 1.0
C      1  0.5734040000000  0.5114780000000  0.5177130000000 1.0
C      1  0.5131850000000  0.4155600000000  0.4667770000000 1.0
C      1  0.4766110000000  0.5188360000000  0.4386100000000 1.0
C      1  0.5584670000000  0.5276730000000  0.5534520000000 1.0
C      1  0.4715720000000  0.5700650000000  0.4701090000000 1.0
C      1  0.4414720000000  0.4404620000000  0.4697650000000 1.0
C      1  0.4816110000000  0.4841050000000  0.5031150000000 1.0
C      1  0.4415740000000  0.5589810000000  0.4658740000000 1.0
C      1  0.5452970000000  0.4948550000000  0.5283810000000 1.0
C      1  0.5480220000000  0.5024160000000  0.4793740000000 1.0
C      1  0.5624710000000  0.5285560000000  0.4759400000000 1.0
C      1  0.5389010000000  0.5420800000000  0.5361450000000 1.0
C      1  0.4521500000000  0.5179850000000  0.4234460000000 1.0
C      1  0.4957380000000  0.5401860000000  0.4361390000000 1.0
C      1  0.4545890000000  0.4749120000000  0.4341770000000 1.0
C      1  0.5534570000000  0.4648420000000  0.4402120000000 1.0
C      1  0.4903430000000  0.4398450000000  0.5287400000000 1.0
C      1  0.5118450000000  0.4758950000000  0.5650960000000 1.0
C      1  0.4257350000000  0.5318180000000  0.4626630000000 1.0
C      1  0.4732620000000  0.4395720000000  0.4766530000000 1.0
C      1  0.5139290000000  0.4298800000000  0.5501510000000 1.0
C      1  0.5399000000000  0.4291310000000  0.5081960000000 1.0
C      1  0.5543320000000  0.4517320000000  0.4943590000000 1.0
C      1  0.5610380000000  0.4772560000000  0.5672290000000 1.0
C      1  0.4748190000000  0.5837510000000  0.4963110000000 1.0
C      1  0.5034160000000  0.5841250000000  0.5101850000000 1.0
C      1  0.5037810000000  0.4967690000000  0.4153980000000 1.0
C      1  0.4431960000000  0.4284630000000  0.5035620000000 1.0
C      1  0.5297140000000  0.4549660000000  0.4262880000000 1.0
C      1  0.4832080000000  0.4963060000000  0.4581270000000 1.0
C      1  0.5860790000000  0.4649710000000  0.5197660000000 1.0
END
