TITL C-862131-2149-602 -0.0105403347270651 125000 -497.015279665985 0 0 93 (C1) n - 1
REM
REM in /home/nfs/bkarasulu/CARBON/AIRSS/Generating-Clusters/TERSOFF/Higher-Symm/FIRE-HFTN
REM
REM
REM
REM
REM
REM ./C.cell (b20cbc046b6831c77cfcea5457e17084)
REM AIRSS Version 0.9.1 bugfix July 2018 build 013d7b7c2542+ Fri, 06 Jul 2018 19:26:36 +0100
REM compiler GCC version 9.2.1 20190827 (Red Hat 9.2.1-1)
REM options -cpp -mtune=generic -march=x86-64 -g -O0 -fpre-include=/usr/include/finclude/math-vector-fortran.h
REM seed -2053277009 -1749501872 1519130612 -577391014 -2089102784 -91720608 -722446235 1579379155 -145231507 1815382618 39343773 940480607 -2018061467 -834719593 7585471 -809214083 1951616372 -1303323252 486634933 1218140921 1201566208 -1379469054 987565437 1168797241 -1992796031 -417212749 255063757 -1338780644 -1008459700 -851827705 1110959185 876190140 532735139
REM
CELL 1.54180   50.00000   50.00000   50.00000   90.00000   90.00000   90.00000
LATT -1
SFAC C  
C      1  0.5087860000000  0.4277420000000  0.5504310000000 1.0
C      1  0.4515250000000  0.5449220000000  0.5554210000000 1.0
C      1  0.5383900000000  0.4884780000000  0.5880250000000 1.0
C      1  0.4915000000000  0.4615120000000  0.5812250000000 1.0
C      1  0.4782150000000  0.4368430000000  0.5600820000000 1.0
C      1  0.5780670000000  0.4804020000000  0.4686840000000 1.0
C      1  0.5843830000000  0.5132660000000  0.4655830000000 1.0
C      1  0.4968410000000  0.5770380000000  0.4846790000000 1.0
C      1  0.5849920000000  0.4654970000000  0.4936560000000 1.0
C      1  0.4820950000000  0.5492930000000  0.5028010000000 1.0
C      1  0.4835790000000  0.4618790000000  0.4875160000000 1.0
C      1  0.5381190000000  0.4327380000000  0.5040900000000 1.0
C      1  0.5045480000000  0.4354380000000  0.4497870000000 1.0
C      1  0.4976500000000  0.5860430000000  0.5158670000000 1.0
C      1  0.5143350000000  0.5053070000000  0.4654150000000 1.0
C      1  0.5167050000000  0.5050740000000  0.5979560000000 1.0
C      1  0.5506860000000  0.4899730000000  0.4383330000000 1.0
C      1  0.4877990000000  0.4850590000000  0.5305340000000 1.0
C      1  0.5612880000000  0.5076130000000  0.5431140000000 1.0
C      1  0.5759370000000  0.5343650000000  0.5260010000000 1.0
C      1  0.4964350000000  0.5671490000000  0.5379720000000 1.0
C      1  0.4813020000000  0.5439540000000  0.4309990000000 1.0
C      1  0.4264440000000  0.5523610000000  0.4850850000000 1.0
C      1  0.5118390000000  0.4311030000000  0.5205500000000 1.0
C      1  0.4985670000000  0.5429800000000  0.5778660000000 1.0
C      1  0.5292890000000  0.5859330000000  0.4882500000000 1.0
C      1  0.4295420000000  0.4607170000000  0.4479630000000 1.0
C      1  0.5278580000000  0.4847500000000  0.4192030000000 1.0
C      1  0.5858090000000  0.5275770000000  0.4952230000000 1.0
C      1  0.5217360000000  0.5111960000000  0.4085450000000 1.0
C      1  0.4613250000000  0.4327940000000  0.5284160000000 1.0
C      1  0.4401380000000  0.5241170000000  0.5735490000000 1.0
C      1  0.4674960000000  0.4842050000000  0.5518470000000 1.0
C      1  0.5336790000000  0.5074120000000  0.5249650000000 1.0
C      1  0.4750510000000  0.4326070000000  0.4586720000000 1.0
C      1  0.5460300000000  0.5134950000000  0.5684120000000 1.0
C      1  0.4676970000000  0.4762870000000  0.4647660000000 1.0
C      1  0.4629590000000  0.5561230000000  0.4508200000000 1.0
C      1  0.4565690000000  0.5212190000000  0.5211360000000 1.0
C      1  0.4388680000000  0.4740650000000  0.5458980000000 1.0
C      1  0.4472980000000  0.4704870000000  0.5163250000000 1.0
C      1  0.4677150000000  0.4330610000000  0.4927770000000 1.0
C      1  0.5016840000000  0.5106340000000  0.5419830000000 1.0
C      1  0.5304760000000  0.4390590000000  0.5671130000000 1.0
C      1  0.4800570000000  0.5376620000000  0.5360820000000 1.0
C      1  0.4634800000000  0.4981450000000  0.4149660000000 1.0
C      1  0.4339770000000  0.5046030000000  0.5368770000000 1.0
C      1  0.4197790000000  0.5425090000000  0.5118680000000 1.0
C      1  0.4775100000000  0.4878240000000  0.5785010000000 1.0
C      1  0.4377290000000  0.4493450000000  0.4978690000000 1.0
C      1  0.5675110000000  0.4636610000000  0.4458090000000 1.0
C      1  0.4261960000000  0.5202130000000  0.4454850000000 1.0
C      1  0.5309520000000  0.5339260000000  0.4247700000000 1.0
C      1  0.4587750000000  0.5150100000000  0.4898100000000 1.0
C      1  0.5724440000000  0.4778920000000  0.5392010000000 1.0
C      1  0.4163730000000  0.5122660000000  0.5128900000000 1.0
C      1  0.4336180000000  0.4724110000000  0.4764970000000 1.0
C      1  0.5097690000000  0.5516660000000  0.4360330000000 1.0
C      1  0.5586840000000  0.4557390000000  0.5138290000000 1.0
C      1  0.5579190000000  0.5254750000000  0.4452890000000 1.0
C      1  0.5193620000000  0.5313740000000  0.4794540000000 1.0
C      1  0.5468270000000  0.4967290000000  0.4736530000000 1.0
C      1  0.4712730000000  0.4850990000000  0.5056290000000 1.0
C      1  0.4745140000000  0.4695200000000  0.4198560000000 1.0
C      1  0.5259620000000  0.5385720000000  0.5617720000000 1.0
C      1  0.4730430000000  0.5794760000000  0.4653970000000 1.0
C      1  0.5136280000000  0.5550570000000  0.4645710000000 1.0
C      1  0.4351860000000  0.5048070000000  0.4212430000000 1.0
C      1  0.5146050000000  0.4605150000000  0.4831780000000 1.0
C      1  0.5219970000000  0.4618470000000  0.5832650000000 1.0
C      1  0.5095080000000  0.4633980000000  0.5253790000000 1.0
C      1  0.5089210000000  0.5353090000000  0.5056920000000 1.0
C      1  0.4589010000000  0.4540830000000  0.4411680000000 1.0
C      1  0.5145570000000  0.4753820000000  0.4579070000000 1.0
C      1  0.4829450000000  0.5029130000000  0.4577630000000 1.0
C      1  0.5529620000000  0.5529210000000  0.5189050000000 1.0
C      1  0.4474580000000  0.4494870000000  0.5643220000000 1.0
C      1  0.4307540000000  0.5567060000000  0.5361820000000 1.0
C      1  0.5047090000000  0.4642560000000  0.4292270000000 1.0
C      1  0.4298870000000  0.5009560000000  0.4872160000000 1.0
C      1  0.4965770000000  0.5118700000000  0.5778900000000 1.0
C      1  0.5323910000000  0.4749210000000  0.5093200000000 1.0
C      1  0.5549300000000  0.4375600000000  0.4524490000000 1.0
C      1  0.5505310000000  0.5653930000000  0.4915950000000 1.0
C      1  0.4920110000000  0.4177340000000  0.5040720000000 1.0
C      1  0.5641890000000  0.5527990000000  0.4667090000000 1.0
C      1  0.5280390000000  0.5407980000000  0.5295860000000 1.0
C      1  0.4439790000000  0.5368900000000  0.4651800000000 1.0
C      1  0.5835070000000  0.4894670000000  0.5124590000000 1.0
C      1  0.4738540000000  0.5581970000000  0.5721850000000 1.0
C      1  0.5305630000000  0.4340020000000  0.4707400000000 1.0
C      1  0.5581770000000  0.5067370000000  0.5000250000000 1.0
C      1  0.4782310000000  0.5151090000000  0.4327010000000 1.0
END
