TITL C-862501-1041-1269 2.38570242040904e-05 125000 -145.446419274175 0 0 26 (C2h) n - 1
REM
REM in /home/nfs/bkarasulu/CARBON/AIRSS/Generating-Clusters/TERSOFF/Higher-Symm/FIRE-HFTN
REM
REM
REM
REM
REM
REM ./C.cell (b20cbc046b6831c77cfcea5457e17084)
REM AIRSS Version 0.9.1 bugfix July 2018 build 013d7b7c2542+ Fri, 06 Jul 2018 19:26:36 +0100
REM compiler GCC version 9.2.1 20190827 (Red Hat 9.2.1-1)
REM options -cpp -mtune=generic -march=x86-64 -g -O0 -fpre-include=/usr/include/finclude/math-vector-fortran.h
REM seed 830012169 447023097 -1172640685 1780183251 616100889 -1992566024 829383080 -2078839754 -1610264152 1631817446 -918071109 -1600258670 1091281750 1487870816 673788226 1768495956 589889859 2146081434 971861004 1535534249 -671015571 414012548 1717476981 1397655717 377875577 -956116353 -1985815379 -1651138928 -465731614 783460308 781233185 969053523 -1842558154
REM
CELL 1.54180   50.00000   50.00000   50.00000   90.00000   90.00000   90.00000
LATT -1
SFAC C  
C      1  0.4897820000000  0.5157010000000  0.4533900000000 1.0
C      1  0.5102180000000  0.5157010000000  0.5466100000000 1.0
C      1  0.4897820000000  0.4861290000000  0.4533900000000 1.0
C      1  0.5102180000000  0.4861290000000  0.5466100000000 1.0
C      1  0.4751500000000  0.5240190000000  0.4777310000000 1.0
C      1  0.5248500000000  0.5240190000000  0.5222690000000 1.0
C      1  0.4751500000000  0.4778110000000  0.4777310000000 1.0
C      1  0.5248500000000  0.4778110000000  0.5222690000000 1.0
C      1  0.4864020000000  0.5451950000000  0.4945460000000 1.0
C      1  0.5135980000000  0.5451950000000  0.5054540000000 1.0
C      1  0.4864020000000  0.4566350000000  0.4945460000000 1.0
C      1  0.5135980000000  0.4566350000000  0.5054540000000 1.0
C      1  0.4596610000000  0.5159690000000  0.5427680000000 1.0
C      1  0.5403390000000  0.5159690000000  0.4572320000000 1.0
C      1  0.4596610000000  0.4858600000000  0.5427680000000 1.0
C      1  0.5403390000000  0.4858600000000  0.4572320000000 1.0
C      1  0.4844220000000  0.4738650000000  0.5524640000000 1.0
C      1  0.5155780000000  0.4738650000000  0.4475360000000 1.0
C      1  0.4844220000000  0.5279650000000  0.5524640000000 1.0
C      1  0.5155780000000  0.5279650000000  0.4475360000000 1.0
C      1  0.5488190000000  0.4798690000000  0.4849770000000 1.0
C      1  0.4511810000000  0.4798690000000  0.5150230000000 1.0
C      1  0.5488190000000  0.5219600000000  0.4849770000000 1.0
C      1  0.4511810000000  0.5219600000000  0.5150230000000 1.0
C      1  0.5436780000000  0.5009150000000  0.5088910000000 1.0
C      1  0.4563220000000  0.5009150000000  0.4911090000000 1.0
END
