TITL C-862503-991-267 0.000645672074658142 125000 -886.346710835435 0 0 160 (C2) n - 1
REM
REM in /home/nfs/bkarasulu/CARBON/AIRSS/Generating-Clusters/TERSOFF/Higher-Symm/FIRE-HFTN
REM
REM
REM
REM
REM
REM ./C.cell (b20cbc046b6831c77cfcea5457e17084)
REM AIRSS Version 0.9.1 bugfix July 2018 build 013d7b7c2542+ Fri, 06 Jul 2018 19:26:36 +0100
REM compiler GCC version 9.2.1 20190827 (Red Hat 9.2.1-1)
REM options -cpp -mtune=generic -march=x86-64 -g -O0 -fpre-include=/usr/include/finclude/math-vector-fortran.h
REM seed 864322537 19283515 1149105179 -1973125360 1886853887 -1221737268 -706575573 -755424259 116509294 -884023089 1507275782 283876507 1072002648 876320433 -1332754301 -835382917 1114922782 1548569734 -1468367107 -911033431 1570648034 1737017233 12363112 -1476988910 -20694555 -245134765 79338999 1533736310 1115438013 1831227321 1445196622 -1297391020 338173261
REM
CELL 1.54180   50.00000   50.00000   50.00000   90.00000   90.00000   90.00000
LATT -1
SFAC C  
C      1  0.4833300000000  0.5558270000000  0.5268750000000 1.0
C      1  0.4949640000000  0.5545680000000  0.4708160000000 1.0
C      1  0.5263850000000  0.5580030000000  0.4982830000000 1.0
C      1  0.5163490000000  0.4430710000000  0.5268790000000 1.0
C      1  0.5047150000000  0.4443270000000  0.4708200000000 1.0
C      1  0.4732940000000  0.4408930000000  0.4982870000000 1.0
C      1  0.4850830000000  0.4979150000000  0.3812280000000 1.0
C      1  0.6046670000000  0.4979130000000  0.5561980000000 1.0
C      1  0.4151530000000  0.4950380000000  0.5768690000000 1.0
C      1  0.5145980000000  0.5009730000000  0.3812280000000 1.0
C      1  0.3950110000000  0.5009870000000  0.5561960000000 1.0
C      1  0.5845240000000  0.5038640000000  0.5768700000000 1.0
C      1  0.4640980000000  0.4344630000000  0.4667060000000 1.0
C      1  0.5280570000000  0.4521910000000  0.4876730000000 1.0
C      1  0.4928150000000  0.4382280000000  0.5485850000000 1.0
C      1  0.5355810000000  0.5644310000000  0.4667020000000 1.0
C      1  0.4716220000000  0.5467050000000  0.4876690000000 1.0
C      1  0.5068630000000  0.5606720000000  0.5485810000000 1.0
C      1  0.5872730000000  0.5486060000000  0.5158760000000 1.0
C      1  0.4396250000000  0.5600450000000  0.5713810000000 1.0
C      1  0.4669410000000  0.5540040000000  0.4242690000000 1.0
C      1  0.4124060000000  0.4502920000000  0.5158780000000 1.0
C      1  0.5600530000000  0.4388570000000  0.5713860000000 1.0
C      1  0.5327390000000  0.4448870000000  0.4242740000000 1.0
C      1  0.4352980000000  0.5376880000000  0.5916800000000 1.0
C      1  0.4569270000000  0.5363450000000  0.4022570000000 1.0
C      1  0.6084440000000  0.5246660000000  0.5102230000000 1.0
C      1  0.5643800000000  0.4612150000000  0.5916830000000 1.0
C      1  0.5427540000000  0.4625440000000  0.4022600000000 1.0
C      1  0.3912350000000  0.4742310000000  0.5102230000000 1.0
C      1  0.5585530000000  0.5940220000000  0.4945960000000 1.0
C      1  0.4777450000000  0.5980780000000  0.5560480000000 1.0
C      1  0.4558410000000  0.5917250000000  0.4577090000000 1.0
C      1  0.4411260000000  0.4048740000000  0.4946010000000 1.0
C      1  0.5219330000000  0.4008220000000  0.5560560000000 1.0
C      1  0.5438390000000  0.4071680000000  0.4577170000000 1.0
C      1  0.4325040000000  0.5459210000000  0.5461120000000 1.0
C      1  0.4925090000000  0.5402570000000  0.4300850000000 1.0
C      1  0.5668320000000  0.5343550000000  0.5342820000000 1.0
C      1  0.5671750000000  0.4529790000000  0.5461160000000 1.0
C      1  0.5071710000000  0.4586340000000  0.4300880000000 1.0
C      1  0.4328460000000  0.4645440000000  0.5342840000000 1.0
C      1  0.4331440000000  0.4650190000000  0.4826100000000 1.0
C      1  0.5638940000000  0.4654220000000  0.4434410000000 1.0
C      1  0.5264240000000  0.4635180000000  0.5674980000000 1.0
C      1  0.5665350000000  0.5338760000000  0.4826080000000 1.0
C      1  0.4357860000000  0.5334710000000  0.4434370000000 1.0
C      1  0.4732540000000  0.5353830000000  0.5674950000000 1.0
C      1  0.5264200000000  0.4276640000000  0.5713840000000 1.0
C      1  0.4281870000000  0.4331840000000  0.4882830000000 1.0
C      1  0.5557020000000  0.4348260000000  0.4494380000000 1.0
C      1  0.4732580000000  0.5712370000000  0.5713790000000 1.0
C      1  0.5714920000000  0.5657110000000  0.4882800000000 1.0
C      1  0.4439780000000  0.5640660000000  0.4494330000000 1.0
C      1  0.5273770000000  0.5994380000000  0.4916870000000 1.0
C      1  0.4896100000000  0.5972630000000  0.5275570000000 1.0
C      1  0.4740990000000  0.5914790000000  0.4815360000000 1.0
C      1  0.4723020000000  0.3994580000000  0.4916930000000 1.0
C      1  0.5100680000000  0.4016350000000  0.5275650000000 1.0
C      1  0.5255810000000  0.4074160000000  0.4815430000000 1.0
C      1  0.5040920000000  0.4769790000000  0.6120160000000 1.0
C      1  0.4058330000000  0.4689700000000  0.4425380000000 1.0
C      1  0.5927100000000  0.4939210000000  0.4125310000000 1.0
C      1  0.4955860000000  0.5219260000000  0.6120140000000 1.0
C      1  0.5938470000000  0.5299230000000  0.4425370000000 1.0
C      1  0.4069710000000  0.5049690000000  0.4125290000000 1.0
C      1  0.5988480000000  0.4982230000000  0.5258300000000 1.0
C      1  0.4424400000000  0.5089390000000  0.5781780000000 1.0
C      1  0.4671470000000  0.5056270000000  0.4046530000000 1.0
C      1  0.4008300000000  0.5006750000000  0.5258280000000 1.0
C      1  0.5572380000000  0.4899630000000  0.5781790000000 1.0
C      1  0.5325330000000  0.4932630000000  0.4046540000000 1.0
C      1  0.4539200000000  0.6153340000000  0.5567190000000 1.0
C      1  0.4680650000000  0.6067530000000  0.4356410000000 1.0
C      1  0.5688580000000  0.6065740000000  0.5190810000000 1.0
C      1  0.5457580000000  0.3835660000000  0.5567280000000 1.0
C      1  0.5316150000000  0.3921380000000  0.4356490000000 1.0
C      1  0.4308210000000  0.3923240000000  0.5190880000000 1.0
C      1  0.4390910000000  0.5866920000000  0.5190940000000 1.0
C      1  0.5142860000000  0.5837240000000  0.4442590000000 1.0
C      1  0.5357810000000  0.5762700000000  0.5413920000000 1.0
C      1  0.5605880000000  0.4122050000000  0.5191010000000 1.0
C      1  0.4853930000000  0.4151680000000  0.4442650000000 1.0
C      1  0.4638970000000  0.4226300000000  0.5413970000000 1.0
C      1  0.5216970000000  0.5264360000000  0.5086450000000 1.0
C      1  0.4768090000000  0.5240480000000  0.5112120000000 1.0
C      1  0.4975970000000  0.5210260000000  0.4669670000000 1.0
C      1  0.4779820000000  0.4724610000000  0.5086470000000 1.0
C      1  0.5228700000000  0.4748490000000  0.5112150000000 1.0
C      1  0.5020830000000  0.4778670000000  0.4669690000000 1.0
C      1  0.4353090000000  0.4362360000000  0.4524320000000 1.0
C      1  0.5542510000000  0.4453070000000  0.4789960000000 1.0
C      1  0.4937750000000  0.4408060000000  0.5799300000000 1.0
C      1  0.5643710000000  0.5626570000000  0.4524280000000 1.0
C      1  0.4454280000000  0.5535880000000  0.4789910000000 1.0
C      1  0.5059020000000  0.5580960000000  0.5799260000000 1.0
C      1  0.5275940000000  0.5073730000000  0.5763730000000 1.0
C      1  0.4181260000000  0.5170220000000  0.4985050000000 1.0
C      1  0.5489740000000  0.5167410000000  0.4235670000000 1.0
C      1  0.4720840000000  0.4915280000000  0.5763730000000 1.0
C      1  0.5815530000000  0.4818740000000  0.4985080000000 1.0
C      1  0.4507060000000  0.4821500000000  0.4235670000000 1.0
C      1  0.4960150000000  0.6030670000000  0.4287960000000 1.0
C      1  0.5566460000000  0.5980240000000  0.5437070000000 1.0
C      1  0.4334480000000  0.6085460000000  0.5375920000000 1.0
C      1  0.5036650000000  0.3958240000000  0.4288030000000 1.0
C      1  0.4430320000000  0.4008750000000  0.5437130000000 1.0
C      1  0.5662300000000  0.3903530000000  0.5376000000000 1.0
C      1  0.5885440000000  0.5230110000000  0.4692590000000 1.0
C      1  0.4760690000000  0.5383070000000  0.6015690000000 1.0
C      1  0.4183610000000  0.5300520000000  0.4176510000000 1.0
C      1  0.4111350000000  0.4758830000000  0.4692600000000 1.0
C      1  0.5236090000000  0.4605960000000  0.6015720000000 1.0
C      1  0.5813190000000  0.4688390000000  0.4176550000000 1.0
C      1  0.5322240000000  0.4152630000000  0.5101560000000 1.0
C      1  0.4822190000000  0.4119540000000  0.5177430000000 1.0
C      1  0.4966590000000  0.4092860000000  0.4737490000000 1.0
C      1  0.4674550000000  0.5836340000000  0.5101500000000 1.0
C      1  0.5174590000000  0.5869440000000  0.5177370000000 1.0
C      1  0.5030210000000  0.5896080000000  0.4737420000000 1.0
C      1  0.4409540000000  0.5163430000000  0.5485990000000 1.0
C      1  0.4893760000000  0.5098720000000  0.4251940000000 1.0
C      1  0.5696340000000  0.5039970000000  0.5321310000000 1.0
C      1  0.5587240000000  0.4825570000000  0.5486020000000 1.0
C      1  0.5103040000000  0.4890190000000  0.4251950000000 1.0
C      1  0.4300450000000  0.4949010000000  0.5321300000000 1.0
C      1  0.5314530000000  0.5381110000000  0.5740610000000 1.0
C      1  0.4221160000000  0.5467430000000  0.4963340000000 1.0
C      1  0.5439990000000  0.5462560000000  0.4298250000000 1.0
C      1  0.4682250000000  0.4607900000000  0.5740630000000 1.0
C      1  0.5775630000000  0.4521530000000  0.4963380000000 1.0
C      1  0.4556810000000  0.4526350000000  0.4298270000000 1.0
C      1  0.5743550000000  0.4379060000000  0.5216650000000 1.0
C      1  0.4525100000000  0.4497760000000  0.5508460000000 1.0
C      1  0.4829900000000  0.4422460000000  0.4300460000000 1.0
C      1  0.4253240000000  0.5609920000000  0.5216600000000 1.0
C      1  0.5471690000000  0.5491240000000  0.5508430000000 1.0
C      1  0.5166900000000  0.5566450000000  0.4300420000000 1.0
C      1  0.3958410000000  0.4947680000000  0.4846230000000 1.0
C      1  0.5699910000000  0.4564530000000  0.3935240000000 1.0
C      1  0.5489820000000  0.4561450000000  0.6164980000000 1.0
C      1  0.6038380000000  0.5041270000000  0.4846240000000 1.0
C      1  0.4296900000000  0.5424360000000  0.3935200000000 1.0
C      1  0.4506960000000  0.5427600000000  0.6164940000000 1.0
C      1  0.4820150000000  0.4846650000000  0.5423890000000 1.0
C      1  0.4693560000000  0.4854710000000  0.4543060000000 1.0
C      1  0.5502850000000  0.4884640000000  0.4923380000000 1.0
C      1  0.5176630000000  0.5142340000000  0.5423880000000 1.0
C      1  0.5303240000000  0.5134220000000  0.4543060000000 1.0
C      1  0.4493940000000  0.5104320000000  0.4923370000000 1.0
C      1  0.5376890000000  0.4829940000000  0.4608180000000 1.0
C      1  0.5146060000000  0.4812240000000  0.5442300000000 1.0
C      1  0.4571800000000  0.4808240000000  0.4858590000000 1.0
C      1  0.4619900000000  0.5158990000000  0.4608160000000 1.0
C      1  0.4850730000000  0.5176750000000  0.5442280000000 1.0
C      1  0.5425000000000  0.5180720000000  0.4858580000000 1.0
C      1  0.4998390000000  0.4994520000000  0.5946220000000 1.0
C      1  0.5798750000000  0.5170900000000  0.4216690000000 1.0
C      1  0.4198050000000  0.4818000000000  0.4216690000000 1.0
C      1  0.4998400000000  0.4994480000000  0.4963720000000 1.0
END
