TITL C-862507-1800-359 2.35836435914374 125000 -958.016526515765 0 0 168 (C1) n - 1
REM
REM in /home/nfs/bkarasulu/CARBON/AIRSS/Generating-Clusters/TERSOFF/Higher-Symm/FIRE-HFTN
REM
REM
REM
REM
REM
REM ./C.cell (b20cbc046b6831c77cfcea5457e17084)
REM AIRSS Version 0.9.1 bugfix July 2018 build 013d7b7c2542+ Fri, 06 Jul 2018 19:26:36 +0100
REM compiler GCC version 9.2.1 20190827 (Red Hat 9.2.1-1)
REM options -cpp -mtune=generic -march=x86-64 -g -O0 -fpre-include=/usr/include/finclude/math-vector-fortran.h
REM seed 1696907626 -1174869952 1571059185 -192902431 549029492 -1857516033 -14961108 -594040970 -1413730756 -60708376 -1849472809 1947092882 -589629034 -2083977453 -1588093411 656946435 1005502430 185734350 1237212433 -1470860254 -225556796 -914426943 1717063908 -630927952 -1424872843 -593827063 549865825 -836391604 -208116416 -1209008977 1753762143 -1480568891 -612610697
REM
CELL 1.54180   50.00000   50.00000   50.00000   90.00000   90.00000   90.00000
LATT -1
SFAC C  
C      1  0.4796690000000  0.4627960000000  0.4439280000000 1.0
C      1  0.4576740000000  0.5134240000000  0.4700020000000 1.0
C      1  0.5553470000000  0.4975270000000  0.5019080000000 1.0
C      1  0.5642080000000  0.4025350000000  0.5036970000000 1.0
C      1  0.5899610000000  0.4662930000000  0.4700520000000 1.0
C      1  0.5597640000000  0.5782120000000  0.5461690000000 1.0
C      1  0.5039080000000  0.5907560000000  0.4774820000000 1.0
C      1  0.4527580000000  0.4340740000000  0.5656210000000 1.0
C      1  0.5801510000000  0.5425690000000  0.4461950000000 1.0
C      1  0.4221150000000  0.4753110000000  0.5090180000000 1.0
C      1  0.4750030000000  0.6006230000000  0.5062160000000 1.0
C      1  0.5760900000000  0.5636150000000  0.4724460000000 1.0
C      1  0.4824510000000  0.5369440000000  0.5414330000000 1.0
C      1  0.4615550000000  0.3974110000000  0.5277230000000 1.0
C      1  0.5180160000000  0.5544810000000  0.3949720000000 1.0
C      1  0.5904950000000  0.4533270000000  0.5158110000000 1.0
C      1  0.6119590000000  0.4369580000000  0.5033650000000 1.0
C      1  0.5818480000000  0.5267840000000  0.5471110000000 1.0
C      1  0.4395600000000  0.5013940000000  0.3927080000000 1.0
C      1  0.5193090000000  0.4084560000000  0.5292120000000 1.0
C      1  0.4429730000000  0.4435510000000  0.4282960000000 1.0
C      1  0.5573130000000  0.5904660000000  0.4732920000000 1.0
C      1  0.5216770000000  0.5587060000000  0.5150350000000 1.0
C      1  0.5225220000000  0.4915380000000  0.4998380000000 1.0
C      1  0.4773760000000  0.4928950000000  0.4727800000000 1.0
C      1  0.5048270000000  0.5870750000000  0.5080480000000 1.0
C      1  0.4640510000000  0.4907990000000  0.3828630000000 1.0
C      1  0.4580150000000  0.4909530000000  0.5339880000000 1.0
C      1  0.3857610000000  0.5306380000000  0.4501390000000 1.0
C      1  0.5309880000000  0.4485530000000  0.4770880000000 1.0
C      1  0.4010390000000  0.5252410000000  0.5524490000000 1.0
C      1  0.3910630000000  0.5156080000000  0.5005090000000 1.0
C      1  0.4953800000000  0.5187870000000  0.5191380000000 1.0
C      1  0.5770660000000  0.4397640000000  0.5382790000000 1.0
C      1  0.5339890000000  0.5276470000000  0.4051490000000 1.0
C      1  0.4516700000000  0.5873180000000  0.5161340000000 1.0
C      1  0.3931620000000  0.5809790000000  0.4960310000000 1.0
C      1  0.4809850000000  0.4511080000000  0.4709400000000 1.0
C      1  0.5941950000000  0.4161770000000  0.4626800000000 1.0
C      1  0.4979160000000  0.5299100000000  0.4787240000000 1.0
C      1  0.4842580000000  0.4456140000000  0.5187390000000 1.0
C      1  0.5416890000000  0.3911130000000  0.4886930000000 1.0
C      1  0.5642120000000  0.4970620000000  0.4531260000000 1.0
C      1  0.5603970000000  0.4710330000000  0.4406530000000 1.0
C      1  0.5017330000000  0.4082480000000  0.5673170000000 1.0
C      1  0.5427420000000  0.6038340000000  0.5381310000000 1.0
C      1  0.5481030000000  0.5668820000000  0.5067890000000 1.0
C      1  0.4620270000000  0.4281700000000  0.4745330000000 1.0
C      1  0.5901690000000  0.4038620000000  0.4894460000000 1.0
C      1  0.5619620000000  0.4387360000000  0.5871420000000 1.0
C      1  0.4976470000000  0.5548990000000  0.5593430000000 1.0
C      1  0.5553380000000  0.5161250000000  0.5327380000000 1.0
C      1  0.5139310000000  0.6033220000000  0.5597180000000 1.0
C      1  0.4045320000000  0.5632110000000  0.5177260000000 1.0
C      1  0.4781590000000  0.5359220000000  0.4174610000000 1.0
C      1  0.5051680000000  0.5003550000000  0.4766380000000 1.0
C      1  0.5143440000000  0.5007720000000  0.6019770000000 1.0
C      1  0.4140350000000  0.4724270000000  0.5693390000000 1.0
C      1  0.5264760000000  0.5290290000000  0.5936940000000 1.0
C      1  0.5021310000000  0.5188610000000  0.4113090000000 1.0
C      1  0.4969120000000  0.4302020000000  0.5873280000000 1.0
C      1  0.5583100000000  0.4874180000000  0.5789440000000 1.0
C      1  0.5113090000000  0.4774440000000  0.5230220000000 1.0
C      1  0.5578410000000  0.5960720000000  0.5059770000000 1.0
C      1  0.5297330000000  0.5366370000000  0.5353480000000 1.0
C      1  0.6011610000000  0.4807450000000  0.5214170000000 1.0
C      1  0.5156600000000  0.4927890000000  0.4487370000000 1.0
C      1  0.4078180000000  0.4902010000000  0.4544550000000 1.0
C      1  0.3958010000000  0.4873970000000  0.5051540000000 1.0
C      1  0.5429390000000  0.4695220000000  0.4167410000000 1.0
C      1  0.4913510000000  0.5829740000000  0.5581200000000 1.0
C      1  0.5034240000000  0.5735260000000  0.4132050000000 1.0
C      1  0.4381690000000  0.4291090000000  0.4576990000000 1.0
C      1  0.5563810000000  0.5691390000000  0.5752830000000 1.0
C      1  0.4838760000000  0.4974390000000  0.6007650000000 1.0
C      1  0.4790760000000  0.4723480000000  0.5652020000000 1.0
C      1  0.4517180000000  0.5696400000000  0.5886840000000 1.0
C      1  0.4159440000000  0.5733870000000  0.5441370000000 1.0
C      1  0.4291850000000  0.4505640000000  0.5527400000000 1.0
C      1  0.5452400000000  0.4945020000000  0.5537870000000 1.0
C      1  0.5539410000000  0.4108170000000  0.5801150000000 1.0
C      1  0.5606660000000  0.4151010000000  0.5320730000000 1.0
C      1  0.5369720000000  0.4937140000000  0.3978790000000 1.0
C      1  0.3856320000000  0.4715040000000  0.4557390000000 1.0
C      1  0.4999020000000  0.4913660000000  0.4207560000000 1.0
C      1  0.5875230000000  0.5540040000000  0.5003130000000 1.0
C      1  0.5840730000000  0.4977460000000  0.5877640000000 1.0
C      1  0.5188690000000  0.5974920000000  0.4293560000000 1.0
C      1  0.5238680000000  0.4524650000000  0.5640560000000 1.0
C      1  0.4691730000000  0.5059830000000  0.5117490000000 1.0
C      1  0.5348870000000  0.4477940000000  0.5049920000000 1.0
C      1  0.5770030000000  0.5249020000000  0.5758720000000 1.0
C      1  0.3976490000000  0.5340670000000  0.5220250000000 1.0
C      1  0.5723710000000  0.4668590000000  0.4937910000000 1.0
C      1  0.4640720000000  0.5118950000000  0.5828450000000 1.0
C      1  0.5368460000000  0.5379980000000  0.4652030000000 1.0
C      1  0.4175320000000  0.5034670000000  0.5697990000000 1.0
C      1  0.4805500000000  0.4749790000000  0.4006680000000 1.0
C      1  0.4365420000000  0.5185520000000  0.5897040000000 1.0
C      1  0.5545040000000  0.5408860000000  0.5850530000000 1.0
C      1  0.5752400000000  0.4096990000000  0.4413740000000 1.0
C      1  0.5473820000000  0.4200660000000  0.4428620000000 1.0
C      1  0.3751360000000  0.5245580000000  0.4770720000000 1.0
C      1  0.3884050000000  0.4432110000000  0.4631930000000 1.0
C      1  0.5393450000000  0.5106160000000  0.4539020000000 1.0
C      1  0.4797860000000  0.3902690000000  0.5061900000000 1.0
C      1  0.4324100000000  0.5359070000000  0.4329740000000 1.0
C      1  0.5007630000000  0.5616830000000  0.4417250000000 1.0
C      1  0.5355420000000  0.4037600000000  0.5553530000000 1.0
C      1  0.5055950000000  0.4366000000000  0.4705310000000 1.0
C      1  0.5459720000000  0.5655830000000  0.4263870000000 1.0
C      1  0.5843310000000  0.5702550000000  0.5277510000000 1.0
C      1  0.5870930000000  0.5145150000000  0.4517620000000 1.0
C      1  0.4633460000000  0.5470650000000  0.5181500000000 1.0
C      1  0.4730680000000  0.6000550000000  0.4702160000000 1.0
C      1  0.6086690000000  0.5161640000000  0.5426880000000 1.0
C      1  0.4129800000000  0.4310100000000  0.4744060000000 1.0
C      1  0.5137680000000  0.4355950000000  0.5213670000000 1.0
C      1  0.5285230000000  0.4415200000000  0.4205490000000 1.0
C      1  0.4230840000000  0.5859660000000  0.4520010000000 1.0
C      1  0.4110970000000  0.5521160000000  0.5647050000000 1.0
C      1  0.5200660000000  0.6092810000000  0.5186050000000 1.0
C      1  0.4161040000000  0.4276940000000  0.5049060000000 1.0
C      1  0.4421680000000  0.5873960000000  0.5430590000000 1.0
C      1  0.5810660000000  0.4499740000000  0.5663140000000 1.0
C      1  0.5527340000000  0.4472510000000  0.4575460000000 1.0
C      1  0.4616170000000  0.5860810000000  0.5655170000000 1.0
C      1  0.5308820000000  0.4766780000000  0.6088670000000 1.0
C      1  0.5342380000000  0.4680880000000  0.5417020000000 1.0
C      1  0.4742840000000  0.4482360000000  0.5824080000000 1.0
C      1  0.5018800000000  0.4072400000000  0.4616110000000 1.0
C      1  0.5872510000000  0.5033020000000  0.5082920000000 1.0
C      1  0.5290320000000  0.5620530000000  0.4496760000000 1.0
C      1  0.4837070000000  0.5448220000000  0.4580980000000 1.0
C      1  0.5308780000000  0.4018980000000  0.4630830000000 1.0
C      1  0.4254840000000  0.5823690000000  0.4230420000000 1.0
C      1  0.5182480000000  0.5049750000000  0.5604210000000 1.0
C      1  0.4932310000000  0.4116960000000  0.4341470000000 1.0
C      1  0.4968410000000  0.4387330000000  0.4232850000000 1.0
C      1  0.4333220000000  0.4804590000000  0.4608760000000 1.0
C      1  0.4321260000000  0.4959540000000  0.4200290000000 1.0
C      1  0.4506160000000  0.5261530000000  0.4970700000000 1.0
C      1  0.4391030000000  0.5726560000000  0.4953420000000 1.0
C      1  0.4608900000000  0.5523070000000  0.3990650000000 1.0
C      1  0.4498520000000  0.4734430000000  0.4369960000000 1.0
C      1  0.4333890000000  0.5567100000000  0.4115620000000 1.0
C      1  0.4234660000000  0.4503500000000  0.5230230000000 1.0
C      1  0.4087000000000  0.5152040000000  0.4362680000000 1.0
C      1  0.6049290000000  0.4431010000000  0.4618040000000 1.0
C      1  0.5041690000000  0.5462750000000  0.5865250000000 1.0
C      1  0.4306520000000  0.5486540000000  0.5864440000000 1.0
C      1  0.4658470000000  0.5145740000000  0.5539730000000 1.0
C      1  0.3974550000000  0.5793740000000  0.4661610000000 1.0
C      1  0.5285780000000  0.5909260000000  0.4599760000000 1.0
C      1  0.4714070000000  0.4462400000000  0.4063680000000 1.0
C      1  0.6129810000000  0.4868650000000  0.5475750000000 1.0
C      1  0.6004800000000  0.5280390000000  0.5013940000000 1.0
C      1  0.4697350000000  0.4111410000000  0.5524260000000 1.0
C      1  0.4768720000000  0.4020210000000  0.4795670000000 1.0
C      1  0.4676590000000  0.4622970000000  0.5383270000000 1.0
C      1  0.5630370000000  0.5438670000000  0.4189620000000 1.0
C      1  0.4464960000000  0.5821000000000  0.4689830000000 1.0
C      1  0.5065930000000  0.3869230000000  0.5155200000000 1.0
C      1  0.4411140000000  0.4782950000000  0.4880480000000 1.0
C      1  0.5978450000000  0.4757310000000  0.5709210000000 1.0
C      1  0.4596480000000  0.5304080000000  0.4447920000000 1.0
C      1  0.4984950000000  0.4889310000000  0.5484600000000 1.0
C      1  0.5360170000000  0.4537050000000  0.5903310000000 1.0
END
