TITL C-862131-2149-1436 -0.000664922821603161 125000 -448.886137257348 0 0 86 (C3) n - 1
REM
REM in /home/nfs/bkarasulu/CARBON/AIRSS/Generating-Clusters/TERSOFF/Higher-Symm/FIRE-HFTN
REM
REM
REM
REM
REM
REM ./C.cell (b20cbc046b6831c77cfcea5457e17084)
REM AIRSS Version 0.9.1 bugfix July 2018 build 013d7b7c2542+ Fri, 06 Jul 2018 19:26:36 +0100
REM compiler GCC version 9.2.1 20190827 (Red Hat 9.2.1-1)
REM options -cpp -mtune=generic -march=x86-64 -g -O0 -fpre-include=/usr/include/finclude/math-vector-fortran.h
REM seed -107142498 2086291379 -1737001040 1015311592 -2085266443 112935631 -1975464615 -2056740797 114885379 704793998 -382342276 -1369924363 606613111 519588076 -2035134897 -901469028 -306545818 321849583 1863834111 286954282 -1534324028 1760854483 1909678791 2102637882 -1092606079 1730103534 44525806 1918658774 -2021852035 -1209070277 967026853 847376262 -88217056
REM
CELL 1.54180   50.00000   50.00000   50.00000   90.00000   90.00000   90.00000
LATT -1
SFAC C  
C      1  0.5647930000000  0.4991740000000  0.5318290000000 1.0
C      1  0.4409560000000  0.4991730000000  0.5391300000000 1.0
C      1  0.4965520000000  0.4991730000000  0.4282330000000 1.0
C      1  0.4940360000000  0.5434140000000  0.4165260000000 1.0
C      1  0.5761900000000  0.5434150000000  0.5355030000000 1.0
C      1  0.4320750000000  0.5434140000000  0.5471620000000 1.0
C      1  0.5188680000000  0.4460200000000  0.5218810000000 1.0
C      1  0.4725350000000  0.4460200000000  0.5043310000000 1.0
C      1  0.5109000000000  0.4460200000000  0.4729800000000 1.0
C      1  0.5394920000000  0.5295200000000  0.4328930000000 1.0
C      1  0.5392870000000  0.5295200000000  0.5666860000000 1.0
C      1  0.4235220000000  0.5295200000000  0.4996120000000 1.0
C      1  0.4689670000000  0.5318330000000  0.4916550000000 1.0
C      1  0.5236600000000  0.5318340000000  0.4762290000000 1.0
C      1  0.5096730000000  0.5318340000000  0.5313070000000 1.0
C      1  0.5681460000000  0.4721470000000  0.4486690000000 1.0
C      1  0.5112980000000  0.4721470000000  0.5836130000000 1.0
C      1  0.4228570000000  0.4721470000000  0.4669090000000 1.0
C      1  0.4413460000000  0.4865860000000  0.5123410000000 1.0
C      1  0.5195570000000  0.4865860000000  0.4419650000000 1.0
C      1  0.5413990000000  0.4865860000000  0.5448850000000 1.0
C      1  0.4549760000000  0.4480940000000  0.4786920000000 1.0
C      1  0.5418820000000  0.4480940000000  0.4705930000000 1.0
C      1  0.5054430000000  0.4480940000000  0.5499060000000 1.0
C      1  0.4824890000000  0.5217790000000  0.5187780000000 1.0
C      1  0.4934110000000  0.5217790000000  0.4743770000000 1.0
C      1  0.5264020000000  0.5217790000000  0.5060360000000 1.0
C      1  0.5431230000000  0.4286930000000  0.5195710000000 1.0
C      1  0.4624070000000  0.4286930000000  0.5264910000000 1.0
C      1  0.4967720000000  0.4286930000000  0.4531290000000 1.0
C      1  0.5035860000000  0.5733020000000  0.5302820000000 1.0
C      1  0.4728990000000  0.5733020000000  0.4868960000000 1.0
C      1  0.5258160000000  0.5733020000000  0.4820140000000 1.0
C      1  0.5378750000000  0.5069530000000  0.4542190000000 1.0
C      1  0.5216270000000  0.5069530000000  0.5546220000000 1.0
C      1  0.4427990000000  0.5069520000000  0.4903500000000 1.0
C      1  0.4629890000000  0.4830420000000  0.4724390000000 1.0
C      1  0.5432910000000  0.4830420000000  0.4806590000000 1.0
C      1  0.4960210000000  0.4830420000000  0.5460920000000 1.0
C      1  0.4810510000000  0.5668130000000  0.4564510000000 1.0
C      1  0.5481060000000  0.5668140000000  0.5042960000000 1.0
C      1  0.4731440000000  0.5668140000000  0.5384450000000 1.0
C      1  0.4764530000000  0.5229420000000  0.5739470000000 1.0
C      1  0.4486510000000  0.5229420000000  0.4415650000000 1.0
C      1  0.5771970000000  0.5229420000000  0.4836790000000 1.0
C      1  0.5738190000000  0.4542920000000  0.4766170000000 1.0
C      1  0.4842580000000  0.4542910000000  0.5745510000000 1.0
C      1  0.4442250000000  0.4542910000000  0.4480230000000 1.0
C      1  0.5691910000000  0.4959560000000  0.5021020000000 1.0
C      1  0.4645010000000  0.4959560000000  0.5578020000000 1.0
C      1  0.4686090000000  0.4959560000000  0.4392880000000 1.0
C      1  0.5514280000000  0.5499780000000  0.5507760000000 1.0
C      1  0.4312300000000  0.5499770000000  0.5180810000000 1.0
C      1  0.5196440000000  0.5499780000000  0.4303340000000 1.0
C      1  0.5055530000000  0.4739360000000  0.4646630000000 1.0
C      1  0.5287440000000  0.4739360000000  0.5214090000000 1.0
C      1  0.4680050000000  0.4739360000000  0.5131200000000 1.0
C      1  0.5347420000000  0.5670340000000  0.5317800000000 1.0
C      1  0.4560240000000  0.5670330000000  0.5131290000000 1.0
C      1  0.5115350000000  0.5670330000000  0.4542820000000 1.0
C      1  0.4696100000000  0.5482420000000  0.4328940000000 1.0
C      1  0.5742270000000  0.5482430000000  0.5061660000000 1.0
C      1  0.4584640000000  0.5482420000000  0.5601310000000 1.0
C      1  0.5603890000000  0.4495550000000  0.5343440000000 1.0
C      1  0.4409800000000  0.4495550000000  0.5340570000000 1.0
C      1  0.5009330000000  0.4495550000000  0.4307900000000 1.0
C      1  0.5478220000000  0.4246180000000  0.4909930000000 1.0
C      1  0.4848070000000  0.4246180000000  0.5448500000000 1.0
C      1  0.4696730000000  0.4246180000000  0.4633490000000 1.0
C      1  0.5207200000000  0.4919520000000  0.5002950000000 1.0
C      1  0.4903020000000  0.4919520000000  0.5167280000000 1.0
C      1  0.4912800000000  0.4919520000000  0.4821690000000 1.0
C      1  0.5380060000000  0.4597240000000  0.5616790000000 1.0
C      1  0.4284980000000  0.4597240000000  0.5010060000000 1.0
C      1  0.5357970000000  0.4597240000000  0.4365060000000 1.0
C      1  0.4685720000000  0.4654810000000  0.4320000000000 1.0
C      1  0.5755210000000  0.4654810000000  0.5057140000000 1.0
C      1  0.4582080000000  0.4654810000000  0.5614770000000 1.0
C      1  0.5054520000000  0.5030880000000  0.5817550000000 1.0
C      1  0.4273890000000  0.5030880000000  0.4627750000000 1.0
C      1  0.5694600000000  0.5030880000000  0.4546610000000 1.0
C      1  0.4492960000000  0.5424420000000  0.4690880000000 1.0
C      1  0.5530390000000  0.5424420000000  0.4704770000000 1.0
C      1  0.4999650000000  0.5424420000000  0.5596260000000 1.0
C      1  0.5007670000000  0.4420310000000  0.4997300000000 1.0
C      1  0.5007670000000  0.5774300000000  0.4997300000000 1.0
END
