TITL C-862506-1665-308 0.000110261741512066 125000 -452.857806880315 0 0 81 (C1) n - 1
REM
REM in /home/nfs/bkarasulu/CARBON/AIRSS/Generating-Clusters/TERSOFF/Higher-Symm/FIRE-HFTN
REM
REM
REM
REM
REM
REM ./C.cell (b20cbc046b6831c77cfcea5457e17084)
REM AIRSS Version 0.9.1 bugfix July 2018 build 013d7b7c2542+ Fri, 06 Jul 2018 19:26:36 +0100
REM compiler GCC version 9.2.1 20190827 (Red Hat 9.2.1-1)
REM options -cpp -mtune=generic -march=x86-64 -g -O0 -fpre-include=/usr/include/finclude/math-vector-fortran.h
REM seed -496313040 -1731725417 -1289156344 493319661 1802514895 1704100246 1485538118 -1996952630 -902784566 371032976 142253380 1610791982 1841736216 21337988 1858371060 1065655006 -380536494 -597288105 282121550 479251841 1802499053 -2028155632 -244061652 1121610469 1902389509 -1210324153 -2042167448 -275929360 -192218430 -626200358 730886822 863555755 -259327798
REM
CELL 1.54180   50.00000   50.00000   50.00000   90.00000   90.00000   90.00000
LATT -1
SFAC C  
C      1  0.4916840000000  0.5418940000000  0.4855090000000 1.0
C      1  0.5042350000000  0.5165320000000  0.5422410000000 1.0
C      1  0.4920850000000  0.4564350000000  0.5159250000000 1.0
C      1  0.5107750000000  0.4835240000000  0.4585560000000 1.0
C      1  0.5602170000000  0.4687430000000  0.4330210000000 1.0
C      1  0.4365600000000  0.5673170000000  0.4654950000000 1.0
C      1  0.5622250000000  0.5338520000000  0.5679870000000 1.0
C      1  0.4373180000000  0.4329440000000  0.5358200000000 1.0
C      1  0.4424960000000  0.5089760000000  0.5584830000000 1.0
C      1  0.5600650000000  0.4394630000000  0.5089290000000 1.0
C      1  0.4405670000000  0.4927490000000  0.4423700000000 1.0
C      1  0.5594970000000  0.5583510000000  0.4942330000000 1.0
C      1  0.5396740000000  0.5206540000000  0.4657570000000 1.0
C      1  0.4621700000000  0.5389700000000  0.5211650000000 1.0
C      1  0.5346940000000  0.4793820000000  0.5338930000000 1.0
C      1  0.4603440000000  0.4635450000000  0.4784480000000 1.0
C      1  0.5118950000000  0.4827550000000  0.4259030000000 1.0
C      1  0.4855780000000  0.5731360000000  0.4801070000000 1.0
C      1  0.5124810000000  0.5211410000000  0.5731260000000 1.0
C      1  0.4869830000000  0.4249620000000  0.5208810000000 1.0
C      1  0.5558600000000  0.5609030000000  0.5257940000000 1.0
C      1  0.4453900000000  0.4762950000000  0.5618750000000 1.0
C      1  0.5533510000000  0.4410020000000  0.4767240000000 1.0
C      1  0.4453460000000  0.5240790000000  0.4397790000000 1.0
C      1  0.5423910000000  0.4898250000000  0.4229950000000 1.0
C      1  0.4556010000000  0.5742260000000  0.4865460000000 1.0
C      1  0.5420520000000  0.5133190000000  0.5721960000000 1.0
C      1  0.4560970000000  0.4260520000000  0.5142960000000 1.0
C      1  0.5616530000000  0.4671580000000  0.4626120000000 1.0
C      1  0.4287140000000  0.5398780000000  0.4591220000000 1.0
C      1  0.5720890000000  0.5410830000000  0.5415330000000 1.0
C      1  0.4289680000000  0.4603760000000  0.5422900000000 1.0
C      1  0.5414380000000  0.4755560000000  0.4993480000000 1.0
C      1  0.4608250000000  0.4984400000000  0.4786600000000 1.0
C      1  0.5380570000000  0.5229090000000  0.5008400000000 1.0
C      1  0.4594950000000  0.4920150000000  0.5240730000000 1.0
C      1  0.4707810000000  0.4638510000000  0.5700240000000 1.0
C      1  0.5276850000000  0.4315930000000  0.4661740000000 1.0
C      1  0.4718220000000  0.5349640000000  0.4335500000000 1.0
C      1  0.5300650000000  0.5685110000000  0.5373920000000 1.0
C      1  0.4474330000000  0.4360470000000  0.4873030000000 1.0
C      1  0.5510200000000  0.5159150000000  0.4358950000000 1.0
C      1  0.4480350000000  0.5638200000000  0.5131190000000 1.0
C      1  0.5493060000000  0.4876300000000  0.5594990000000 1.0
C      1  0.5390490000000  0.5519450000000  0.4705280000000 1.0
C      1  0.4630790000000  0.5314040000000  0.5495740000000 1.0
C      1  0.5371740000000  0.4478030000000  0.5305500000000 1.0
C      1  0.4607140000000  0.4693130000000  0.4477980000000 1.0
C      1  0.4743990000000  0.5218360000000  0.4988400000000 1.0
C      1  0.5205550000000  0.5044910000000  0.5209770000000 1.0
C      1  0.4676700000000  0.4689090000000  0.5076820000000 1.0
C      1  0.5372440000000  0.4894470000000  0.4707640000000 1.0
C      1  0.5764900000000  0.4716780000000  0.5066870000000 1.0
C      1  0.4261280000000  0.4941840000000  0.4739390000000 1.0
C      1  0.5732390000000  0.5267030000000  0.4964250000000 1.0
C      1  0.4276690000000  0.5055180000000  0.5271480000000 1.0
C      1  0.5044530000000  0.4512750000000  0.4641950000000 1.0
C      1  0.4947400000000  0.5345520000000  0.4529920000000 1.0
C      1  0.5054280000000  0.5507430000000  0.5361830000000 1.0
C      1  0.4953930000000  0.4635820000000  0.5510550000000 1.0
C      1  0.5862070000000  0.4902340000000  0.5293660000000 1.0
C      1  0.4144790000000  0.4717570000000  0.4921330000000 1.0
C      1  0.5847560000000  0.5105610000000  0.4735150000000 1.0
C      1  0.4166860000000  0.5279050000000  0.5091470000000 1.0
C      1  0.5128600000000  0.4599100000000  0.4945980000000 1.0
C      1  0.4896150000000  0.5047730000000  0.4633690000000 1.0
C      1  0.5140400000000  0.5428780000000  0.5052540000000 1.0
C      1  0.4826850000000  0.4946830000000  0.5441310000000 1.0
C      1  0.5837630000000  0.4810760000000  0.4780820000000 1.0
C      1  0.4165370000000  0.5217670000000  0.4799870000000 1.0
C      1  0.5844970000000  0.5200840000000  0.5232540000000 1.0
C      1  0.4159030000000  0.4780790000000  0.5216150000000 1.0
C      1  0.4193670000000  0.4441550000000  0.4846910000000 1.0
C      1  0.5790710000000  0.5190430000000  0.4460580000000 1.0
C      1  0.4204300000000  0.5555790000000  0.5167420000000 1.0
C      1  0.5775290000000  0.4828300000000  0.5558470000000 1.0
C      1  0.5127970000000  0.4326660000000  0.5433780000000 1.0
C      1  0.4866390000000  0.4597920000000  0.4339560000000 1.0
C      1  0.5133390000000  0.5652530000000  0.4584510000000 1.0
C      1  0.4862600000000  0.5450610000000  0.5667790000000 1.0
C      1  0.4958680000000  0.4998730000000  0.5046060000000 1.0
END
