TITL C-862507-1800-1279 0.000165318400221795 125000 -151.468800214742 0 0 36 (C3) n - 1
REM
REM in /home/nfs/bkarasulu/CARBON/AIRSS/Generating-Clusters/TERSOFF/Higher-Symm/FIRE-HFTN
REM
REM
REM
REM
REM
REM ./C.cell (b20cbc046b6831c77cfcea5457e17084)
REM AIRSS Version 0.9.1 bugfix July 2018 build 013d7b7c2542+ Fri, 06 Jul 2018 19:26:36 +0100
REM compiler GCC version 9.2.1 20190827 (Red Hat 9.2.1-1)
REM options -cpp -mtune=generic -march=x86-64 -g -O0 -fpre-include=/usr/include/finclude/math-vector-fortran.h
REM seed 456826676 -1389005677 1597113938 595302421 -927618122 -292175055 -96432769 -563080462 667546631 -393133889 -650549037 -1175095645 -1347107173 -1636411357 475948802 322046576 1584527579 1391568242 1672728055 -1641018203 1879649556 -351094690 -379352207 -1929353942 -2020862085 -1244324241 1969594907 -1502851509 3574263 1610370370 -706394880 1963418126 -451237355
REM
CELL 1.54180   50.00000   50.00000   50.00000   90.00000   90.00000   90.00000
LATT -1
SFAC C  
C      1  0.5169000000000  0.5232010000000  0.5112880000000 1.0
C      1  0.5013260000000  0.5232010000000  0.4797200000000 1.0
C      1  0.4817740000000  0.5232010000000  0.5089920000000 1.0
C      1  0.4914910000000  0.4805210000000  0.5622930000000 1.0
C      1  0.5582020000000  0.4805210000000  0.4762220000000 1.0
C      1  0.4503070000000  0.4805210000000  0.4614850000000 1.0
C      1  0.5358150000000  0.4584890000000  0.4786180000000 1.0
C      1  0.4635750000000  0.4584890000000  0.4796740000000 1.0
C      1  0.5006090000000  0.4584890000000  0.5417080000000 1.0
C      1  0.5047290000000  0.4771210000000  0.4483570000000 1.0
C      1  0.4529120000000  0.4771210000000  0.5217260000000 1.0
C      1  0.5423600000000  0.4771210000000  0.5299170000000 1.0
C      1  0.4780880000000  0.5050840000000  0.5466540000000 1.0
C      1  0.5513600000000  0.5050840000000  0.4956490000000 1.0
C      1  0.4705520000000  0.5050840000000  0.4576970000000 1.0
C      1  0.4851310000000  0.5615060000000  0.4854410000000 1.0
C      1  0.4948260000000  0.5615060000000  0.5201560000000 1.0
C      1  0.5200430000000  0.5615060000000  0.4944030000000 1.0
C      1  0.5157060000000  0.5017310000000  0.4627680000000 1.0
C      1  0.4599040000000  0.5017310000000  0.5050140000000 1.0
C      1  0.5243910000000  0.5017310000000  0.5322170000000 1.0
C      1  0.5396450000000  0.5362940000000  0.4907370000000 1.0
C      1  0.4721560000000  0.5362940000000  0.4702980000000 1.0
C      1  0.4881990000000  0.5362940000000  0.5389650000000 1.0
C      1  0.4951590000000  0.4852550000000  0.5207810000000 1.0
C      1  0.5204180000000  0.4852550000000  0.4938020000000 1.0
C      1  0.4844230000000  0.4852550000000  0.4854170000000 1.0
C      1  0.5240830000000  0.5127940000000  0.5596360000000 1.0
C      1  0.5396050000000  0.5127930000000  0.4493250000000 1.0
C      1  0.4363120000000  0.5127930000000  0.4910390000000 1.0
C      1  0.5184300000000  0.4524470000000  0.4553470000000 1.0
C      1  0.4521150000000  0.4524470000000  0.5063660000000 1.0
C      1  0.5294560000000  0.4524470000000  0.5382870000000 1.0
C      1  0.5709290000000  0.5055570000000  0.5181330000000 1.0
C      1  0.4802390000000  0.5055570000000  0.4295070000000 1.0
C      1  0.4488320000000  0.5055570000000  0.5523600000000 1.0
END
