TITL C-862506-1665-1394 0.000100658533137391 125000 -250.79537510195 0 0 44 (Cs) n - 1
REM
REM in /home/nfs/bkarasulu/CARBON/AIRSS/Generating-Clusters/TERSOFF/Higher-Symm/FIRE-HFTN
REM
REM
REM
REM
REM
REM ./C.cell (b20cbc046b6831c77cfcea5457e17084)
REM AIRSS Version 0.9.1 bugfix July 2018 build 013d7b7c2542+ Fri, 06 Jul 2018 19:26:36 +0100
REM compiler GCC version 9.2.1 20190827 (Red Hat 9.2.1-1)
REM options -cpp -mtune=generic -march=x86-64 -g -O0 -fpre-include=/usr/include/finclude/math-vector-fortran.h
REM seed -556172111 -1872898436 1942168741 29613834 -931977266 665830587 -1591226 -1203857153 -1674882180 706810035 169161775 -1943703626 -18637086 1516895720 1768258937 -1289968812 -347288777 -1565962807 -564015865 1675260102 900955090 1824027486 -1210469651 -1366756390 1196 971434441 -1709589547 -1854017396 -1984829327 1077756441 1722102564 1527143718 -1625236436
REM
CELL 1.54180   50.00000   50.00000   50.00000   90.00000   90.00000   90.00000
LATT -1
SFAC C  
C      1  0.5268680000000  0.4855700000000  0.4676570000000 1.0
C      1  0.5268680000000  0.4855700000000  0.5323430000000 1.0
C      1  0.4708570000000  0.5280290000000  0.4413930000000 1.0
C      1  0.4708570000000  0.5280290000000  0.5586070000000 1.0
C      1  0.5204980000000  0.5213820000000  0.4356630000000 1.0
C      1  0.5204980000000  0.5213820000000  0.5643370000000 1.0
C      1  0.4602020000000  0.4771850000000  0.4400490000000 1.0
C      1  0.4602020000000  0.4771850000000  0.5599510000000 1.0
C      1  0.5370030000000  0.5116270000000  0.4599440000000 1.0
C      1  0.5370030000000  0.5116270000000  0.5400560000000 1.0
C      1  0.4987230000000  0.5417570000000  0.5564290000000 1.0
C      1  0.4987230000000  0.5417570000000  0.4435710000000 1.0
C      1  0.5038790000000  0.5002140000000  0.5783260000000 1.0
C      1  0.5038790000000  0.5002140000000  0.4216740000000 1.0
C      1  0.4726110000000  0.4991030000000  0.4819930000000 1.0
C      1  0.4726110000000  0.4991030000000  0.5180070000000 1.0
C      1  0.4592770000000  0.5232330000000  0.5314290000000 1.0
C      1  0.4592770000000  0.5232330000000  0.4685710000000 1.0
C      1  0.4671340000000  0.4478370000000  0.4849890000000 1.0
C      1  0.4671340000000  0.4478370000000  0.5150110000000 1.0
C      1  0.5279550000000  0.5570220000000  0.4841590000000 1.0
C      1  0.5279550000000  0.5570220000000  0.5158410000000 1.0
C      1  0.5692730000000  0.4629850000000  0.4857300000000 1.0
C      1  0.5692730000000  0.4629850000000  0.5142700000000 1.0
C      1  0.4469280000000  0.5439950000000  0.5147530000000 1.0
C      1  0.4469280000000  0.5439950000000  0.4852470000000 1.0
C      1  0.4744230000000  0.5007410000000  0.4277710000000 1.0
C      1  0.4744230000000  0.5007410000000  0.5722290000000 1.0
C      1  0.4981940000000  0.4795370000000  0.4679280000000 1.0
C      1  0.4981940000000  0.4795370000000  0.5320720000000 1.0
C      1  0.5434560000000  0.4610850000000  0.5271240000000 1.0
C      1  0.5434560000000  0.4610850000000  0.4728760000000 1.0
C      1  0.4948560000000  0.4500170000000  0.5274280000000 1.0
C      1  0.4948560000000  0.4500170000000  0.4725720000000 1.0
C      1  0.4567420000000  0.4733940000000  0.4700840000000 1.0
C      1  0.4567420000000  0.4733940000000  0.5299160000000 1.0
C      1  0.5217560000000  0.4418360000000  0.5150190000000 1.0
C      1  0.5217560000000  0.4418360000000  0.4849810000000 1.0
C      1  0.5471340000000  0.5313590000000  0.5180880000000 1.0
C      1  0.5471340000000  0.5313590000000  0.4819120000000 1.0
C      1  0.4985910000000  0.5183370000000  0.5142610000000 1.0
C      1  0.4985910000000  0.5183370000000  0.4857390000000 1.0
C      1  0.5036360000000  0.5437540000000  0.5275980000000 1.0
C      1  0.5036360000000  0.5437540000000  0.4724020000000 1.0
END
