TITL C-862502-1143-1061 2.00941029938751 125000 -141.281019711242 0 0 28 (C1) n - 1
REM
REM in /home/nfs/bkarasulu/CARBON/AIRSS/Generating-Clusters/TERSOFF/Higher-Symm/FIRE-HFTN
REM
REM
REM
REM
REM
REM ./C.cell (b20cbc046b6831c77cfcea5457e17084)
REM AIRSS Version 0.9.1 bugfix July 2018 build 013d7b7c2542+ Fri, 06 Jul 2018 19:26:36 +0100
REM compiler GCC version 9.2.1 20190827 (Red Hat 9.2.1-1)
REM options -cpp -mtune=generic -march=x86-64 -g -O0 -fpre-include=/usr/include/finclude/math-vector-fortran.h
REM seed 261450834 1721622325 -218972665 -432533366 -387521965 591588233 1655923569 -1846414126 -1596920209 -2079101863 1293864668 -1333991531 441027153 1489377066 -2105713284 -140870875 -2008457278 -17819764 -396400873 875725080 814115895 -597569576 -129818405 -1870625114 907595290 1769408585 151350913 -1312459651 -1627122227 1512024134 -676244057 -1128470472 1106836549
REM
CELL 1.54180   50.00000   50.00000   50.00000   90.00000   90.00000   90.00000
LATT -1
SFAC C  
C      1  0.4668470000000  0.5202510000000  0.4873000000000 1.0
C      1  0.5304350000000  0.5387930000000  0.4838810000000 1.0
C      1  0.4770830000000  0.5476940000000  0.4871730000000 1.0
C      1  0.5008560000000  0.5203190000000  0.4496980000000 1.0
C      1  0.5318150000000  0.5214520000000  0.4571400000000 1.0
C      1  0.5230370000000  0.4291730000000  0.5307550000000 1.0
C      1  0.5506460000000  0.5596720000000  0.4874490000000 1.0
C      1  0.5004100000000  0.4821270000000  0.4849330000000 1.0
C      1  0.5245040000000  0.5211410000000  0.5076080000000 1.0
C      1  0.4917810000000  0.5217960000000  0.4221600000000 1.0
C      1  0.4426300000000  0.4795410000000  0.5132750000000 1.0
C      1  0.5146040000000  0.4797200000000  0.5331030000000 1.0
C      1  0.5214560000000  0.4909460000000  0.5064370000000 1.0
C      1  0.4469950000000  0.5138230000000  0.5371300000000 1.0
C      1  0.4603600000000  0.4683560000000  0.5630640000000 1.0
C      1  0.5509370000000  0.4999190000000  0.4522180000000 1.0
C      1  0.5016480000000  0.5474950000000  0.4703720000000 1.0
C      1  0.4867710000000  0.4768810000000  0.5712840000000 1.0
C      1  0.5070730000000  0.4522050000000  0.5379980000000 1.0
C      1  0.4637930000000  0.5325740000000  0.5514120000000 1.0
C      1  0.5516710000000  0.4751230000000  0.4676230000000 1.0
C      1  0.5329850000000  0.4542630000000  0.4590380000000 1.0
C      1  0.4465140000000  0.5102920000000  0.5053320000000 1.0
C      1  0.4431110000000  0.4830720000000  0.5450720000000 1.0
C      1  0.5064280000000  0.4576320000000  0.4698760000000 1.0
C      1  0.4927350000000  0.5323670000000  0.5511120000000 1.0
C      1  0.5476880000000  0.4801740000000  0.4961630000000 1.0
C      1  0.4851900000000  0.5032000000000  0.4713950000000 1.0
END
