TITL C-862500-986-583 795.8826863016 125000 -816.917382569675 0 0 140 (C1) n - 1
REM
REM in /home/nfs/bkarasulu/CARBON/AIRSS/Generating-Clusters/TERSOFF/Higher-Symm/FIRE-HFTN
REM
REM
REM
REM
REM
REM ./C.cell (b20cbc046b6831c77cfcea5457e17084)
REM AIRSS Version 0.9.1 bugfix July 2018 build 013d7b7c2542+ Fri, 06 Jul 2018 19:26:36 +0100
REM compiler GCC version 9.2.1 20190827 (Red Hat 9.2.1-1)
REM options -cpp -mtune=generic -march=x86-64 -g -O0 -fpre-include=/usr/include/finclude/math-vector-fortran.h
REM seed -1310619297 520998386 -2052683397 -383571507 460947581 -1912585589 -2076889031 -589900207 656058191 1102608965 39398574 2132821736 -261349672 -325237280 -1733371461 261715875 -812286011 -1175793052 1801701541 1095402860 -1048020073 -2001136017 307819069 977629786 -899353122 335087692 -498815631 -1438268906 1785355471 1750688261 843314632 -755845204 -1102636607
REM
CELL 1.54180   50.00000   50.00000   50.00000   90.00000   90.00000   90.00000
LATT -1
SFAC C  
C      1  0.5750250000000  0.4599110000000  0.5637540000000 1.0
C      1  0.4713420000000  0.4361970000000  0.3980700000000 1.0
C      1  0.6079360000000  0.5056000000000  0.5265840000000 1.0
C      1  0.4588480000000  0.4836960000000  0.5540210000000 1.0
C      1  0.5690220000000  0.4447440000000  0.5374850000000 1.0
C      1  0.5994660000000  0.5407420000000  0.4693280000000 1.0
C      1  0.4085880000000  0.4992420000000  0.5403940000000 1.0
C      1  0.4561310000000  0.5023830000000  0.4696810000000 1.0
C      1  0.4402800000000  0.5265670000000  0.4819410000000 1.0
C      1  0.4446120000000  0.4533410000000  0.4489480000000 1.0
C      1  0.4840810000000  0.5467440000000  0.4864610000000 1.0
C      1  0.4803790000000  0.5126270000000  0.4515250000000 1.0
C      1  0.5463230000000  0.5780790000000  0.4985260000000 1.0
C      1  0.4938420000000  0.6013070000000  0.5311220000000 1.0
C      1  0.5086340000000  0.4999480000000  0.3810680000000 1.0
C      1  0.4000920000000  0.5501420000000  0.4892480000000 1.0
C      1  0.4825970000000  0.5636640000000  0.4401340000000 1.0
C      1  0.4989560000000  0.5404080000000  0.6043160000000 1.0
C      1  0.4774850000000  0.4509830000000  0.4892370000000 1.0
C      1  0.6076580000000  0.5252140000000  0.4454530000000 1.0
C      1  0.4689450000000  0.4591250000000  0.4331780000000 1.0
C      1  0.4069370000000  0.5213150000000  0.4377590000000 1.0
C      1  0.4193510000000  0.5235770000000  0.5290310000000 1.0
C      1  0.4437380000000  0.5662210000000  0.5433490000000 1.0
C      1  0.4343720000000  0.4167510000000  0.5185110000000 1.0
C      1  0.4976520000000  0.4336510000000  0.5894750000000 1.0
C      1  0.6000560000000  0.4483910000000  0.4634220000000 1.0
C      1  0.5875070000000  0.4397430000000  0.5149120000000 1.0
C      1  0.4926620000000  0.5815930000000  0.5539060000000 1.0
C      1  0.4547560000000  0.4747540000000  0.4835660000000 1.0
C      1  0.3980940000000  0.4993440000000  0.4929030000000 1.0
C      1  0.5118730000000  0.5189690000000  0.5637160000000 1.0
C      1  0.4893440000000  0.5421430000000  0.4047390000000 1.0
C      1  0.5438320000000  0.5704370000000  0.5484530000000 1.0
C      1  0.4664840000000  0.5680310000000  0.5613610000000 1.0
C      1  0.4700520000000  0.4512510000000  0.5870390000000 1.0
C      1  0.5182650000000  0.4832510000000  0.4919900000000 1.0
C      1  0.4263990000000  0.4999440000000  0.4355330000000 1.0
C      1  0.4269000000000  0.4791450000000  0.5556540000000 1.0
C      1  0.5695390000000  0.4895090000000  0.5314460000000 1.0
C      1  0.4256120000000  0.5104280000000  0.5890890000000 1.0
C      1  0.4920400000000  0.4109570000000  0.5684870000000 1.0
C      1  0.5458460000000  0.5882860000000  0.5256020000000 1.0
C      1  0.4553240000000  0.5510320000000  0.4856510000000 1.0
C      1  0.5498400000000  0.4678490000000  0.5309180000000 1.0
C      1  0.5177090000000  0.5517230000000  0.5214290000000 1.0
C      1  0.5005140000000  0.5858810000000  0.4362610000000 1.0
C      1  0.5110040000000  0.6068940000000  0.4803490000000 1.0
C      1  0.5400520000000  0.5251190000000  0.4108200000000 1.0
C      1  0.5919150000000  0.4896690000000  0.5551080000000 1.0
C      1  0.4980360000000  0.6082630000000  0.4545070000000 1.0
C      1  0.4966900000000  0.5927780000000  0.5028550000000 1.0
C      1  0.5199260000000  0.3749540000000  0.5448710000000 1.0
C      1  0.5420900000000  0.4710060000000  0.4473360000000 1.0
C      1  0.4994500000000  0.4341640000000  0.4046690000000 1.0
C      1  0.5875930000000  0.5734490000000  0.4927510000000 1.0
C      1  0.5054780000000  0.4315150000000  0.4774400000000 1.0
C      1  0.5051860000000  0.4569140000000  0.5298540000000 1.0
C      1  0.5314430000000  0.4383240000000  0.4913580000000 1.0
C      1  0.5550530000000  0.4893360000000  0.4653710000000 1.0
C      1  0.5075420000000  0.4693210000000  0.5577890000000 1.0
C      1  0.4527160000000  0.5020570000000  0.5972050000000 1.0
C      1  0.4046510000000  0.5633750000000  0.4638730000000 1.0
C      1  0.4629630000000  0.5521440000000  0.5861560000000 1.0
C      1  0.4408400000000  0.5566090000000  0.4279730000000 1.0
C      1  0.5736350000000  0.4791480000000  0.4861750000000 1.0
C      1  0.4655910000000  0.4846930000000  0.5259730000000 1.0
C      1  0.3944660000000  0.4590230000000  0.5207800000000 1.0
C      1  0.4250170000000  0.4757650000000  0.4527880000000 1.0
C      1  0.4227710000000  0.4269320000000  0.5431100000000 1.0
C      1  0.4510500000000  0.5078200000000  0.4218490000000 1.0
C      1  0.5772360000000  0.5754060000000  0.4610820000000 1.0
C      1  0.4148320000000  0.5493520000000  0.4405380000000 1.0
C      1  0.5280110000000  0.5756380000000  0.4296260000000 1.0
C      1  0.4917320000000  0.4989130000000  0.4272030000000 1.0
C      1  0.4189810000000  0.5367820000000  0.5768600000000 1.0
C      1  0.5333750000000  0.4271420000000  0.4348140000000 1.0
C      1  0.4146270000000  0.5252960000000  0.4974330000000 1.0
C      1  0.4598140000000  0.4734390000000  0.6052910000000 1.0
C      1  0.5377850000000  0.5949830000000  0.4775400000000 1.0
C      1  0.4432280000000  0.5758100000000  0.4937110000000 1.0
C      1  0.4569510000000  0.4425080000000  0.5618950000000 1.0
C      1  0.5857550000000  0.5091170000000  0.5755950000000 1.0
C      1  0.5815290000000  0.4497280000000  0.4875880000000 1.0
C      1  0.5849270000000  0.5097120000000  0.4316250000000 1.0
C      1  0.4878380000000  0.5213450000000  0.5002580000000 1.0
C      1  0.4966460000000  0.4610300000000  0.4445710000000 1.0
C      1  0.5854710000000  0.5523270000000  0.5182320000000 1.0
C      1  0.5375780000000  0.5078870000000  0.5601930000000 1.0
C      1  0.4403610000000  0.5839270000000  0.5209220000000 1.0
C      1  0.4070200000000  0.4749820000000  0.4763150000000 1.0
C      1  0.6089030000000  0.5354060000000  0.5252960000000 1.0
C      1  0.5551340000000  0.4444470000000  0.4454050000000 1.0
C      1  0.5490640000000  0.5852260000000  0.4521010000000 1.0
C      1  0.5565940000000  0.4377760000000  0.4754760000000 1.0
C      1  0.4262040000000  0.4304140000000  0.4925660000000 1.0
C      1  0.5687930000000  0.5273770000000  0.4132000000000 1.0
C      1  0.4881470000000  0.5411390000000  0.4579110000000 1.0
C      1  0.5258090000000  0.3899410000000  0.5208180000000 1.0
C      1  0.5589840000000  0.5178940000000  0.5772880000000 1.0
C      1  0.5185620000000  0.4783120000000  0.4280830000000 1.0
C      1  0.5361450000000  0.4841490000000  0.5961850000000 1.0
C      1  0.5345600000000  0.4804710000000  0.5528510000000 1.0
C      1  0.5510840000000  0.5477410000000  0.4928280000000 1.0
C      1  0.4619800000000  0.4083090000000  0.5226730000000 1.0
C      1  0.4249620000000  0.5444550000000  0.5486760000000 1.0
C      1  0.5074220000000  0.4324800000000  0.4474280000000 1.0
C      1  0.5176910000000  0.5679900000000  0.5637010000000 1.0
C      1  0.4053230000000  0.4508450000000  0.4939600000000 1.0
C      1  0.5004690000000  0.5643400000000  0.5022740000000 1.0
C      1  0.3899980000000  0.4879190000000  0.5201540000000 1.0
C      1  0.5849840000000  0.4546110000000  0.4380980000000 1.0
C      1  0.5582590000000  0.5464990000000  0.5341410000000 1.0
C      1  0.5178730000000  0.4564720000000  0.4055080000000 1.0
C      1  0.5902450000000  0.4804320000000  0.4223770000000 1.0
C      1  0.4747890000000  0.5229610000000  0.5918520000000 1.0
C      1  0.5638590000000  0.5136820000000  0.4544700000000 1.0
C      1  0.5129790000000  0.5432980000000  0.5784020000000 1.0
C      1  0.5207880000000  0.5483710000000  0.4145940000000 1.0
C      1  0.4649030000000  0.5079010000000  0.5103800000000 1.0
C      1  0.4710620000000  0.4197110000000  0.5489860000000 1.0
C      1  0.4597000000000  0.5359980000000  0.4183880000000 1.0
C      1  0.5828810000000  0.4976700000000  0.5067630000000 1.0
C      1  0.4115210000000  0.4530630000000  0.5443730000000 1.0
C      1  0.5285930000000  0.4988250000000  0.4038990000000 1.0
C      1  0.5376630000000  0.5291780000000  0.5143170000000 1.0
C      1  0.4681100000000  0.4130880000000  0.4723460000000 1.0
C      1  0.4812280000000  0.4465450000000  0.5183300000000 1.0
C      1  0.5195650000000  0.4502210000000  0.5778030000000 1.0
C      1  0.5056270000000  0.3854110000000  0.5677620000000 1.0
C      1  0.5144280000000  0.5102290000000  0.5028450000000 1.0
C      1  0.5507370000000  0.4590370000000  0.5851370000000 1.0
C      1  0.4879070000000  0.4966090000000  0.5709800000000 1.0
C      1  0.4887740000000  0.5116570000000  0.4003600000000 1.0
C      1  0.5065670000000  0.4873440000000  0.5968040000000 1.0
C      1  0.4782570000000  0.4052880000000  0.4986260000000 1.0
C      1  0.4448580000000  0.4304660000000  0.4692260000000 1.0
C      1  0.4957680000000  0.4721800000000  0.4739740000000 1.0
C      1  0.5701350000000  0.5357520000000  0.4728860000000 1.0
C      1  0.5283130000000  0.4614340000000  0.5105680000000 1.0
END
