TITL C-862134-6730-688 0.000268209281100329 125000 -751.778351988887 0 0 135 (C5) n - 1
REM
REM in /home/nfs/bkarasulu/CARBON/AIRSS/Generating-Clusters/TERSOFF/Higher-Symm/FIRE-HFTN
REM
REM
REM
REM
REM
REM ./C.cell (b20cbc046b6831c77cfcea5457e17084)
REM AIRSS Version 0.9.1 bugfix July 2018 build 013d7b7c2542+ Fri, 06 Jul 2018 19:26:36 +0100
REM compiler GCC version 9.2.1 20190827 (Red Hat 9.2.1-1)
REM options -cpp -mtune=generic -march=x86-64 -g -O0 -fpre-include=/usr/include/finclude/math-vector-fortran.h
REM seed -1924257393 50086525 -1277550829 485576901 54942296 213018283 -192531439 -310505395 -1502404404 205510348 554611535 704110954 -775383610 644133551 -831044822 1698933200 -2036458839 -14153445 -1425889417 -1147298791 1332079791 1235131417 616552534 138774795 488606398 908281119 1639550703 -1018790617 1842942082 -1378528923 553675227 1192979512 -1914050771
REM
CELL 1.54180   50.00000   50.00000   50.00000   90.00000   90.00000   90.00000
LATT -1
SFAC C  
C      1  0.5820060000000  0.4599330000000  0.4762110000000 1.0
C      1  0.5634470000000  0.5656110000000  0.4762110000000 1.0
C      1  0.4572070000000  0.5806160000000  0.4762110000000 1.0
C      1  0.4101050000000  0.4842130000000  0.4762110000000 1.0
C      1  0.4872350000000  0.4096270000000  0.4762110000000 1.0
C      1  0.5213490000000  0.4384870000000  0.5218050000000 1.0
C      1  0.5651000000000  0.5012950000000  0.5218050000000 1.0
C      1  0.5188850000000  0.5623140000000  0.5218050000000 1.0
C      1  0.4465720000000  0.5372170000000  0.5218050000000 1.0
C      1  0.4480950000000  0.4606880000000  0.5218050000000 1.0
C      1  0.3989930000000  0.4811460000000  0.5249350000000 1.0
C      1  0.4867180000000  0.3981110000000  0.5249350000000 1.0
C      1  0.5927980000000  0.4558830000000  0.5249350000000 1.0
C      1  0.5706340000000  0.5746230000000  0.5249350000000 1.0
C      1  0.4508560000000  0.5902370000000  0.5249350000000 1.0
C      1  0.4870350000000  0.5630840000000  0.5316530000000 1.0
C      1  0.4359970000000  0.5071630000000  0.5316530000000 1.0
C      1  0.4734090000000  0.4413430000000  0.5316530000000 1.0
C      1  0.5475690000000  0.4565850000000  0.5316530000000 1.0
C      1  0.5559900000000  0.5318250000000  0.5316530000000 1.0
C      1  0.5436500000000  0.5038050000000  0.5603990000000 1.0
C      1  0.5098700000000  0.5426900000000  0.5603990000000 1.0
C      1  0.4624500000000  0.5225780000000  0.5603990000000 1.0
C      1  0.4669230000000  0.4712650000000  0.5603990000000 1.0
C      1  0.5171080000000  0.4596620000000  0.5603990000000 1.0
C      1  0.5040490000000  0.4310900000000  0.4303670000000 1.0
C      1  0.5667880000000  0.4825570000000  0.4303670000000 1.0
C      1  0.5372280000000  0.5581290000000  0.4303670000000 1.0
C      1  0.4562200000000  0.5533690000000  0.4303670000000 1.0
C      1  0.4357140000000  0.4748550000000  0.4303670000000 1.0
C      1  0.4718090000000  0.4912510000000  0.5883770000000 1.0
C      1  0.4996090000000  0.4704850000000  0.5883770000000 1.0
C      1  0.5279500000000  0.4905070000000  0.5883770000000 1.0
C      1  0.5176650000000  0.5236480000000  0.5883770000000 1.0
C      1  0.4829680000000  0.5241080000000  0.5883770000000 1.0
C      1  0.4926560000000  0.5246750000000  0.4072240000000 1.0
C      1  0.4742630000000  0.5006410000000  0.4072240000000 1.0
C      1  0.4914380000000  0.4757210000000  0.4072240000000 1.0
C      1  0.5204450000000  0.4843540000000  0.4072240000000 1.0
C      1  0.5211980000000  0.5146090000000  0.4072240000000 1.0
C      1  0.5792210000000  0.4296220000000  0.5194060000000 1.0
C      1  0.5914140000000  0.5535950000000  0.5194060000000 1.0
C      1  0.4772760000000  0.6035020000000  0.5194060000000 1.0
C      1  0.3945420000000  0.5103720000000  0.5194060000000 1.0
C      1  0.4575470000000  0.4029090000000  0.5194060000000 1.0
C      1  0.5471240000000  0.4778370000000  0.5128710000000 1.0
C      1  0.5356400000000  0.5379690000000  0.5128710000000 1.0
C      1  0.4749030000000  0.5456290000000  0.5128710000000 1.0
C      1  0.4488490000000  0.4902320000000  0.5128710000000 1.0
C      1  0.4934840000000  0.4483340000000  0.5128710000000 1.0
C      1  0.5533300000000  0.5039760000000  0.4808000000000 1.0
C      1  0.5126980000000  0.5519480000000  0.4808000000000 1.0
C      1  0.4545180000000  0.5281290000000  0.4808000000000 1.0
C      1  0.4591930000000  0.4654360000000  0.4808000000000 1.0
C      1  0.5202620000000  0.4505090000000  0.4808000000000 1.0
C      1  0.5392320000000  0.4381090000000  0.4637470000000 1.0
C      1  0.5709850000000  0.5181870000000  0.4637470000000 1.0
C      1  0.5046390000000  0.5731310000000  0.4637470000000 1.0
C      1  0.4318820000000  0.5270100000000  0.4637470000000 1.0
C      1  0.4532620000000  0.4435630000000  0.4637470000000 1.0
C      1  0.4886480000000  0.4290200000000  0.5569310000000 1.0
C      1  0.5639980000000  0.4672690000000  0.5569310000000 1.0
C      1  0.5509050000000  0.5507510000000  0.5569310000000 1.0
C      1  0.4674640000000  0.5640970000000  0.5569310000000 1.0
C      1  0.4289860000000  0.4888630000000  0.5569310000000 1.0
C      1  0.4538160000000  0.4504940000000  0.4347990000000 1.0
C      1  0.5328110000000  0.4407780000000  0.4347990000000 1.0
C      1  0.5664630000000  0.5129040000000  0.4347990000000 1.0
C      1  0.5082650000000  0.5671970000000  0.4347990000000 1.0
C      1  0.4386450000000  0.5286260000000  0.4347990000000 1.0
C      1  0.3964760000000  0.5110520000000  0.4887280000000 1.0
C      1  0.4574980000000  0.4049580000000  0.4887280000000 1.0
C      1  0.5772570000000  0.4302090000000  0.4887280000000 1.0
C      1  0.5902490000000  0.5519090000000  0.4887280000000 1.0
C      1  0.4785200000000  0.6018730000000  0.4887280000000 1.0
C      1  0.5061600000000  0.5976080000000  0.4797120000000 1.0
C      1  0.4090730000000  0.5360210000000  0.4797120000000 1.0
C      1  0.4376440000000  0.4246540000000  0.4797120000000 1.0
C      1  0.5523890000000  0.4174130000000  0.4797120000000 1.0
C      1  0.5947340000000  0.5243040000000  0.4797120000000 1.0
C      1  0.5760010000000  0.5002890000000  0.5528440000000 1.0
C      1  0.5232110000000  0.5723700000000  0.5528440000000 1.0
C      1  0.4383440000000  0.5444380000000  0.5528440000000 1.0
C      1  0.4386840000000  0.4550940000000  0.5528440000000 1.0
C      1  0.5237600000000  0.4278080000000  0.5528440000000 1.0
C      1  0.5248400000000  0.5028740000000  0.5381640000000 1.0
C      1  0.5049430000000  0.5245120000000  0.5381640000000 1.0
C      1  0.4782150000000  0.5122760000000  0.5381640000000 1.0
C      1  0.4815930000000  0.4830750000000  0.5381640000000 1.0
C      1  0.5104090000000  0.4772640000000  0.5381640000000 1.0
C      1  0.4860810000000  0.5455390000000  0.4281610000000 1.0
C      1  0.4523880000000  0.5008350000000  0.4281610000000 1.0
C      1  0.4844930000000  0.4549770000000  0.4281610000000 1.0
C      1  0.5380280000000  0.4713400000000  0.4281610000000 1.0
C      1  0.5390090000000  0.5273100000000  0.4281610000000 1.0
C      1  0.5054820000000  0.4001440000000  0.5011620000000 1.0
C      1  0.5966630000000  0.4743560000000  0.5011620000000 1.0
C      1  0.5542590000000  0.5840080000000  0.5011620000000 1.0
C      1  0.4368710000000  0.5775630000000  0.5011620000000 1.0
C      1  0.4067250000000  0.4639290000000  0.5011620000000 1.0
C      1  0.4103840000000  0.4763970000000  0.4465780000000 1.0
C      1  0.4947540000000  0.4074760000000  0.4465780000000 1.0
C      1  0.5863740000000  0.4664200000000  0.4465780000000 1.0
C      1  0.5586280000000  0.5717700000000  0.4465780000000 1.0
C      1  0.4498600000000  0.5779370000000  0.4465780000000 1.0
C      1  0.5531910000000  0.4151500000000  0.5355300000000 1.0
C      1  0.5971340000000  0.5243670000000  0.5355300000000 1.0
C      1  0.5068420000000  0.5999100000000  0.5355300000000 1.0
C      1  0.4070940000000  0.5373810000000  0.5355300000000 1.0
C      1  0.4357400000000  0.4231930000000  0.5355300000000 1.0
C      1  0.5447530000000  0.5388620000000  0.5834740000000 1.0
C      1  0.4768690000000  0.5545720000000  0.5834740000000 1.0
C      1  0.4409510000000  0.4948650000000  0.5834740000000 1.0
C      1  0.4866370000000  0.4422550000000  0.5834740000000 1.0
C      1  0.5507900000000  0.4694460000000  0.5834740000000 1.0
C      1  0.5343890000000  0.4118270000000  0.5049440000000 1.0
C      1  0.5944850000000  0.5054590000000  0.5049440000000 1.0
C      1  0.5240060000000  0.5915470000000  0.5049440000000 1.0
C      1  0.4203520000000  0.5511200000000  0.5049440000000 1.0
C      1  0.4267690000000  0.4400470000000  0.5049440000000 1.0
C      1  0.5261740000000  0.4838240000000  0.4560760000000 1.0
C      1  0.5234730000000  0.5198950000000  0.4560760000000 1.0
C      1  0.4883330000000  0.5284720000000  0.4560760000000 1.0
C      1  0.4693160000000  0.4977020000000  0.4560760000000 1.0
C      1  0.4927040000000  0.4701080000000  0.4560760000000 1.0
C      1  0.5251100000000  0.5104600000000  0.4969440000000 1.0
C      1  0.4978110000000  0.5271130000000  0.4969440000000 1.0
C      1  0.4735370000000  0.5062970000000  0.4969440000000 1.0
C      1  0.4858340000000  0.4767780000000  0.4969440000000 1.0
C      1  0.5177080000000  0.4793520000000  0.4969440000000 1.0
C      1  0.5545440000000  0.4743720000000  0.4781580000000 1.0
C      1  0.5412290000000  0.5439550000000  0.4781580000000 1.0
C      1  0.4709370000000  0.5527940000000  0.4781580000000 1.0
C      1  0.4408090000000  0.4886740000000  0.4781580000000 1.0
C      1  0.4924810000000  0.4402060000000  0.4781580000000 1.0
END
