TITL C-862501-1041-1382 -0.0334141633473674 125000 -694.27222638613 0 0 123 (C1) n - 1
REM
REM in /home/nfs/bkarasulu/CARBON/AIRSS/Generating-Clusters/TERSOFF/Higher-Symm/FIRE-HFTN
REM
REM
REM
REM
REM
REM ./C.cell (b20cbc046b6831c77cfcea5457e17084)
REM AIRSS Version 0.9.1 bugfix July 2018 build 013d7b7c2542+ Fri, 06 Jul 2018 19:26:36 +0100
REM compiler GCC version 9.2.1 20190827 (Red Hat 9.2.1-1)
REM options -cpp -mtune=generic -march=x86-64 -g -O0 -fpre-include=/usr/include/finclude/math-vector-fortran.h
REM seed -213080057 -1266775362 -85866595 1751336859 1711997078 1145105457 -1638170870 1661589321 1715475750 1880375581 1569426554 -326086327 1255435435 1539440712 442508761 -559789468 -411033964 -2105166736 595099740 -177498293 -937631243 808248898 989303290 -1107067998 -844592054 -366171301 908721272 -317070075 -1016352473 227538767 -115877948 -589028799 267018071
REM
CELL 1.54180   50.00000   50.00000   50.00000   90.00000   90.00000   90.00000
LATT -1
SFAC C  
C      1  0.5300110000000  0.5167070000000  0.5471130000000 1.0
C      1  0.4722070000000  0.5179430000000  0.5463710000000 1.0
C      1  0.5002090000000  0.4671560000000  0.5456530000000 1.0
C      1  0.5301880000000  0.4844380000000  0.5464860000000 1.0
C      1  0.4720660000000  0.4833650000000  0.5453630000000 1.0
C      1  0.5001400000000  0.5342670000000  0.5459800000000 1.0
C      1  0.4645970000000  0.4072120000000  0.5173580000000 1.0
C      1  0.6003440000000  0.5160840000000  0.5205260000000 1.0
C      1  0.4377830000000  0.5793060000000  0.5197460000000 1.0
C      1  0.4636710000000  0.5945480000000  0.5183960000000 1.0
C      1  0.6009340000000  0.4861380000000  0.5199250000000 1.0
C      1  0.4382970000000  0.4220020000000  0.5174090000000 1.0
C      1  0.4807380000000  0.5783720000000  0.4332560000000 1.0
C      1  0.4394670000000  0.4442140000000  0.4321200000000 1.0
C      1  0.5765770000000  0.4750670000000  0.4348290000000 1.0
C      1  0.4812480000000  0.4201630000000  0.4325240000000 1.0
C      1  0.4389130000000  0.5538560000000  0.4352770000000 1.0
C      1  0.5761770000000  0.5238310000000  0.4367600000000 1.0
C      1  0.5484200000000  0.5246090000000  0.4789880000000 1.0
C      1  0.4542850000000  0.5292290000000  0.4770670000000 1.0
C      1  0.4976030000000  0.4438790000000  0.4738610000000 1.0
C      1  0.5473170000000  0.4733840000000  0.4766470000000 1.0
C      1  0.4517470000000  0.4709990000000  0.4729850000000 1.0
C      1  0.4988180000000  0.5559910000000  0.4747630000000 1.0
C      1  0.5223100000000  0.5745680000000  0.4453310000000 1.0
C      1  0.4228490000000  0.4821710000000  0.4446290000000 1.0
C      1  0.5461910000000  0.4420710000000  0.4487030000000 1.0
C      1  0.5222320000000  0.4252150000000  0.4454230000000 1.0
C      1  0.4281150000000  0.5104780000000  0.4501150000000 1.0
C      1  0.5442680000000  0.5558450000000  0.4512320000000 1.0
C      1  0.4745900000000  0.5151040000000  0.4601680000000 1.0
C      1  0.4998160000000  0.4701440000000  0.4585490000000 1.0
C      1  0.5256280000000  0.5145790000000  0.4620630000000 1.0
C      1  0.4738670000000  0.4855600000000  0.4580460000000 1.0
C      1  0.5007300000000  0.5298600000000  0.4599340000000 1.0
C      1  0.5251950000000  0.4848900000000  0.4607850000000 1.0
C      1  0.4717960000000  0.4842220000000  0.4161560000000 1.0
C      1  0.5262270000000  0.4833860000000  0.4188760000000 1.0
C      1  0.4997110000000  0.5307550000000  0.4179910000000 1.0
C      1  0.4719080000000  0.5148720000000  0.4182990000000 1.0
C      1  0.5260860000000  0.5154230000000  0.4201100000000 1.0
C      1  0.4997430000000  0.4681060000000  0.4166330000000 1.0
C      1  0.4966490000000  0.5670120000000  0.5456310000000 1.0
C      1  0.4454040000000  0.4642200000000  0.5447290000000 1.0
C      1  0.5602630000000  0.4712690000000  0.5466630000000 1.0
C      1  0.4970280000000  0.4347160000000  0.5449030000000 1.0
C      1  0.4458660000000  0.5369460000000  0.5462410000000 1.0
C      1  0.5596150000000  0.5298450000000  0.5470720000000 1.0
C      1  0.5587640000000  0.5651340000000  0.4815030000000 1.0
C      1  0.4139110000000  0.5186780000000  0.4809970000000 1.0
C      1  0.5306200000000  0.4187200000000  0.4799360000000 1.0
C      1  0.5608460000000  0.4339430000000  0.4806540000000 1.0
C      1  0.4126280000000  0.4846660000000  0.4793900000000 1.0
C      1  0.5301920000000  0.5833530000000  0.4796690000000 1.0
C      1  0.5492130000000  0.5329280000000  0.4325550000000 1.0
C      1  0.4451630000000  0.5259760000000  0.4310780000000 1.0
C      1  0.5027000000000  0.4375860000000  0.4228610000000 1.0
C      1  0.5498000000000  0.4655810000000  0.4298900000000 1.0
C      1  0.4437340000000  0.4714460000000  0.4220770000000 1.0
C      1  0.5023300000000  0.5613210000000  0.4234590000000 1.0
C      1  0.5983940000000  0.5117160000000  0.4788160000000 1.0
C      1  0.4380640000000  0.5780290000000  0.4777940000000 1.0
C      1  0.4618880000000  0.4070240000000  0.4754900000000 1.0
C      1  0.5976730000000  0.4832670000000  0.4781700000000 1.0
C      1  0.4374570000000  0.4215530000000  0.4754640000000 1.0
C      1  0.4625650000000  0.5924350000000  0.4764950000000 1.0
C      1  0.5617150000000  0.4254420000000  0.5336790000000 1.0
C      1  0.5346890000000  0.5928050000000  0.5320960000000 1.0
C      1  0.4035980000000  0.4840430000000  0.5319190000000 1.0
C      1  0.5604150000000  0.5754020000000  0.5340150000000 1.0
C      1  0.5352770000000  0.4089910000000  0.5319960000000 1.0
C      1  0.4055040000000  0.5151380000000  0.5336690000000 1.0
C      1  0.5250670000000  0.4252970000000  0.5618370000000 1.0
C      1  0.5534620000000  0.5590290000000  0.5632560000000 1.0
C      1  0.4236360000000  0.5170800000000  0.5625320000000 1.0
C      1  0.5249540000000  0.5760490000000  0.5624360000000 1.0
C      1  0.5537430000000  0.4420330000000  0.5627710000000 1.0
C      1  0.4232650000000  0.4839110000000  0.5616800000000 1.0
C      1  0.5759380000000  0.5325110000000  0.5229860000000 1.0
C      1  0.4352790000000  0.5498790000000  0.5222120000000 1.0
C      1  0.4914360000000  0.4192950000000  0.5206180000000 1.0
C      1  0.5772350000000  0.4685540000000  0.5228190000000 1.0
C      1  0.4346790000000  0.4512720000000  0.5206010000000 1.0
C      1  0.4907070000000  0.5828740000000  0.5215580000000 1.0
C      1  0.5009870000000  0.5320460000000  0.5805250000000 1.0
C      1  0.4730850000000  0.4850050000000  0.5799730000000 1.0
C      1  0.5275010000000  0.4843310000000  0.5810030000000 1.0
C      1  0.5009180000000  0.4689040000000  0.5801830000000 1.0
C      1  0.4731800000000  0.5158120000000  0.5808650000000 1.0
C      1  0.5274700000000  0.5165910000000  0.5815320000000 1.0
C      1  0.4462080000000  0.5298620000000  0.5875580000000 1.0
C      1  0.5021370000000  0.4383500000000  0.5863560000000 1.0
C      1  0.5530190000000  0.5331190000000  0.5883400000000 1.0
C      1  0.4460940000000  0.4707110000000  0.5861440000000 1.0
C      1  0.5022960000000  0.5625310000000  0.5869340000000 1.0
C      1  0.5530530000000  0.4679160000000  0.5878260000000 1.0
C      1  0.4922030000000  0.5462230000000  0.5016880000000 1.0
C      1  0.4650860000000  0.4701820000000  0.4992310000000 1.0
C      1  0.5432340000000  0.4834210000000  0.5037520000000 1.0
C      1  0.4891970000000  0.4553610000000  0.4997710000000 1.0
C      1  0.4676790000000  0.5319870000000  0.5030060000000 1.0
C      1  0.5443280000000  0.5118400000000  0.5051790000000 1.0
C      1  0.4513160000000  0.5569330000000  0.5707950000000 1.0
C      1  0.4764860000000  0.4294740000000  0.5692970000000 1.0
C      1  0.5740420000000  0.5151550000000  0.5718560000000 1.0
C      1  0.4512690000000  0.4439890000000  0.5692710000000 1.0
C      1  0.4764280000000  0.5716480000000  0.5705980000000 1.0
C      1  0.5741700000000  0.4860280000000  0.5717680000000 1.0
C      1  0.4844090000000  0.5801640000000  0.4624710000000 1.0
C      1  0.4373200000000  0.4465260000000  0.4613610000000 1.0
C      1  0.5756320000000  0.4710540000000  0.4645170000000 1.0
C      1  0.4840890000000  0.4191370000000  0.4618480000000 1.0
C      1  0.4373680000000  0.5522210000000  0.4651620000000 1.0
C      1  0.5767100000000  0.5261480000000  0.4665150000000 1.0
C      1  0.5726090000000  0.4408780000000  0.5098500000000 1.0
C      1  0.5166480000000  0.5927540000000  0.5073970000000 1.0
C      1  0.4124290000000  0.4684790000000  0.5071770000000 1.0
C      1  0.5707930000000  0.5596510000000  0.5102620000000 1.0
C      1  0.5174290000000  0.4093050000000  0.5072430000000 1.0
C      1  0.4137350000000  0.5319870000000  0.5098470000000 1.0
C      1  0.5853700000000  0.4999610000000  0.4245430000000 1.0
C      1  0.4544870000000  0.5742740000000  0.4233960000000 1.0
C      1  0.4552030000000  0.4230620000000  0.4217980000000 1.0
END
