TITL C-862134-6730-1481 0.00431244908473533 125000 -865.590157595274 0 0 150 (C1) n - 1
REM
REM in /home/nfs/bkarasulu/CARBON/AIRSS/Generating-Clusters/TERSOFF/Higher-Symm/FIRE-HFTN
REM
REM
REM
REM
REM
REM ./C.cell (b20cbc046b6831c77cfcea5457e17084)
REM AIRSS Version 0.9.1 bugfix July 2018 build 013d7b7c2542+ Fri, 06 Jul 2018 19:26:36 +0100
REM compiler GCC version 9.2.1 20190827 (Red Hat 9.2.1-1)
REM options -cpp -mtune=generic -march=x86-64 -g -O0 -fpre-include=/usr/include/finclude/math-vector-fortran.h
REM seed -410083754 1234676113 -1382461551 -712579299 933925539 -1569759755 1140829450 266670055 -816510612 1051671221 -880554695 1936146731 944296177 1347000273 1498546889 -218000644 845651881 -1830932697 424622048 1788339393 512169197 -2060903643 -1091518453 504250871 942431815 -1117227966 151896623 1211742866 -336542606 159422170 1731859492 -1467518567 1245443720
REM
CELL 1.54180   50.00000   50.00000   50.00000   90.00000   90.00000   90.00000
LATT -1
SFAC C  
C      1  0.4210720000000  0.4509080000000  0.5543560000000 1.0
C      1  0.4074720000000  0.4432440000000  0.4757440000000 1.0
C      1  0.4623400000000  0.4479510000000  0.4124480000000 1.0
C      1  0.5443060000000  0.4443390000000  0.4146340000000 1.0
C      1  0.5941600000000  0.4459850000000  0.4803160000000 1.0
C      1  0.5704730000000  0.4468380000000  0.5650400000000 1.0
C      1  0.4947940000000  0.4457430000000  0.5968140000000 1.0
C      1  0.6102070000000  0.4688720000000  0.4680930000000 1.0
C      1  0.5891010000000  0.4695380000000  0.5701520000000 1.0
C      1  0.5038950000000  0.4660260000000  0.6166530000000 1.0
C      1  0.4128790000000  0.4760280000000  0.5687760000000 1.0
C      1  0.3858050000000  0.4629700000000  0.4800870000000 1.0
C      1  0.4471840000000  0.4715820000000  0.4006490000000 1.0
C      1  0.5450630000000  0.4653520000000  0.3935160000000 1.0
C      1  0.4283310000000  0.5097460000000  0.5339510000000 1.0
C      1  0.4192450000000  0.5101560000000  0.4731600000000 1.0
C      1  0.4783170000000  0.5062780000000  0.4179120000000 1.0
C      1  0.5440460000000  0.5136830000000  0.4285440000000 1.0
C      1  0.5865670000000  0.5046580000000  0.4926000000000 1.0
C      1  0.5551980000000  0.5066250000000  0.5675160000000 1.0
C      1  0.4899480000000  0.5150830000000  0.5852260000000 1.0
C      1  0.4664050000000  0.5430420000000  0.4825040000000 1.0
C      1  0.4818040000000  0.5385000000000  0.4549850000000 1.0
C      1  0.5264160000000  0.5431850000000  0.4774070000000 1.0
C      1  0.5526290000000  0.5386400000000  0.4904600000000 1.0
C      1  0.5349140000000  0.5367340000000  0.5353220000000 1.0
C      1  0.4839140000000  0.5480240000000  0.5365120000000 1.0
C      1  0.4698990000000  0.5334780000000  0.5134740000000 1.0
C      1  0.4561500000000  0.4644040000000  0.5357310000000 1.0
C      1  0.4433680000000  0.4657830000000  0.4847160000000 1.0
C      1  0.4755420000000  0.4639320000000  0.4489420000000 1.0
C      1  0.5273320000000  0.4657750000000  0.4465120000000 1.0
C      1  0.5570440000000  0.4640520000000  0.4880150000000 1.0
C      1  0.5449950000000  0.4633960000000  0.5360820000000 1.0
C      1  0.4985090000000  0.4673020000000  0.5609700000000 1.0
C      1  0.5715000000000  0.5618940000000  0.4522650000000 1.0
C      1  0.5788780000000  0.5599250000000  0.5297230000000 1.0
C      1  0.5187400000000  0.5604210000000  0.5766380000000 1.0
C      1  0.4505210000000  0.5700520000000  0.5721890000000 1.0
C      1  0.4211600000000  0.5499140000000  0.5035770000000 1.0
C      1  0.4436340000000  0.5726320000000  0.4389540000000 1.0
C      1  0.5106990000000  0.5529730000000  0.4198490000000 1.0
C      1  0.4257490000000  0.5542420000000  0.5323820000000 1.0
C      1  0.4374830000000  0.5820700000000  0.4695180000000 1.0
C      1  0.4839780000000  0.5623540000000  0.4094960000000 1.0
C      1  0.5425000000000  0.5700380000000  0.4412690000000 1.0
C      1  0.5805660000000  0.5774560000000  0.5019240000000 1.0
C      1  0.5478460000000  0.5670370000000  0.5737740000000 1.0
C      1  0.4739090000000  0.5850060000000  0.5829100000000 1.0
C      1  0.5006950000000  0.4954690000000  0.4049620000000 1.0
C      1  0.5670110000000  0.4976600000000  0.4392150000000 1.0
C      1  0.5921550000000  0.4935630000000  0.5180080000000 1.0
C      1  0.5386520000000  0.4968490000000  0.5881450000000 1.0
C      1  0.4638660000000  0.5007620000000  0.5829330000000 1.0
C      1  0.4105420000000  0.4971490000000  0.5162880000000 1.0
C      1  0.4262900000000  0.4975910000000  0.4474000000000 1.0
C      1  0.4550280000000  0.5937320000000  0.5215530000000 1.0
C      1  0.4814020000000  0.5750960000000  0.4755530000000 1.0
C      1  0.4909540000000  0.5895340000000  0.4498190000000 1.0
C      1  0.5235190000000  0.5711590000000  0.4998910000000 1.0
C      1  0.5363300000000  0.5884640000000  0.5278480000000 1.0
C      1  0.5051380000000  0.5932620000000  0.5425890000000 1.0
C      1  0.4828560000000  0.5817370000000  0.5245150000000 1.0
C      1  0.5096020000000  0.4702220000000  0.4154810000000 1.0
C      1  0.5604800000000  0.4710210000000  0.4524850000000 1.0
C      1  0.5761270000000  0.4681370000000  0.5183230000000 1.0
C      1  0.5264950000000  0.4712190000000  0.5816390000000 1.0
C      1  0.4658370000000  0.4724120000000  0.5697450000000 1.0
C      1  0.4177440000000  0.4710810000000  0.5063050000000 1.0
C      1  0.4399520000000  0.4701970000000  0.4512710000000 1.0
C      1  0.4312610000000  0.5143550000000  0.4241020000000 1.0
C      1  0.5182820000000  0.5120510000000  0.3869860000000 1.0
C      1  0.5913500000000  0.5115370000000  0.4449880000000 1.0
C      1  0.5954850000000  0.5103580000000  0.5416690000000 1.0
C      1  0.5255310000000  0.5149430000000  0.6075190000000 1.0
C      1  0.4395740000000  0.5165290000000  0.5812060000000 1.0
C      1  0.3842450000000  0.5108660000000  0.5071310000000 1.0
C      1  0.4549900000000  0.5478590000000  0.5499850000000 1.0
C      1  0.4408700000000  0.5583130000000  0.4851470000000 1.0
C      1  0.4661140000000  0.5496160000000  0.4323230000000 1.0
C      1  0.5120510000000  0.5532810000000  0.4510670000000 1.0
C      1  0.5721060000000  0.5578940000000  0.4807120000000 1.0
C      1  0.5531910000000  0.5475160000000  0.5178780000000 1.0
C      1  0.5141390000000  0.5518690000000  0.5475100000000 1.0
C      1  0.4208110000000  0.4293950000000  0.5029450000000 1.0
C      1  0.4489670000000  0.4318710000000  0.4368650000000 1.0
C      1  0.5152250000000  0.4291410000000  0.4215150000000 1.0
C      1  0.5725240000000  0.4320530000000  0.4623410000000 1.0
C      1  0.5727950000000  0.4306800000000  0.5367100000000 1.0
C      1  0.5182200000000  0.4302780000000  0.5781000000000 1.0
C      1  0.4477670000000  0.4349250000000  0.5644360000000 1.0
C      1  0.5593580000000  0.5981230000000  0.5082990000000 1.0
C      1  0.5577780000000  0.5764170000000  0.5479740000000 1.0
C      1  0.5010780000000  0.5845270000000  0.5711370000000 1.0
C      1  0.4349070000000  0.5839060000000  0.5427940000000 1.0
C      1  0.4457150000000  0.6023330000000  0.4927970000000 1.0
C      1  0.4719300000000  0.5904480000000  0.4253840000000 1.0
C      1  0.5209480000000  0.5939960000000  0.4458970000000 1.0
C      1  0.5335540000000  0.4861400000000  0.4948100000000 1.0
C      1  0.5284500000000  0.4887330000000  0.5292680000000 1.0
C      1  0.4982730000000  0.4897670000000  0.5380550000000 1.0
C      1  0.4713590000000  0.4855020000000  0.5209890000000 1.0
C      1  0.4662010000000  0.4873750000000  0.4893330000000 1.0
C      1  0.4873160000000  0.4878530000000  0.4647020000000 1.0
C      1  0.5181550000000  0.4889240000000  0.4653490000000 1.0
C      1  0.4204790000000  0.4449980000000  0.4473010000000 1.0
C      1  0.4923540000000  0.4462720000000  0.4056990000000 1.0
C      1  0.5687550000000  0.4460900000000  0.4335970000000 1.0
C      1  0.5950290000000  0.4426740000000  0.5123260000000 1.0
C      1  0.5457240000000  0.4466990000000  0.5834700000000 1.0
C      1  0.4641230000000  0.4479990000000  0.5900310000000 1.0
C      1  0.4097840000000  0.4484470000000  0.5260300000000 1.0
C      1  0.5283490000000  0.5334930000000  0.4072310000000 1.0
C      1  0.5904800000000  0.5417950000000  0.4388290000000 1.0
C      1  0.5995360000000  0.5403340000000  0.5397060000000 1.0
C      1  0.5092750000000  0.5398650000000  0.5958190000000 1.0
C      1  0.4376160000000  0.5458820000000  0.5887960000000 1.0
C      1  0.4031010000000  0.5304140000000  0.4917730000000 1.0
C      1  0.4252420000000  0.5456210000000  0.4236890000000 1.0
C      1  0.4920190000000  0.5167190000000  0.5534010000000 1.0
C      1  0.4563190000000  0.5103500000000  0.5241040000000 1.0
C      1  0.4499370000000  0.5130490000000  0.4826930000000 1.0
C      1  0.4814670000000  0.5108900000000  0.4461540000000 1.0
C      1  0.5278930000000  0.5146900000000  0.4553990000000 1.0
C      1  0.5587220000000  0.5107190000000  0.4891630000000 1.0
C      1  0.5405820000000  0.5110100000000  0.5433980000000 1.0
C      1  0.5011720000000  0.4957050000000  0.6134870000000 1.0
C      1  0.4226210000000  0.5036720000000  0.5620150000000 1.0
C      1  0.3893700000000  0.4924010000000  0.4803600000000 1.0
C      1  0.4519100000000  0.5005410000000  0.4080120000000 1.0
C      1  0.5421740000000  0.4948370000000  0.3984110000000 1.0
C      1  0.6024460000000  0.4980150000000  0.4694710000000 1.0
C      1  0.5828160000000  0.4980880000000  0.5648830000000 1.0
C      1  0.5326070000000  0.4152010000000  0.5035200000000 1.0
C      1  0.5180700000000  0.4161150000000  0.5282740000000 1.0
C      1  0.4899320000000  0.4177060000000  0.5328170000000 1.0
C      1  0.4699020000000  0.4166890000000  0.5125960000000 1.0
C      1  0.4722370000000  0.4169190000000  0.4839070000000 1.0
C      1  0.4960790000000  0.4168030000000  0.4681560000000 1.0
C      1  0.5233180000000  0.4170280000000  0.4766030000000 1.0
C      1  0.5543050000000  0.4338970000000  0.5077050000000 1.0
C      1  0.5293590000000  0.4354070000000  0.5465540000000 1.0
C      1  0.4815030000000  0.4362940000000  0.5537490000000 1.0
C      1  0.4490140000000  0.4353100000000  0.5191620000000 1.0
C      1  0.4539660000000  0.4350780000000  0.4704540000000 1.0
C      1  0.4938080000000  0.4353190000000  0.4461560000000 1.0
C      1  0.5398770000000  0.4357590000000  0.4621770000000 1.0
C      1  0.5006970000000  0.4427010000000  0.5008650000000 1.0
C      1  0.4964200000000  0.5803520000000  0.4989610000000 1.0
C      1  0.5043310000000  0.4703470000000  0.5002970000000 1.0
END
