TITL C-862127-1500-273 0.00557048539694585 125000 -205.940734056726 0 0 39 (Ci) n - 1
REM
REM in /home/nfs/bkarasulu/CARBON/AIRSS/Generating-Clusters/TERSOFF/Higher-Symm/FIRE-HFTN
REM
REM
REM
REM
REM
REM ./C.cell (b20cbc046b6831c77cfcea5457e17084)
REM AIRSS Version 0.9.1 bugfix July 2018 build 013d7b7c2542+ Fri, 06 Jul 2018 19:26:36 +0100
REM compiler GCC version 9.2.1 20190827 (Red Hat 9.2.1-1)
REM options -cpp -mtune=generic -march=x86-64 -g -O0 -fpre-include=/usr/include/finclude/math-vector-fortran.h
REM seed 702022520 762270906 -348544071 1716349618 1938072183 -437223630 -729782036 -638422769 1333906361 99921154 98640487 1373639922 807549592 -1806659951 -1274086635 1003185859 -570823878 -1969778073 -407492260 -624648371 -1389069578 783726945 -128714988 1500063810 1779193530 -1663179707 -1241809385 -1743299485 1620772977 -721610052 -787719534 1544480653 217353904
REM
CELL 1.54180   50.00000   50.00000   50.00000   90.00000   90.00000   90.00000
LATT -1
SFAC C  
C      1  0.4752120000000  0.4623480000000  0.4686580000000 1.0
C      1  0.5256370000000  0.5349080000000  0.5308000000000 1.0
C      1  0.4800850000000  0.5585070000000  0.4753560000000 1.0
C      1  0.5207640000000  0.4387490000000  0.5241010000000 1.0
C      1  0.4798040000000  0.5507260000000  0.5494280000000 1.0
C      1  0.5210450000000  0.4465310000000  0.4500300000000 1.0
C      1  0.5035430000000  0.4804810000000  0.5455000000000 1.0
C      1  0.4973060000000  0.5167750000000  0.4539580000000 1.0
C      1  0.5154430000000  0.5051810000000  0.4727720000000 1.0
C      1  0.4854060000000  0.4920750000000  0.5266850000000 1.0
C      1  0.4383970000000  0.4926970000000  0.5448730000000 1.0
C      1  0.5624520000000  0.5045590000000  0.4545840000000 1.0
C      1  0.4943200000000  0.4477490000000  0.5132360000000 1.0
C      1  0.5065290000000  0.5495070000000  0.4862210000000 1.0
C      1  0.5314950000000  0.4827760000000  0.5390980000000 1.0
C      1  0.4693540000000  0.5144800000000  0.4603590000000 1.0
C      1  0.4499420000000  0.5477260000000  0.5083400000000 1.0
C      1  0.5509060000000  0.4495300000000  0.4911170000000 1.0
C      1  0.5237380000000  0.4129460000000  0.5370780000000 1.0
C      1  0.4771110000000  0.5843100000000  0.4623790000000 1.0
C      1  0.5062310000000  0.5272910000000  0.5072650000000 1.0
C      1  0.4946180000000  0.4699650000000  0.4921930000000 1.0
C      1  0.5727430000000  0.4768050000000  0.5218170000000 1.0
C      1  0.4281060000000  0.5204510000000  0.4776410000000 1.0
C      1  0.5391020000000  0.4907080000000  0.4648740000000 1.0
C      1  0.4617470000000  0.5065480000000  0.5345830000000 1.0
C      1  0.5433040000000  0.5106720000000  0.5373400000000 1.0
C      1  0.4575450000000  0.4865840000000  0.4621180000000 1.0
C      1  0.4549140000000  0.5385380000000  0.4785460000000 1.0
C      1  0.5459350000000  0.4587180000000  0.5209120000000 1.0
C      1  0.4620810000000  0.5353950000000  0.5318960000000 1.0
C      1  0.5387680000000  0.4618610000000  0.4675610000000 1.0
C      1  0.4925530000000  0.4515830000000  0.4469570000000 1.0
C      1  0.5082950000000  0.5456730000000  0.5525000000000 1.0
C      1  0.4303380000000  0.4915440000000  0.4723060000000 1.0
C      1  0.5705110000000  0.5057120000000  0.5271510000000 1.0
C      1  0.4697380000000  0.4362110000000  0.4928120000000 1.0
C      1  0.5311110000000  0.5610450000000  0.5066460000000 1.0
C      1  0.5004240000000  0.4986280000000  0.4997290000000 1.0
END
