TITL C-862501-1041-51 0.00574382698639027 125000 -861.187184520473 0 0 148 (Ci) n - 1
REM
REM in /home/nfs/bkarasulu/CARBON/AIRSS/Generating-Clusters/TERSOFF/Higher-Symm/FIRE-HFTN
REM
REM
REM
REM
REM
REM ./C.cell (b20cbc046b6831c77cfcea5457e17084)
REM AIRSS Version 0.9.1 bugfix July 2018 build 013d7b7c2542+ Fri, 06 Jul 2018 19:26:36 +0100
REM compiler GCC version 9.2.1 20190827 (Red Hat 9.2.1-1)
REM options -cpp -mtune=generic -march=x86-64 -g -O0 -fpre-include=/usr/include/finclude/math-vector-fortran.h
REM seed 840384041 1503829027 1643695468 1511361304 1481484595 1666677377 -1988657295 -1464684212 -1032583018 1799922775 -834618711 501556115 1956490399 -1419767976 946199988 3327646 1591566534 1048054523 -430057499 -913643447 622627861 152778607 -509067215 -934302972 -1121248440 1255585217 2022888170 -1311840358 361288234 917833053 -1224537574 -780724795 -278184263
REM
CELL 1.54180   50.00000   50.00000   50.00000   90.00000   90.00000   90.00000
LATT -1
SFAC C  
C      1  0.5659620000000  0.5233060000000  0.4421250000000 1.0
C      1  0.4340380000000  0.4766940000000  0.5578750000000 1.0
C      1  0.5054030000000  0.4830960000000  0.5511250000000 1.0
C      1  0.4945970000000  0.5169040000000  0.4488750000000 1.0
C      1  0.5051230000000  0.4679710000000  0.5255560000000 1.0
C      1  0.4948770000000  0.5320290000000  0.4744440000000 1.0
C      1  0.5978110000000  0.5244930000000  0.5054850000000 1.0
C      1  0.4021890000000  0.4755070000000  0.4945150000000 1.0
C      1  0.4774580000000  0.4235770000000  0.4560470000000 1.0
C      1  0.5225420000000  0.5764230000000  0.5439530000000 1.0
C      1  0.4920820000000  0.4843300000000  0.5017620000000 1.0
C      1  0.5079180000000  0.5156700000000  0.4982380000000 1.0
C      1  0.5554120000000  0.5518740000000  0.4340180000000 1.0
C      1  0.4445880000000  0.4481260000000  0.5659820000000 1.0
C      1  0.3956960000000  0.5376600000000  0.4824650000000 1.0
C      1  0.6043040000000  0.4623400000000  0.5175350000000 1.0
C      1  0.5366210000000  0.4843670000000  0.6146360000000 1.0
C      1  0.4633790000000  0.5156330000000  0.3853640000000 1.0
C      1  0.5168140000000  0.4973370000000  0.4437950000000 1.0
C      1  0.4831860000000  0.5026630000000  0.5562050000000 1.0
C      1  0.4973700000000  0.5114040000000  0.6187900000000 1.0
C      1  0.5026300000000  0.4885960000000  0.3812100000000 1.0
C      1  0.4730250000000  0.4862790000000  0.3803330000000 1.0
C      1  0.5269750000000  0.5137210000000  0.6196670000000 1.0
C      1  0.5140230000000  0.5293120000000  0.5246290000000 1.0
C      1  0.4859770000000  0.4706880000000  0.4753710000000 1.0
C      1  0.5133800000000  0.4681780000000  0.6030350000000 1.0
C      1  0.4866200000000  0.5318220000000  0.3969650000000 1.0
C      1  0.4834360000000  0.5749350000000  0.5828270000000 1.0
C      1  0.5165640000000  0.4250650000000  0.4171730000000 1.0
C      1  0.4779840000000  0.6151920000000  0.4864830000000 1.0
C      1  0.5220160000000  0.3848080000000  0.5135170000000 1.0
C      1  0.5189710000000  0.4516750000000  0.5782530000000 1.0
C      1  0.4810290000000  0.5483250000000  0.4217470000000 1.0
C      1  0.4377640000000  0.4858780000000  0.4135170000000 1.0
C      1  0.5622360000000  0.5141220000000  0.5864830000000 1.0
C      1  0.4536360000000  0.5270110000000  0.4828780000000 1.0
C      1  0.5463640000000  0.4729890000000  0.5171220000000 1.0
C      1  0.5487450000000  0.4727280000000  0.4555730000000 1.0
C      1  0.4512550000000  0.5272720000000  0.5444270000000 1.0
C      1  0.3981840000000  0.5083320000000  0.5279580000000 1.0
C      1  0.6018160000000  0.4916680000000  0.4720420000000 1.0
C      1  0.5626900000000  0.4501470000000  0.5483560000000 1.0
C      1  0.4373100000000  0.5498530000000  0.4516440000000 1.0
C      1  0.5632000000000  0.4885180000000  0.5009910000000 1.0
C      1  0.4368000000000  0.5114820000000  0.4990090000000 1.0
C      1  0.5482080000000  0.4086360000000  0.5500930000000 1.0
C      1  0.4517920000000  0.5913640000000  0.4499070000000 1.0
C      1  0.4973320000000  0.4425070000000  0.5582200000000 1.0
C      1  0.5026680000000  0.5574930000000  0.4417800000000 1.0
C      1  0.5440890000000  0.5042930000000  0.4283090000000 1.0
C      1  0.4559110000000  0.4957070000000  0.5716910000000 1.0
C      1  0.5269440000000  0.5948260000000  0.4640300000000 1.0
C      1  0.4730560000000  0.4051740000000  0.5359700000000 1.0
C      1  0.4886760000000  0.4850110000000  0.6087110000000 1.0
C      1  0.5113240000000  0.5149890000000  0.3912890000000 1.0
C      1  0.4133710000000  0.4560910000000  0.5131410000000 1.0
C      1  0.5866290000000  0.5439090000000  0.4868590000000 1.0
C      1  0.5440440000000  0.5734320000000  0.5666930000000 1.0
C      1  0.4559560000000  0.4265680000000  0.4333070000000 1.0
C      1  0.4814310000000  0.5580880000000  0.4780090000000 1.0
C      1  0.5185690000000  0.4419120000000  0.5219910000000 1.0
C      1  0.4422620000000  0.5229250000000  0.5726350000000 1.0
C      1  0.5577380000000  0.4770750000000  0.4273650000000 1.0
C      1  0.6142420000000  0.4850290000000  0.4992690000000 1.0
C      1  0.3857580000000  0.5149710000000  0.5007310000000 1.0
C      1  0.5121370000000  0.6026700000000  0.5348220000000 1.0
C      1  0.4878630000000  0.3973300000000  0.4651780000000 1.0
C      1  0.5001420000000  0.5501110000000  0.5795560000000 1.0
C      1  0.4998580000000  0.4498890000000  0.4204440000000 1.0
C      1  0.5687090000000  0.5763010000000  0.4422770000000 1.0
C      1  0.4312910000000  0.4236990000000  0.5577230000000 1.0
C      1  0.4387130000000  0.5125750000000  0.4012620000000 1.0
C      1  0.5612870000000  0.4874250000000  0.5987380000000 1.0
C      1  0.4252890000000  0.4319020000000  0.4515060000000 1.0
C      1  0.5747110000000  0.5680980000000  0.5484940000000 1.0
C      1  0.5246270000000  0.6115790000000  0.5107300000000 1.0
C      1  0.4753730000000  0.3884210000000  0.4892700000000 1.0
C      1  0.5332450000000  0.3908270000000  0.4870000000000 1.0
C      1  0.4667550000000  0.6091730000000  0.5130000000000 1.0
C      1  0.4039320000000  0.5585180000000  0.5313910000000 1.0
C      1  0.5960680000000  0.4414820000000  0.4686090000000 1.0
C      1  0.4516940000000  0.4535850000000  0.5949010000000 1.0
C      1  0.5483060000000  0.5464150000000  0.4050990000000 1.0
C      1  0.4331570000000  0.5699000000000  0.5255310000000 1.0
C      1  0.5668430000000  0.4301000000000  0.4744690000000 1.0
C      1  0.5021370000000  0.5848840000000  0.4532090000000 1.0
C      1  0.4978630000000  0.4151160000000  0.5467910000000 1.0
C      1  0.5543040000000  0.5453060000000  0.4832420000000 1.0
C      1  0.4456960000000  0.4546940000000  0.5167580000000 1.0
C      1  0.5761870000000  0.5677350000000  0.5125160000000 1.0
C      1  0.4238130000000  0.4322650000000  0.4874840000000 1.0
C      1  0.4025410000000  0.5616360000000  0.4980420000000 1.0
C      1  0.5974590000000  0.4383640000000  0.5019580000000 1.0
C      1  0.4541900000000  0.4331430000000  0.4979950000000 1.0
C      1  0.5458100000000  0.5668570000000  0.5020050000000 1.0
C      1  0.5523280000000  0.4953730000000  0.4751190000000 1.0
C      1  0.4476720000000  0.5046270000000  0.5248810000000 1.0
C      1  0.4185360000000  0.4952370000000  0.4834910000000 1.0
C      1  0.5814640000000  0.5047630000000  0.5165090000000 1.0
C      1  0.5352920000000  0.5208890000000  0.4751890000000 1.0
C      1  0.4647080000000  0.4791110000000  0.5248110000000 1.0
C      1  0.4128110000000  0.5318680000000  0.4557460000000 1.0
C      1  0.5871890000000  0.4681320000000  0.5442540000000 1.0
C      1  0.4008860000000  0.5320150000000  0.5454400000000 1.0
C      1  0.5991140000000  0.4679850000000  0.4545600000000 1.0
C      1  0.4165780000000  0.5019780000000  0.4561230000000 1.0
C      1  0.5834220000000  0.4980220000000  0.5438770000000 1.0
C      1  0.4333170000000  0.4831280000000  0.4416810000000 1.0
C      1  0.5666830000000  0.5168720000000  0.5583190000000 1.0
C      1  0.4714380000000  0.4584290000000  0.5523190000000 1.0
C      1  0.5285620000000  0.5415710000000  0.4476810000000 1.0
C      1  0.4142910000000  0.4809700000000  0.5343570000000 1.0
C      1  0.5857090000000  0.5190300000000  0.4656430000000 1.0
C      1  0.5426140000000  0.5317800000000  0.6002450000000 1.0
C      1  0.4573860000000  0.4682200000000  0.3997550000000 1.0
C      1  0.5344070000000  0.5923480000000  0.4917220000000 1.0
C      1  0.4655930000000  0.4076520000000  0.5082780000000 1.0
C      1  0.4656190000000  0.4489930000000  0.4728100000000 1.0
C      1  0.5343810000000  0.5510070000000  0.5271900000000 1.0
C      1  0.4630590000000  0.4805020000000  0.5966850000000 1.0
C      1  0.5369410000000  0.5194980000000  0.4033150000000 1.0
C      1  0.5595220000000  0.5419830000000  0.5436530000000 1.0
C      1  0.4404780000000  0.4580170000000  0.4563470000000 1.0
C      1  0.4134980000000  0.5280550000000  0.5714490000000 1.0
C      1  0.5865020000000  0.4719450000000  0.4285510000000 1.0
C      1  0.5229310000000  0.4029180000000  0.5369370000000 1.0
C      1  0.4770690000000  0.5970820000000  0.4630630000000 1.0
C      1  0.4708340000000  0.4468910000000  0.4146200000000 1.0
C      1  0.5291660000000  0.5531090000000  0.5853800000000 1.0
C      1  0.5304020000000  0.4102610000000  0.4393740000000 1.0
C      1  0.4695980000000  0.5897390000000  0.5606260000000 1.0
C      1  0.4827280000000  0.6033590000000  0.5371940000000 1.0
C      1  0.5172720000000  0.3966410000000  0.4628060000000 1.0
C      1  0.4504860000000  0.5576310000000  0.4774340000000 1.0
C      1  0.5495140000000  0.4423690000000  0.5225660000000 1.0
C      1  0.5483820000000  0.4460970000000  0.5737210000000 1.0
C      1  0.4516180000000  0.5539030000000  0.4262790000000 1.0
C      1  0.5676780000000  0.4267950000000  0.5051040000000 1.0
C      1  0.4323220000000  0.5732050000000  0.4948960000000 1.0
C      1  0.4686510000000  0.5110180000000  0.4365360000000 1.0
C      1  0.5313490000000  0.4889820000000  0.5634640000000 1.0
C      1  0.5050120000000  0.4366990000000  0.4598720000000 1.0
C      1  0.4949880000000  0.5633010000000  0.5401280000000 1.0
C      1  0.5456090000000  0.4458600000000  0.4643770000000 1.0
C      1  0.4543910000000  0.5541400000000  0.5356230000000 1.0
C      1  0.4924580000000  0.5319580000000  0.5508060000000 1.0
C      1  0.5075420000000  0.4680420000000  0.4491940000000 1.0
END
