TITL C-862500-986-357 -0.0296750192237376 125000 -860.853949188069 0 0 140 (C1) n - 1
REM
REM in /home/nfs/bkarasulu/CARBON/AIRSS/Generating-Clusters/TERSOFF/Higher-Symm/FIRE-HFTN
REM
REM
REM
REM
REM
REM ./C.cell (b20cbc046b6831c77cfcea5457e17084)
REM AIRSS Version 0.9.1 bugfix July 2018 build 013d7b7c2542+ Fri, 06 Jul 2018 19:26:36 +0100
REM compiler GCC version 9.2.1 20190827 (Red Hat 9.2.1-1)
REM options -cpp -mtune=generic -march=x86-64 -g -O0 -fpre-include=/usr/include/finclude/math-vector-fortran.h
REM seed -1498739896 -2071704991 1625093282 -130693247 1159233214 -180988235 617023990 -1571962568 -92244568 -1383108922 -2123849459 -2044127101 2088778267 -1536281812 104217454 -41685648 1700288834 988321653 178629110 1206615669 1481006113 1574800959 537376582 -1859317254 558919029 2078111285 -1481155198 2043929035 -553481729 593298192 -2032650023 1316557219 -1144794466
REM
CELL 1.54180   50.00000   50.00000   50.00000   90.00000   90.00000   90.00000
LATT -1
SFAC C  
C      1  0.4486850000000  0.5284350000000  0.4357090000000 1.0
C      1  0.4719020000000  0.5292750000000  0.5709210000000 1.0
C      1  0.5830050000000  0.5279060000000  0.4860150000000 1.0
C      1  0.4483460000000  0.4718470000000  0.4348740000000 1.0
C      1  0.4718320000000  0.4700540000000  0.5705110000000 1.0
C      1  0.5827660000000  0.4711950000000  0.4859200000000 1.0
C      1  0.4256420000000  0.4377700000000  0.5390280000000 1.0
C      1  0.5733080000000  0.4375280000000  0.5380250000000 1.0
C      1  0.4999640000000  0.4382080000000  0.4179010000000 1.0
C      1  0.4261070000000  0.5605430000000  0.5430200000000 1.0
C      1  0.5736550000000  0.5615200000000  0.5382090000000 1.0
C      1  0.4991170000000  0.5625020000000  0.4199740000000 1.0
C      1  0.5465790000000  0.4854460000000  0.6062550000000 1.0
C      1  0.5589270000000  0.4853030000000  0.4127280000000 1.0
C      1  0.3999360000000  0.4848110000000  0.5005660000000 1.0
C      1  0.5466360000000  0.5138070000000  0.6062150000000 1.0
C      1  0.5586790000000  0.5140800000000  0.4128100000000 1.0
C      1  0.3929300000000  0.5101590000000  0.4885920000000 1.0
C      1  0.4677200000000  0.3863750000000  0.4992240000000 1.0
C      1  0.5158720000000  0.3872190000000  0.5238650000000 1.0
C      1  0.5129490000000  0.3883050000000  0.4704770000000 1.0
C      1  0.4675970000000  0.6132360000000  0.4975380000000 1.0
C      1  0.5155100000000  0.6116090000000  0.5229440000000 1.0
C      1  0.5137430000000  0.6107870000000  0.4697690000000 1.0
C      1  0.5577510000000  0.5299750000000  0.4369830000000 1.0
C      1  0.4135070000000  0.5279780000000  0.4792200000000 1.0
C      1  0.5310950000000  0.5294010000000  0.5876710000000 1.0
C      1  0.5581240000000  0.4692690000000  0.4368050000000 1.0
C      1  0.4170150000000  0.4686140000000  0.4829890000000 1.0
C      1  0.5310310000000  0.4698580000000  0.5877090000000 1.0
C      1  0.4629870000000  0.5272930000000  0.4823650000000 1.0
C      1  0.5053880000000  0.5293350000000  0.5444230000000 1.0
C      1  0.5340310000000  0.5275210000000  0.4778760000000 1.0
C      1  0.4634910000000  0.4719170000000  0.4835540000000 1.0
C      1  0.5054710000000  0.4703890000000  0.5444020000000 1.0
C      1  0.5334890000000  0.4717230000000  0.4773990000000 1.0
C      1  0.4214490000000  0.5735260000000  0.5140720000000 1.0
C      1  0.5523040000000  0.5738090000000  0.5564720000000 1.0
C      1  0.5255330000000  0.5753950000000  0.4297170000000 1.0
C      1  0.4231770000000  0.4233920000000  0.5102640000000 1.0
C      1  0.5522840000000  0.4251850000000  0.5566010000000 1.0
C      1  0.5260300000000  0.4243700000000  0.4286100000000 1.0
C      1  0.4837510000000  0.3872420000000  0.5246840000000 1.0
C      1  0.5295300000000  0.3901510000000  0.4969590000000 1.0
C      1  0.4828200000000  0.3897560000000  0.4720440000000 1.0
C      1  0.4834010000000  0.6121390000000  0.5234220000000 1.0
C      1  0.5295840000000  0.6086270000000  0.4964100000000 1.0
C      1  0.4838340000000  0.6096100000000  0.4701270000000 1.0
C      1  0.4875940000000  0.4857710000000  0.4749330000000 1.0
C      1  0.4827880000000  0.4854240000000  0.5299310000000 1.0
C      1  0.5279790000000  0.4857130000000  0.5027580000000 1.0
C      1  0.4874980000000  0.5132740000000  0.4746690000000 1.0
C      1  0.4827210000000  0.5146330000000  0.5295570000000 1.0
C      1  0.5282880000000  0.5135960000000  0.5029170000000 1.0
C      1  0.4545260000000  0.5568400000000  0.4401470000000 1.0
C      1  0.4746640000000  0.5564760000000  0.5609690000000 1.0
C      1  0.5860470000000  0.5566010000000  0.4902200000000 1.0
C      1  0.4508140000000  0.4434310000000  0.4286420000000 1.0
C      1  0.4746860000000  0.4426870000000  0.5615680000000 1.0
C      1  0.5856630000000  0.4425050000000  0.4900590000000 1.0
C      1  0.4642440000000  0.5575350000000  0.4701590000000 1.0
C      1  0.5014150000000  0.5608020000000  0.5509350000000 1.0
C      1  0.5376190000000  0.5568800000000  0.4841440000000 1.0
C      1  0.4666360000000  0.4424060000000  0.4751620000000 1.0
C      1  0.5015180000000  0.4386730000000  0.5506740000000 1.0
C      1  0.5368120000000  0.4425690000000  0.4833990000000 1.0
C      1  0.4964170000000  0.5308520000000  0.4155800000000 1.0
C      1  0.4239170000000  0.5301620000000  0.5502630000000 1.0
C      1  0.5785380000000  0.5296460000000  0.5376720000000 1.0
C      1  0.4967500000000  0.4702480000000  0.4138060000000 1.0
C      1  0.4253510000000  0.4693310000000  0.5431560000000 1.0
C      1  0.5784470000000  0.4693740000000  0.5376120000000 1.0
C      1  0.4728250000000  0.4279640000000  0.4996740000000 1.0
C      1  0.5142870000000  0.4290640000000  0.5246920000000 1.0
C      1  0.5114550000000  0.4294950000000  0.4780370000000 1.0
C      1  0.4713680000000  0.5715320000000  0.4973450000000 1.0
C      1  0.5135570000000  0.5698080000000  0.5246240000000 1.0
C      1  0.5123260000000  0.5698000000000  0.4784060000000 1.0
C      1  0.5316870000000  0.4715670000000  0.5284140000000 1.0
C      1  0.5085120000000  0.4717650000000  0.4596330000000 1.0
C      1  0.4627240000000  0.4703940000000  0.5152660000000 1.0
C      1  0.5317410000000  0.5277440000000  0.5286560000000 1.0
C      1  0.5090560000000  0.5271210000000  0.4604980000000 1.0
C      1  0.4625030000000  0.5294080000000  0.5137960000000 1.0
C      1  0.5386960000000  0.4429710000000  0.5150360000000 1.0
C      1  0.4930360000000  0.4428720000000  0.4589850000000 1.0
C      1  0.4633610000000  0.4417520000000  0.5211410000000 1.0
C      1  0.5386720000000  0.5564150000000  0.5157280000000 1.0
C      1  0.4955190000000  0.5548410000000  0.4610780000000 1.0
C      1  0.4602110000000  0.5580270000000  0.5186820000000 1.0
C      1  0.5260090000000  0.6034440000000  0.4428000000000 1.0
C      1  0.4368290000000  0.6023750000000  0.5032410000000 1.0
C      1  0.5337120000000  0.6008200000000  0.5478570000000 1.0
C      1  0.5249380000000  0.3959010000000  0.4425600000000 1.0
C      1  0.4370370000000  0.3947750000000  0.5037600000000 1.0
C      1  0.5343540000000  0.3978860000000  0.5484850000000 1.0
C      1  0.5143830000000  0.4280320000000  0.5744410000000 1.0
C      1  0.5551700000000  0.4304520000000  0.4639310000000 1.0
C      1  0.4404850000000  0.4311430000000  0.4673740000000 1.0
C      1  0.5144650000000  0.5714090000000  0.5745030000000 1.0
C      1  0.5556160000000  0.5689200000000  0.4641440000000 1.0
C      1  0.4359850000000  0.5715790000000  0.4747220000000 1.0
C      1  0.4480330000000  0.4847180000000  0.5599250000000 1.0
C      1  0.5878970000000  0.4847450000000  0.5119370000000 1.0
C      1  0.4692700000000  0.4858600000000  0.4184030000000 1.0
C      1  0.4476120000000  0.5146090000000  0.5618680000000 1.0
C      1  0.5879990000000  0.5142950000000  0.5119910000000 1.0
C      1  0.4690920000000  0.5155330000000  0.4184910000000 1.0
C      1  0.4017170000000  0.5136190000000  0.5411420000000 1.0
C      1  0.5537530000000  0.5145790000000  0.5438670000000 1.0
C      1  0.5134180000000  0.5150050000000  0.4339100000000 1.0
C      1  0.4053060000000  0.4867730000000  0.5296140000000 1.0
C      1  0.5537140000000  0.4845600000000  0.5436800000000 1.0
C      1  0.5131070000000  0.4850910000000  0.4334650000000 1.0
C      1  0.4553980000000  0.5712090000000  0.5456720000000 1.0
C      1  0.5682150000000  0.5719590000000  0.5086320000000 1.0
C      1  0.4734720000000  0.5758630000000  0.4284890000000 1.0
C      1  0.4545720000000  0.4272320000000  0.5471760000000 1.0
C      1  0.5677720000000  0.4273130000000  0.5084730000000 1.0
C      1  0.4753400000000  0.4280280000000  0.4352040000000 1.0
C      1  0.4395990000000  0.4831010000000  0.4657100000000 1.0
C      1  0.5049780000000  0.4840510000000  0.5733590000000 1.0
C      1  0.5603300000000  0.4831340000000  0.4650920000000 1.0
C      1  0.4387600000000  0.5149980000000  0.4655330000000 1.0
C      1  0.5050170000000  0.5152520000000  0.5733720000000 1.0
C      1  0.5604630000000  0.5160230000000  0.4651950000000 1.0
C      1  0.5585280000000  0.5995400000000  0.4975800000000 1.0
C      1  0.4715760000000  0.6031030000000  0.4429040000000 1.0
C      1  0.4663400000000  0.6002070000000  0.5455120000000 1.0
C      1  0.5583350000000  0.3996250000000  0.4976660000000 1.0
C      1  0.4697680000000  0.4004080000000  0.4473980000000 1.0
C      1  0.4670980000000  0.3987050000000  0.5471570000000 1.0
C      1  0.5517240000000  0.4396480000000  0.4364360000000 1.0
C      1  0.4187380000000  0.4390100000000  0.4849330000000 1.0
C      1  0.5395180000000  0.4408870000000  0.5814470000000 1.0
C      1  0.5512740000000  0.5595850000000  0.4367500000000 1.0
C      1  0.4141990000000  0.5570990000000  0.4881350000000 1.0
C      1  0.5395340000000  0.5583460000000  0.5814410000000 1.0
C      1  0.4992430000000  0.4188390000000  0.5017980000000 1.0
C      1  0.4985290000000  0.5798500000000  0.5012800000000 1.0
END
