TITL C-862507-1800-774 8.60788806299778 125000 -440.11671065748 0 0 74 (C1) n - 1
REM
REM in /home/nfs/bkarasulu/CARBON/AIRSS/Generating-Clusters/TERSOFF/Higher-Symm/FIRE-HFTN
REM
REM
REM
REM
REM
REM ./C.cell (b20cbc046b6831c77cfcea5457e17084)
REM AIRSS Version 0.9.1 bugfix July 2018 build 013d7b7c2542+ Fri, 06 Jul 2018 19:26:36 +0100
REM compiler GCC version 9.2.1 20190827 (Red Hat 9.2.1-1)
REM options -cpp -mtune=generic -march=x86-64 -g -O0 -fpre-include=/usr/include/finclude/math-vector-fortran.h
REM seed 1658831000 1855478725 -221887431 -146021197 -1353521174 1886981137 339831762 1436295746 -832989799 1473447886 1300250104 204758934 -1471480821 -1934011420 -577486797 925431097 290666267 315468534 -1584248446 495292257 -88136483 -1692822756 -933546499 -1942962668 1187346778 1329417423 1036673401 470157626 646447055 -404547853 1398515956 1537900819 1986252778
REM
CELL 1.54180   50.00000   50.00000   50.00000   90.00000   90.00000   90.00000
LATT -1
SFAC C  
C      1  0.4550430000000  0.4999010000000  0.5676810000000 1.0
C      1  0.5797310000000  0.5019060000000  0.5091920000000 1.0
C      1  0.4627440000000  0.4981250000000  0.4254560000000 1.0
C      1  0.4918060000000  0.5028630000000  0.5476830000000 1.0
C      1  0.5488590000000  0.5078090000000  0.4813950000000 1.0
C      1  0.4635890000000  0.5034010000000  0.4670710000000 1.0
C      1  0.4955220000000  0.5290730000000  0.5612100000000 1.0
C      1  0.5607640000000  0.5315050000000  0.4678550000000 1.0
C      1  0.4497050000000  0.5297310000000  0.4630260000000 1.0
C      1  0.4196860000000  0.4993130000000  0.5077440000000 1.0
C      1  0.5481370000000  0.4968280000000  0.5651360000000 1.0
C      1  0.5335270000000  0.4983990000000  0.4234130000000 1.0
C      1  0.5757230000000  0.4865020000000  0.5691750000000 1.0
C      1  0.5234720000000  0.4858490000000  0.3984010000000 1.0
C      1  0.4019890000000  0.4888550000000  0.5292230000000 1.0
C      1  0.4431260000000  0.4753050000000  0.5553010000000 1.0
C      1  0.5781420000000  0.4744350000000  0.5211490000000 1.0
C      1  0.4805670000000  0.4742080000000  0.4225550000000 1.0
C      1  0.4521050000000  0.4421950000000  0.5155570000000 1.0
C      1  0.5376090000000  0.4425940000000  0.5334880000000 1.0
C      1  0.5108890000000  0.4426860000000  0.4511100000000 1.0
C      1  0.4379700000000  0.5645000000000  0.5251330000000 1.0
C      1  0.5539780000000  0.5694190000000  0.5456360000000 1.0
C      1  0.5081510000000  0.5638700000000  0.4320890000000 1.0
C      1  0.5453210000000  0.4569670000000  0.4853730000000 1.0
C      1  0.4641200000000  0.4540170000000  0.4673670000000 1.0
C      1  0.4898250000000  0.4535880000000  0.5477720000000 1.0
C      1  0.4285120000000  0.5404660000000  0.4805620000000 1.0
C      1  0.5213690000000  0.5396230000000  0.5706160000000 1.0
C      1  0.5534130000000  0.5409100000000  0.4410450000000 1.0
C      1  0.5445500000000  0.4766030000000  0.4398360000000 1.0
C      1  0.4268050000000  0.4761420000000  0.4912640000000 1.0
C      1  0.5291880000000  0.4741440000000  0.5702870000000 1.0
C      1  0.5311470000000  0.5660060000000  0.5631530000000 1.0
C      1  0.5367460000000  0.5646530000000  0.4376000000000 1.0
C      1  0.4329390000000  0.5645930000000  0.4964140000000 1.0
C      1  0.4142490000000  0.4748220000000  0.5510600000000 1.0
C      1  0.5886480000000  0.4722810000000  0.5480420000000 1.0
C      1  0.4980630000000  0.4725900000000  0.3992550000000 1.0
C      1  0.5558290000000  0.4555860000000  0.5127510000000 1.0
C      1  0.4837760000000  0.4541770000000  0.4452780000000 1.0
C      1  0.4608750000000  0.4542560000000  0.5417180000000 1.0
C      1  0.5503070000000  0.4808060000000  0.4687490000000 1.0
C      1  0.4481830000000  0.4783820000000  0.4711800000000 1.0
C      1  0.5013330000000  0.4774370000000  0.5603640000000 1.0
C      1  0.5296620000000  0.5517410000000  0.5102850000000 1.0
C      1  0.4970710000000  0.5388860000000  0.4730870000000 1.0
C      1  0.4808820000000  0.5408310000000  0.5220720000000 1.0
C      1  0.5067440000000  0.5527040000000  0.5283550000000 1.0
C      1  0.5240060000000  0.5455540000000  0.4825300000000 1.0
C      1  0.4777760000000  0.5322740000000  0.4941600000000 1.0
C      1  0.4438940000000  0.5088220000000  0.5246680000000 1.0
C      1  0.5420430000000  0.4922800000000  0.5329750000000 1.0
C      1  0.5066610000000  0.5077510000000  0.4352660000000 1.0
C      1  0.5386920000000  0.5108030000000  0.5099650000000 1.0
C      1  0.4932260000000  0.4990640000000  0.4603480000000 1.0
C      1  0.4722580000000  0.4997980000000  0.5244530000000 1.0
C      1  0.5326020000000  0.4508840000000  0.4339530000000 1.0
C      1  0.4265680000000  0.4509590000000  0.5054080000000 1.0
C      1  0.5414750000000  0.4492550000000  0.5614460000000 1.0
C      1  0.4896430000000  0.5449460000000  0.4446520000000 1.0
C      1  0.4568070000000  0.5463740000000  0.5382510000000 1.0
C      1  0.5572900000000  0.5518920000000  0.5221590000000 1.0
C      1  0.4707990000000  0.5278410000000  0.4267600000000 1.0
C      1  0.4476990000000  0.5286810000000  0.5614680000000 1.0
C      1  0.5764340000000  0.5277420000000  0.5245500000000 1.0
C      1  0.4722150000000  0.4412680000000  0.4932460000000 1.0
C      1  0.5081390000000  0.4414440000000  0.5274360000000 1.0
C      1  0.5198950000000  0.4427580000000  0.4794910000000 1.0
C      1  0.4101430000000  0.5213550000000  0.4914710000000 1.0
C      1  0.5412170000000  0.5210330000000  0.5792040000000 1.0
C      1  0.5517300000000  0.5207940000000  0.4207540000000 1.0
C      1  0.4996660000000  0.4791410000000  0.5002540000000 1.0
C      1  0.4998480000000  0.4488310000000  0.5001560000000 1.0
END
