TITL C-862501-1041-583 0.74990382919579 125000 -441.615472641755 0 0 74 (C1) n - 1
REM
REM in /home/nfs/bkarasulu/CARBON/AIRSS/Generating-Clusters/TERSOFF/Higher-Symm/FIRE-HFTN
REM
REM
REM
REM
REM
REM ./C.cell (b20cbc046b6831c77cfcea5457e17084)
REM AIRSS Version 0.9.1 bugfix July 2018 build 013d7b7c2542+ Fri, 06 Jul 2018 19:26:36 +0100
REM compiler GCC version 9.2.1 20190827 (Red Hat 9.2.1-1)
REM options -cpp -mtune=generic -march=x86-64 -g -O0 -fpre-include=/usr/include/finclude/math-vector-fortran.h
REM seed -1817270280 1939735389 1012219801 2014023133 -1502990432 -608265448 21801163 -929863605 -1782330916 -1038897558 -1701218710 1831200910 1756360692 -224418387 347672908 1561937760 -428857641 91949893 1258028494 -613513131 -1608121046 -1492743573 -523091825 -572858973 1952994350 714203618 -1517199032 1935145608 2103246173 -1216498260 1902364145 1959082807 -1098535991
REM
CELL 1.54180   50.00000   50.00000   50.00000   90.00000   90.00000   90.00000
LATT -1
SFAC C  
C      1  0.4855900000000  0.4799630000000  0.4696490000000 1.0
C      1  0.5261080000000  0.5146550000000  0.5800380000000 1.0
C      1  0.4834520000000  0.5799660000000  0.5109480000000 1.0
C      1  0.4778960000000  0.5622540000000  0.5338230000000 1.0
C      1  0.5040510000000  0.4662800000000  0.5714880000000 1.0
C      1  0.4782880000000  0.5722680000000  0.4832080000000 1.0
C      1  0.4142680000000  0.5068590000000  0.4716520000000 1.0
C      1  0.4535300000000  0.4672380000000  0.5530440000000 1.0
C      1  0.5394340000000  0.5619690000000  0.4963060000000 1.0
C      1  0.5678060000000  0.5565810000000  0.5032760000000 1.0
C      1  0.5105550000000  0.5219060000000  0.4945640000000 1.0
C      1  0.5702730000000  0.4883390000000  0.4594470000000 1.0
C      1  0.5732920000000  0.5420980000000  0.4546320000000 1.0
C      1  0.5436950000000  0.4818670000000  0.5286780000000 1.0
C      1  0.5532170000000  0.5147190000000  0.5706360000000 1.0
C      1  0.4124480000000  0.4497730000000  0.4921450000000 1.0
C      1  0.5505450000000  0.5357070000000  0.5482190000000 1.0
C      1  0.4413890000000  0.5396350000000  0.5040040000000 1.0
C      1  0.5012690000000  0.5699220000000  0.4624570000000 1.0
C      1  0.5343140000000  0.4637280000000  0.5657130000000 1.0
C      1  0.4796400000000  0.5278110000000  0.4457860000000 1.0
C      1  0.4157700000000  0.4640210000000  0.5173030000000 1.0
C      1  0.5264830000000  0.5401300000000  0.4322580000000 1.0
C      1  0.4565400000000  0.5416170000000  0.5301660000000 1.0
C      1  0.4816800000000  0.4564350000000  0.5530760000000 1.0
C      1  0.5211710000000  0.5441890000000  0.5093500000000 1.0
C      1  0.4628090000000  0.4703360000000  0.4862660000000 1.0
C      1  0.4260040000000  0.5133570000000  0.4982990000000 1.0
C      1  0.4528710000000  0.4693460000000  0.4344690000000 1.0
C      1  0.5422400000000  0.5008660000000  0.4588780000000 1.0
C      1  0.5727020000000  0.5444370000000  0.5303260000000 1.0
C      1  0.4992960000000  0.5488160000000  0.4403420000000 1.0
C      1  0.4843740000000  0.4269840000000  0.4683250000000 1.0
C      1  0.4433870000000  0.4983310000000  0.4286040000000 1.0
C      1  0.5515520000000  0.4535190000000  0.5278850000000 1.0
C      1  0.4717570000000  0.4905670000000  0.5078580000000 1.0
C      1  0.4337290000000  0.4348820000000  0.4794610000000 1.0
C      1  0.5120830000000  0.4763880000000  0.4848880000000 1.0
C      1  0.5755000000000  0.4903140000000  0.4893310000000 1.0
C      1  0.5514350000000  0.4967430000000  0.5048520000000 1.0
C      1  0.4846260000000  0.4722940000000  0.4397840000000 1.0
C      1  0.5007780000000  0.5599270000000  0.5803230000000 1.0
C      1  0.4457450000000  0.4938900000000  0.5406600000000 1.0
C      1  0.4261390000000  0.4926890000000  0.5193440000000 1.0
C      1  0.5572000000000  0.4845590000000  0.5683490000000 1.0
C      1  0.5309220000000  0.5120010000000  0.4350220000000 1.0
C      1  0.5151030000000  0.4877240000000  0.5371100000000 1.0
C      1  0.4250910000000  0.5146610000000  0.4453750000000 1.0
C      1  0.4796900000000  0.5163670000000  0.5660880000000 1.0
C      1  0.4623830000000  0.4388980000000  0.4872630000000 1.0
C      1  0.5284360000000  0.4528780000000  0.4692010000000 1.0
C      1  0.5129990000000  0.4226500000000  0.5339580000000 1.0
C      1  0.4547940000000  0.5530830000000  0.4801590000000 1.0
C      1  0.5063530000000  0.5068820000000  0.5610730000000 1.0
C      1  0.5062790000000  0.4117610000000  0.4814200000000 1.0
C      1  0.4819220000000  0.5158930000000  0.4936700000000 1.0
C      1  0.4983150000000  0.4781400000000  0.5147990000000 1.0
C      1  0.4869110000000  0.4348850000000  0.5343980000000 1.0
C      1  0.5011690000000  0.4461430000000  0.4503430000000 1.0
C      1  0.5543510000000  0.4608700000000  0.4546840000000 1.0
C      1  0.4592790000000  0.5178110000000  0.5468150000000 1.0
C      1  0.5287970000000  0.5011420000000  0.4854620000000 1.0
C      1  0.5297730000000  0.4284090000000  0.4884180000000 1.0
C      1  0.5232720000000  0.5425330000000  0.5377200000000 1.0
C      1  0.5318060000000  0.5703200000000  0.4692840000000 1.0
C      1  0.4661480000000  0.4270050000000  0.5150800000000 1.0
C      1  0.5346010000000  0.4320040000000  0.5174070000000 1.0
C      1  0.5471970000000  0.5556880000000  0.4472580000000 1.0
C      1  0.5008410000000  0.5550150000000  0.5517710000000 1.0
C      1  0.5793450000000  0.5145280000000  0.4447170000000 1.0
C      1  0.4674220000000  0.5281960000000  0.4716800000000 1.0
C      1  0.4746880000000  0.5047270000000  0.4286120000000 1.0
C      1  0.5846910000000  0.5503100000000  0.4804000000000 1.0
C      1  0.4304890000000  0.4512940000000  0.5407070000000 1.0
END
