TITL C-862134-6730-1074 222572.711605514 125000 -1125.22065859319 0 0 189 (C1) n - 1
REM
REM in /home/nfs/bkarasulu/CARBON/AIRSS/Generating-Clusters/TERSOFF/Higher-Symm/FIRE-HFTN
REM
REM
REM
REM
REM
REM ./C.cell (b20cbc046b6831c77cfcea5457e17084)
REM AIRSS Version 0.9.1 bugfix July 2018 build 013d7b7c2542+ Fri, 06 Jul 2018 19:26:36 +0100
REM compiler GCC version 9.2.1 20190827 (Red Hat 9.2.1-1)
REM options -cpp -mtune=generic -march=x86-64 -g -O0 -fpre-include=/usr/include/finclude/math-vector-fortran.h
REM seed -1221894665 -1935769559 -1605945134 181463774 -555752984 1957840587 -2120899770 -1989177859 278397432 -623495710 1580111863 173689994 77859786 1523767879 -760978033 1876080214 1520697188 2045700257 363740244 -684938986 -1889170945 1500485424 -2084035344 1650384041 1607052451 -1346159125 844418154 1578693334 1544785039 -1956216394 1858221673 151982736 -713139281
REM
CELL 1.54180   50.00000   50.00000   50.00000   90.00000   90.00000   90.00000
LATT -1
SFAC C  
C      1  0.3975990000000  0.5170380000000  0.4254090000000 1.0
C      1  0.5396600000000  0.4618550000000  0.3794370000000 1.0
C      1  0.4551840000000  0.4550680000000  0.3977630000000 1.0
C      1  0.4027550000000  0.5663640000000  0.4199250000000 1.0
C      1  0.4140080000000  0.5413570000000  0.4043880000000 1.0
C      1  0.5597010000000  0.4022440000000  0.5442150000000 1.0
C      1  0.4394830000000  0.4315420000000  0.5882200000000 1.0
C      1  0.4159530000000  0.5378230000000  0.5658350000000 1.0
C      1  0.6094170000000  0.4667410000000  0.4470930000000 1.0
C      1  0.5858400000000  0.5618650000000  0.5538770000000 1.0
C      1  0.6240450000000  0.5010440000000  0.5703880000000 1.0
C      1  0.6052470000000  0.4795290000000  0.4994630000000 1.0
C      1  0.5462230000000  0.5171730000000  0.3917900000000 1.0
C      1  0.4824930000000  0.4547280000000  0.5064480000000 1.0
C      1  0.5175210000000  0.4718270000000  0.5580580000000 1.0
C      1  0.4677480000000  0.5015790000000  0.3803970000000 1.0
C      1  0.4980050000000  0.5097300000000  0.5866450000000 1.0
C      1  0.5312800000000  0.4023080000000  0.5489030000000 1.0
C      1  0.3941660000000  0.4753800000000  0.4642580000000 1.0
C      1  0.5522640000000  0.5896480000000  0.4175750000000 1.0
C      1  0.5788450000000  0.4066120000000  0.5655820000000 1.0
C      1  0.5567860000000  0.4940020000000  0.4790150000000 1.0
C      1  0.5201350000000  0.3918050000000  0.5735970000000 1.0
C      1  0.5464420000000  0.5280080000000  0.4187470000000 1.0
C      1  0.5337290000000  0.5398560000000  0.5863340000000 1.0
C      1  0.5216740000000  0.5910810000000  0.5709340000000 1.0
C      1  0.4139900000000  0.4767360000000  0.5848200000000 1.0
C      1  0.5968550000000  0.5400050000000  0.5957180000000 1.0
C      1  0.4584100000000  0.6112130000000  0.4901860000000 1.0
C      1  0.4845330000000  0.5592910000000  0.5924940000000 1.0
C      1  0.5092270000000  0.5639380000000  0.4249240000000 1.0
C      1  0.5036090000000  0.5030820000000  0.4957750000000 1.0
C      1  0.5160050000000  0.6008090000000  0.5207680000000 1.0
C      1  0.5792720000000  0.4784480000000  0.5835350000000 1.0
C      1  0.4518100000000  0.5405100000000  0.5441750000000 1.0
C      1  0.5106090000000  0.4080190000000  0.5956450000000 1.0
C      1  0.5711580000000  0.4774970000000  0.4150470000000 1.0
C      1  0.4252250000000  0.5868130000000  0.4613500000000 1.0
C      1  0.4224390000000  0.5840020000000  0.4319060000000 1.0
C      1  0.5724630000000  0.5959880000000  0.5143030000000 1.0
C      1  0.5894250000000  0.5523140000000  0.4986960000000 1.0
C      1  0.5087020000000  0.4884580000000  0.6332960000000 1.0
C      1  0.4716580000000  0.4794900000000  0.4405270000000 1.0
C      1  0.6028080000000  0.4311840000000  0.4829360000000 1.0
C      1  0.5118990000000  0.5229290000000  0.4754580000000 1.0
C      1  0.4870210000000  0.4522040000000  0.6055270000000 1.0
C      1  0.3937590000000  0.5309160000000  0.5483030000000 1.0
C      1  0.5380200000000  0.5375370000000  0.4759130000000 1.0
C      1  0.4962210000000  0.5568180000000  0.5295990000000 1.0
C      1  0.6163300000000  0.4440210000000  0.5306490000000 1.0
C      1  0.5659240000000  0.4704150000000  0.3876970000000 1.0
C      1  0.4859070000000  0.6214800000000  0.4895430000000 1.0
C      1  0.4339310000000  0.5174250000000  0.5742280000000 1.0
C      1  0.4673580000000  0.5822380000000  0.4461540000000 1.0
C      1  0.4225190000000  0.5893700000000  0.5578520000000 1.0
C      1  0.6115010000000  0.5225340000000  0.4673660000000 1.0
C      1  0.5056770000000  0.6030820000000  0.4749700000000 1.0
C      1  0.5278200000000  0.4298780000000  0.5003760000000 1.0
C      1  0.4485220000000  0.4659960000000  0.4241630000000 1.0
C      1  0.4573090000000  0.5672500000000  0.5498940000000 1.0
C      1  0.5622570000000  0.5216290000000  0.4690010000000 1.0
C      1  0.4983230000000  0.4736840000000  0.4249080000000 1.0
C      1  0.5981950000000  0.4810560000000  0.4247260000000 1.0
C      1  0.3978250000000  0.5302200000000  0.4981070000000 1.0
C      1  0.4415240000000  0.5429860000000  0.3924980000000 1.0
C      1  0.4869810000000  0.4247910000000  0.5948210000000 1.0
C      1  0.4473060000000  0.3513430000000  0.5009550000000 1.0
C      1  0.3997290000000  0.4523140000000  0.5391080000000 1.0
C      1  0.5512010000000  0.5630660000000  0.5921520000000 1.0
C      1  0.4983370000000  0.5285050000000  0.5387360000000 1.0
C      1  0.4443750000000  0.3802520000000  0.5005920000000 1.0
C      1  0.4966620000000  0.5198700000000  0.4197750000000 1.0
C      1  0.6007500000000  0.4021600000000  0.4870050000000 1.0
C      1  0.4400280000000  0.4609070000000  0.5827490000000 1.0
C      1  0.3862160000000  0.5451980000000  0.4356150000000 1.0
C      1  0.4642160000000  0.4710870000000  0.5992110000000 1.0
C      1  0.5042000000000  0.5373940000000  0.5954550000000 1.0
C      1  0.5230070000000  0.4826780000000  0.3659450000000 1.0
C      1  0.5725550000000  0.4241970000000  0.4150060000000 1.0
C      1  0.5707270000000  0.4512320000000  0.5894660000000 1.0
C      1  0.4308330000000  0.4541750000000  0.5070720000000 1.0
C      1  0.4850520000000  0.4040870000000  0.4801950000000 1.0
C      1  0.5491150000000  0.4763560000000  0.4344520000000 1.0
C      1  0.6173180000000  0.5300020000000  0.5746350000000 1.0
C      1  0.4882090000000  0.4270400000000  0.5375050000000 1.0
C      1  0.4206820000000  0.4696220000000  0.4322350000000 1.0
C      1  0.5452350000000  0.5141830000000  0.5720620000000 1.0
C      1  0.5796370000000  0.5618100000000  0.5834970000000 1.0
C      1  0.4649560000000  0.4988300000000  0.6101430000000 1.0
C      1  0.6015140000000  0.4400200000000  0.4550420000000 1.0
C      1  0.5274540000000  0.4427970000000  0.3993810000000 1.0
C      1  0.5558850000000  0.5836050000000  0.3893710000000 1.0
C      1  0.5671110000000  0.5222860000000  0.4389520000000 1.0
C      1  0.5880320000000  0.5025970000000  0.5057050000000 1.0
C      1  0.5163440000000  0.6082210000000  0.4482370000000 1.0
C      1  0.5197940000000  0.4972460000000  0.5717240000000 1.0
C      1  0.3890080000000  0.5454390000000  0.5225060000000 1.0
C      1  0.4344420000000  0.5092320000000  0.4569190000000 1.0
C      1  0.4395260000000  0.4155840000000  0.5373660000000 1.0
C      1  0.4989980000000  0.6241640000000  0.5159160000000 1.0
C      1  0.4611270000000  0.5074030000000  0.4468970000000 1.0
C      1  0.5804910000000  0.5198880000000  0.6080530000000 1.0
C      1  0.5713970000000  0.4504120000000  0.5200460000000 1.0
C      1  0.5057630000000  0.3834700000000  0.4730420000000 1.0
C      1  0.5554320000000  0.4720800000000  0.4618370000000 1.0
C      1  0.5769120000000  0.3899600000000  0.4981950000000 1.0
C      1  0.4032640000000  0.5010670000000  0.5084940000000 1.0
C      1  0.3866250000000  0.4551500000000  0.5121550000000 1.0
C      1  0.5411370000000  0.5647490000000  0.4877850000000 1.0
C      1  0.4774860000000  0.4371260000000  0.3985070000000 1.0
C      1  0.4645020000000  0.5633040000000  0.4866680000000 1.0
C      1  0.4726020000000  0.5214600000000  0.5497060000000 1.0
C      1  0.4254100000000  0.5640240000000  0.5129120000000 1.0
C      1  0.4429940000000  0.5175920000000  0.6037180000000 1.0
C      1  0.5990290000000  0.4509840000000  0.5066890000000 1.0
C      1  0.4244180000000  0.5650480000000  0.5758570000000 1.0
C      1  0.4630000000000  0.4417980000000  0.4715720000000 1.0
C      1  0.5935450000000  0.4203330000000  0.4348020000000 1.0
C      1  0.6040680000000  0.4790860000000  0.5680170000000 1.0
C      1  0.4833100000000  0.5761100000000  0.5478470000000 1.0
C      1  0.5202510000000  0.5358180000000  0.4266250000000 1.0
C      1  0.5654190000000  0.5020350000000  0.5913070000000 1.0
C      1  0.5661460000000  0.4996970000000  0.5258700000000 1.0
C      1  0.5671030000000  0.4087010000000  0.5177250000000 1.0
C      1  0.4508330000000  0.5836750000000  0.4218210000000 1.0
C      1  0.5649770000000  0.5484730000000  0.5387130000000 1.0
C      1  0.4288520000000  0.5893020000000  0.5282660000000 1.0
C      1  0.5457260000000  0.4527170000000  0.5066100000000 1.0
C      1  0.4535480000000  0.5879000000000  0.4731520000000 1.0
C      1  0.4927380000000  0.5626630000000  0.5010180000000 1.0
C      1  0.5569510000000  0.3760760000000  0.4814100000000 1.0
C      1  0.4421640000000  0.6127000000000  0.5151610000000 1.0
C      1  0.3978500000000  0.4773990000000  0.5573020000000 1.0
C      1  0.5085770000000  0.4617670000000  0.6225950000000 1.0
C      1  0.4176360000000  0.5409790000000  0.4786770000000 1.0
C      1  0.6091870000000  0.4499970000000  0.5583890000000 1.0
C      1  0.5880470000000  0.5260260000000  0.4856990000000 1.0
C      1  0.5142860000000  0.4159790000000  0.5289910000000 1.0
C      1  0.4293450000000  0.3938030000000  0.5213850000000 1.0
C      1  0.5750650000000  0.5975640000000  0.4338040000000 1.0
C      1  0.4174880000000  0.4276370000000  0.4656050000000 1.0
C      1  0.4349480000000  0.5373580000000  0.5222730000000 1.0
C      1  0.4602550000000  0.4823250000000  0.5407730000000 1.0
C      1  0.5611600000000  0.6004730000000  0.5401780000000 1.0
C      1  0.4505420000000  0.5234730000000  0.3737950000000 1.0
C      1  0.4632140000000  0.4164620000000  0.5802540000000 1.0
C      1  0.5200350000000  0.5116860000000  0.3768400000000 1.0
C      1  0.5449930000000  0.4317120000000  0.4210580000000 1.0
C      1  0.6125920000000  0.5487550000000  0.5519340000000 1.0
C      1  0.5120620000000  0.5092540000000  0.5226170000000 1.0
C      1  0.4289540000000  0.4435780000000  0.5350600000000 1.0
C      1  0.4796480000000  0.4842320000000  0.4930090000000 1.0
C      1  0.4475700000000  0.5399980000000  0.4823100000000 1.0
C      1  0.4849260000000  0.5590010000000  0.4436340000000 1.0
C      1  0.4142830000000  0.4986170000000  0.6061100000000 1.0
C      1  0.4518450000000  0.5515240000000  0.5949760000000 1.0
C      1  0.5413800000000  0.5856240000000  0.6076210000000 1.0
C      1  0.3953610000000  0.5022480000000  0.5390690000000 1.0
C      1  0.4942410000000  0.5068560000000  0.3937640000000 1.0
C      1  0.4742890000000  0.4674150000000  0.4672620000000 1.0
C      1  0.4655310000000  0.4132970000000  0.5510600000000 1.0
C      1  0.4945020000000  0.5807560000000  0.5734610000000 1.0
C      1  0.5681460000000  0.5719780000000  0.4986580000000 1.0
C      1  0.4872690000000  0.5066350000000  0.6271320000000 1.0
C      1  0.4377070000000  0.4385890000000  0.4841090000000 1.0
C      1  0.4563470000000  0.4916050000000  0.5135280000000 1.0
C      1  0.5331120000000  0.5979600000000  0.5445970000000 1.0
C      1  0.4559240000000  0.3960360000000  0.4788860000000 1.0
C      1  0.5230790000000  0.4885340000000  0.4289250000000 1.0
C      1  0.4573070000000  0.4747060000000  0.3767170000000 1.0
C      1  0.4371940000000  0.4057920000000  0.4578920000000 1.0
C      1  0.5257800000000  0.5875310000000  0.4297030000000 1.0
C      1  0.5034600000000  0.5427680000000  0.3740460000000 1.0
C      1  0.3934180000000  0.4775770000000  0.4940640000000 1.0
C      1  0.5010370000000  0.4494390000000  0.4087700000000 1.0
C      1  0.5341700000000  0.3904290000000  0.4697070000000 1.0
C      1  0.5363720000000  0.4369220000000  0.4491400000000 1.0
C      1  0.4111280000000  0.4977450000000  0.4436920000000 1.0
C      1  0.4969530000000  0.4314560000000  0.4940130000000 1.0
C      1  0.5361700000000  0.4189010000000  0.4726210000000 1.0
C      1  0.4604290000000  0.5641560000000  0.4009720000000 1.0
C      1  0.4742410000000  0.5302350000000  0.4347030000000 1.0
C      1  0.5882250000000  0.4327050000000  0.5741440000000 1.0
C      1  0.4044340000000  0.4483300000000  0.4493290000000 1.0
C      1  0.4333890000000  0.5105490000000  0.5086740000000 1.0
C      1  0.5570530000000  0.5209550000000  0.5441950000000 1.0
C      1  0.4449910000000  0.4614770000000  0.5529460000000 1.0
C      1  0.4915150000000  0.5594290000000  0.3978690000000 1.0
C      1  0.5164400000000  0.5810000000000  0.4941520000000 1.0
END
