TITL C-862507-1800-1208 -0.000509488070139178 125000 -192.654567693775 0 0 36 (C1) n - 1
REM
REM in /home/nfs/bkarasulu/CARBON/AIRSS/Generating-Clusters/TERSOFF/Higher-Symm/FIRE-HFTN
REM
REM
REM
REM
REM
REM ./C.cell (b20cbc046b6831c77cfcea5457e17084)
REM AIRSS Version 0.9.1 bugfix July 2018 build 013d7b7c2542+ Fri, 06 Jul 2018 19:26:36 +0100
REM compiler GCC version 9.2.1 20190827 (Red Hat 9.2.1-1)
REM options -cpp -mtune=generic -march=x86-64 -g -O0 -fpre-include=/usr/include/finclude/math-vector-fortran.h
REM seed 930413278 1278814584 -650788398 -2075152242 -50111916 1308016927 -1074028373 -589511177 83173205 -1333737760 1600685031 570488709 1486515094 -2143641658 1171976188 202280443 69437705 696784301 -431758958 -296167007 -1202345283 1618156992 -439082109 335907019 1261756714 873196559 1649149124 -1126005082 1049820622 512991061 1643194607 -9546358 1800011864
REM
CELL 1.54180   50.00000   50.00000   50.00000   90.00000   90.00000   90.00000
LATT -1
SFAC C  
C      1  0.4463980000000  0.5366000000000  0.4920210000000 1.0
C      1  0.5546190000000  0.5348050000000  0.4931440000000 1.0
C      1  0.5131930000000  0.4439470000000  0.4690930000000 1.0
C      1  0.4844320000000  0.4439520000000  0.4700860000000 1.0
C      1  0.4846090000000  0.4777210000000  0.4305960000000 1.0
C      1  0.5132850000000  0.4780550000000  0.4297690000000 1.0
C      1  0.5154110000000  0.5144110000000  0.4606450000000 1.0
C      1  0.4843230000000  0.5146360000000  0.4608210000000 1.0
C      1  0.5728450000000  0.5082720000000  0.5330240000000 1.0
C      1  0.4259000000000  0.5100230000000  0.5303780000000 1.0
C      1  0.5142770000000  0.5057330000000  0.5500250000000 1.0
C      1  0.4835740000000  0.5058080000000  0.5499460000000 1.0
C      1  0.4423550000000  0.5325900000000  0.5217600000000 1.0
C      1  0.5573300000000  0.5310410000000  0.5231430000000 1.0
C      1  0.4850190000000  0.5153080000000  0.5090970000000 1.0
C      1  0.5154310000000  0.5155560000000  0.5092260000000 1.0
C      1  0.4408870000000  0.4946160000000  0.4466090000000 1.0
C      1  0.5579320000000  0.4936250000000  0.4447930000000 1.0
C      1  0.4685060000000  0.4841310000000  0.5353840000000 1.0
C      1  0.5293780000000  0.4835280000000  0.5368580000000 1.0
C      1  0.4720050000000  0.4696060000000  0.4773180000000 1.0
C      1  0.5264860000000  0.4693440000000  0.4755970000000 1.0
C      1  0.4866820000000  0.4500170000000  0.5189580000000 1.0
C      1  0.5281750000000  0.4493430000000  0.5124900000000 1.0
C      1  0.4823280000000  0.4793340000000  0.5062900000000 1.0
C      1  0.5183570000000  0.4797310000000  0.5063870000000 1.0
C      1  0.4714240000000  0.5315760000000  0.5349640000000 1.0
C      1  0.5278320000000  0.5311320000000  0.5354590000000 1.0
C      1  0.5296300000000  0.4890740000000  0.4521750000000 1.0
C      1  0.4692470000000  0.4893170000000  0.4534250000000 1.0
C      1  0.4393340000000  0.4853250000000  0.5367620000000 1.0
C      1  0.5584910000000  0.4842390000000  0.5401200000000 1.0
C      1  0.4854300000000  0.5564350000000  0.5420040000000 1.0
C      1  0.5142230000000  0.5562750000000  0.5420920000000 1.0
C      1  0.5269210000000  0.5273690000000  0.4846780000000 1.0
C      1  0.4737300000000  0.5275240000000  0.4848620000000 1.0
END
