TITL C-862502-1143-300 0.000146627723994181 125000 -150.850559896886 0 0 29 (C1) n - 1
REM
REM in /home/nfs/bkarasulu/CARBON/AIRSS/Generating-Clusters/TERSOFF/Higher-Symm/FIRE-HFTN
REM
REM
REM
REM
REM
REM ./C.cell (b20cbc046b6831c77cfcea5457e17084)
REM AIRSS Version 0.9.1 bugfix July 2018 build 013d7b7c2542+ Fri, 06 Jul 2018 19:26:36 +0100
REM compiler GCC version 9.2.1 20190827 (Red Hat 9.2.1-1)
REM options -cpp -mtune=generic -march=x86-64 -g -O0 -fpre-include=/usr/include/finclude/math-vector-fortran.h
REM seed -315255153 3992330 -1950385851 -1858088916 398384188 1235998578 1965526589 -1378928339 1347233085 1436476742 1313922557 470132498 2021072277 969757849 1420042642 -53437726 2107685916 -1195587884 405078564 2100744022 1411669701 1927485825 -1300253945 1222990947 833201836 -564007034 132812675 1317829101 440291526 322154009 -202715488 -1482438968 -1778116916
REM
CELL 1.54180   50.00000   50.00000   50.00000   90.00000   90.00000   90.00000
LATT -1
SFAC C  
C      1  0.4790770000000  0.4706710000000  0.4627050000000 1.0
C      1  0.5134690000000  0.4990670000000  0.4973570000000 1.0
C      1  0.5043860000000  0.5562300000000  0.4898230000000 1.0
C      1  0.4963240000000  0.5261080000000  0.4902960000000 1.0
C      1  0.4726540000000  0.5166390000000  0.4454090000000 1.0
C      1  0.5227130000000  0.4528810000000  0.4759500000000 1.0
C      1  0.5290370000000  0.5325850000000  0.5428350000000 1.0
C      1  0.4775290000000  0.4594500000000  0.5253590000000 1.0
C      1  0.5430370000000  0.5107670000000  0.4981440000000 1.0
C      1  0.4574780000000  0.5548580000000  0.4952170000000 1.0
C      1  0.4691420000000  0.5290910000000  0.5075410000000 1.0
C      1  0.4799430000000  0.5730990000000  0.4883790000000 1.0
C      1  0.5005200000000  0.5266080000000  0.5485500000000 1.0
C      1  0.5440150000000  0.4831050000000  0.5416520000000 1.0
C      1  0.4796890000000  0.5399750000000  0.5338280000000 1.0
C      1  0.5205140000000  0.5030080000000  0.4545750000000 1.0
C      1  0.5176650000000  0.4383850000000  0.5001770000000 1.0
C      1  0.4972910000000  0.5224160000000  0.4591620000000 1.0
C      1  0.5078320000000  0.4775810000000  0.4702930000000 1.0
C      1  0.4676480000000  0.4451210000000  0.4705340000000 1.0
C      1  0.5304730000000  0.4537450000000  0.5470600000000 1.0
C      1  0.4638120000000  0.4765840000000  0.5053350000000 1.0
C      1  0.5078210000000  0.4517580000000  0.5244130000000 1.0
C      1  0.5462520000000  0.5124900000000  0.5290430000000 1.0
C      1  0.5124830000000  0.4844090000000  0.5248610000000 1.0
C      1  0.4532560000000  0.5038990000000  0.5101840000000 1.0
C      1  0.4968980000000  0.4981410000000  0.5458610000000 1.0
C      1  0.4633650000000  0.4898390000000  0.4476470000000 1.0
C      1  0.5456790000000  0.5114880000000  0.4678100000000 1.0
END
