TITL C-862505-1648-70 0.146475781139377 125000 -602.038301326877 0 0 104 (C1) n - 1
REM
REM in /home/nfs/bkarasulu/CARBON/AIRSS/Generating-Clusters/TERSOFF/Higher-Symm/FIRE-HFTN
REM
REM
REM
REM
REM
REM ./C.cell (b20cbc046b6831c77cfcea5457e17084)
REM AIRSS Version 0.9.1 bugfix July 2018 build 013d7b7c2542+ Fri, 06 Jul 2018 19:26:36 +0100
REM compiler GCC version 9.2.1 20190827 (Red Hat 9.2.1-1)
REM options -cpp -mtune=generic -march=x86-64 -g -O0 -fpre-include=/usr/include/finclude/math-vector-fortran.h
REM seed -1805876473 532499281 -1668651180 -1990958113 -1998725791 458586461 1211513412 1618670485 269643820 25188778 -983478645 -1120208355 936112992 -287844668 762023806 86295739 -434012704 1765459217 -1085852846 -115212062 -1155575033 1299938850 -1112091393 1797402325 -1684754641 -1189242064 2072908805 22547509 -937407543 -519591172 966551640 -1082150410 303454184
REM
CELL 1.54180   50.00000   50.00000   50.00000   90.00000   90.00000   90.00000
LATT -1
SFAC C  
C      1  0.4829210000000  0.5335680000000  0.4830150000000 1.0
C      1  0.5169550000000  0.5333780000000  0.5163740000000 1.0
C      1  0.4829180000000  0.5334990000000  0.5163710000000 1.0
C      1  0.5169580000000  0.5334470000000  0.4830180000000 1.0
C      1  0.5290080000000  0.4571150000000  0.5142480000000 1.0
C      1  0.4703270000000  0.4573840000000  0.4848240000000 1.0
C      1  0.5290100000000  0.4571760000000  0.4848300000000 1.0
C      1  0.4703240000000  0.4573230000000  0.5142420000000 1.0
C      1  0.5287630000000  0.4827350000000  0.4703930000000 1.0
C      1  0.4707520000000  0.4828200000000  0.5287850000000 1.0
C      1  0.5287580000000  0.4826140000000  0.5287910000000 1.0
C      1  0.4707580000000  0.4829410000000  0.4703870000000 1.0
C      1  0.5330020000000  0.4267890000000  0.4134370000000 1.0
C      1  0.4685130000000  0.4263230000000  0.5839250000000 1.0
C      1  0.5330450000000  0.4264430000000  0.5855590000000 1.0
C      1  0.4683770000000  0.4266900000000  0.4149230000000 1.0
C      1  0.4608120000000  0.5079940000000  0.4831370000000 1.0
C      1  0.5388810000000  0.5076490000000  0.5161450000000 1.0
C      1  0.4608090000000  0.5079260000000  0.5161380000000 1.0
C      1  0.5388850000000  0.5077170000000  0.4831440000000 1.0
C      1  0.4120530000000  0.5358290000000  0.4854960000000 1.0
C      1  0.5878380000000  0.5351460000000  0.5139000000000 1.0
C      1  0.4120500000000  0.5357700000000  0.5138840000000 1.0
C      1  0.5878400000000  0.5352050000000  0.4855120000000 1.0
C      1  0.4279360000000  0.5045670000000  0.4212480000000 1.0
C      1  0.5717310000000  0.5037300000000  0.5780190000000 1.0
C      1  0.4279210000000  0.5042410000000  0.5780060000000 1.0
C      1  0.5717470000000  0.5040560000000  0.4212610000000 1.0
C      1  0.4112430000000  0.4512920000000  0.5401280000000 1.0
C      1  0.5865150000000  0.4534900000000  0.4687480000000 1.0
C      1  0.4128010000000  0.4541070000000  0.4687330000000 1.0
C      1  0.5880390000000  0.4506640000000  0.5401450000000 1.0
C      1  0.5225030000000  0.4523980000000  0.5933500000000 1.0
C      1  0.4767990000000  0.4529500000000  0.4057030000000 1.0
C      1  0.5225210000000  0.4527870000000  0.4057070000000 1.0
C      1  0.4767810000000  0.4525600000000  0.5933460000000 1.0
C      1  0.5651260000000  0.5179450000000  0.5300710000000 1.0
C      1  0.4346420000000  0.5185350000000  0.4692540000000 1.0
C      1  0.5651320000000  0.5180710000000  0.4692660000000 1.0
C      1  0.4346360000000  0.5184090000000  0.5300600000000 1.0
C      1  0.5779040000000  0.4371880000000  0.5166190000000 1.0
C      1  0.4294740000000  0.4509430000000  0.4921800000000 1.0
C      1  0.5698170000000  0.4504430000000  0.4921920000000 1.0
C      1  0.4212900000000  0.4377460000000  0.5166050000000 1.0
C      1  0.5293940000000  0.5826500000000  0.5148710000000 1.0
C      1  0.4708330000000  0.5829200000000  0.4847220000000 1.0
C      1  0.5293970000000  0.5827120000000  0.4847270000000 1.0
C      1  0.4708300000000  0.5828580000000  0.5148660000000 1.0
C      1  0.5570390000000  0.5479750000000  0.5393190000000 1.0
C      1  0.4429420000000  0.5485450000000  0.4601310000000 1.0
C      1  0.5570470000000  0.5481390000000  0.4601410000000 1.0
C      1  0.4429340000000  0.5483800000000  0.5393080000000 1.0
C      1  0.4523170000000  0.4963100000000  0.5907630000000 1.0
C      1  0.5472950000000  0.4963510000000  0.4084710000000 1.0
C      1  0.4523350000000  0.4966890000000  0.4084620000000 1.0
C      1  0.5472770000000  0.4959730000000  0.5907720000000 1.0
C      1  0.4851660000000  0.4837250000000  0.5544790000000 1.0
C      1  0.5143570000000  0.4838490000000  0.4447030000000 1.0
C      1  0.4851770000000  0.4839530000000  0.4447000000000 1.0
C      1  0.5143460000000  0.4836210000000  0.5544820000000 1.0
C      1  0.4221970000000  0.5005540000000  0.5499420000000 1.0
C      1  0.5774430000000  0.5002110000000  0.4493090000000 1.0
C      1  0.4222070000000  0.5007630000000  0.4492950000000 1.0
C      1  0.5774330000000  0.5000020000000  0.5499560000000 1.0
C      1  0.4703620000000  0.5575010000000  0.4680910000000 1.0
C      1  0.5296840000000  0.5571590000000  0.5313970000000 1.0
C      1  0.4703550000000  0.5573700000000  0.5313910000000 1.0
C      1  0.5296900000000  0.5572910000000  0.4680960000000 1.0
C      1  0.5833190000000  0.5624680000000  0.5297270000000 1.0
C      1  0.4167650000000  0.5631850000000  0.4697830000000 1.0
C      1  0.5833250000000  0.5625930000000  0.4697980000000 1.0
C      1  0.4167590000000  0.5630600000000  0.5297120000000 1.0
C      1  0.5616820000000  0.4220080000000  0.4131610000000 1.0
C      1  0.4414920000000  0.4168840000000  0.5890510000000 1.0
C      1  0.5616790000000  0.4214860000000  0.5865560000000 1.0
C      1  0.4411890000000  0.4176020000000  0.4100550000000 1.0
C      1  0.5281530000000  0.4777370000000  0.4195560000000 1.0
C      1  0.4713270000000  0.4776060000000  0.5796010000000 1.0
C      1  0.5281370000000  0.4774050000000  0.5796060000000 1.0
C      1  0.4713420000000  0.4779390000000  0.4195500000000 1.0
C      1  0.4709630000000  0.5672920000000  0.4178750000000 1.0
C      1  0.5291510000000  0.5667450000000  0.5816530000000 1.0
C      1  0.4709470000000  0.5669520000000  0.5816480000000 1.0
C      1  0.5291670000000  0.5670850000000  0.4178800000000 1.0
C      1  0.5139950000000  0.4355060000000  0.4722330000000 1.0
C      1  0.4851850000000  0.4354950000000  0.5267490000000 1.0
C      1  0.5139900000000  0.4353930000000  0.5267520000000 1.0
C      1  0.4851900000000  0.4356090000000  0.4722300000000 1.0
C      1  0.5145640000000  0.6047310000000  0.5270280000000 1.0
C      1  0.4858190000000  0.6049460000000  0.4726570000000 1.0
C      1  0.5145700000000  0.6048440000000  0.4726600000000 1.0
C      1  0.4858130000000  0.6048330000000  0.5270250000000 1.0
C      1  0.4042800000000  0.4795320000000  0.4578360000000 1.0
C      1  0.5952100000000  0.4786810000000  0.5413260000000 1.0
C      1  0.4042720000000  0.4793590000000  0.5413090000000 1.0
C      1  0.5952180000000  0.4788540000000  0.4578540000000 1.0
C      1  0.4871440000000  0.4095190000000  0.4290110000000 1.0
C      1  0.5149520000000  0.4054450000000  0.5767700000000 1.0
C      1  0.4872660000000  0.4095240000000  0.5693790000000 1.0
C      1  0.5148020000000  0.4055720000000  0.4214440000000 1.0
C      1  0.5145760000000  0.5620810000000  0.5569230000000 1.0
C      1  0.4855040000000  0.5624220000000  0.4425850000000 1.0
C      1  0.5145870000000  0.5623180000000  0.4425870000000 1.0
C      1  0.4854930000000  0.5621840000000  0.5569210000000 1.0
END
