TITL C-862130-1496-22 244.220047683255 125000 -373.014740563266 0 0 66 (C1) n - 1
REM
REM in /home/nfs/bkarasulu/CARBON/AIRSS/Generating-Clusters/TERSOFF/Higher-Symm/FIRE-HFTN
REM
REM
REM
REM
REM
REM ./C.cell (b20cbc046b6831c77cfcea5457e17084)
REM AIRSS Version 0.9.1 bugfix July 2018 build 013d7b7c2542+ Fri, 06 Jul 2018 19:26:36 +0100
REM compiler GCC version 9.2.1 20190827 (Red Hat 9.2.1-1)
REM options -cpp -mtune=generic -march=x86-64 -g -O0 -fpre-include=/usr/include/finclude/math-vector-fortran.h
REM seed -1880740886 1066777931 731636094 -17531107 -1313302517 778817993 -866648607 -925170240 -147273622 -1951963223 -1334948772 -1791034089 -993598172 -41468567 -1222237965 1641180992 212642699 1183548824 375880013 -648804999 -681454782 -494327899 93227928 835488673 10111829 1363777128 1471082611 -1469511710 -1134786410 -1571133274 373096348 -169335413 -1367887876
REM
CELL 1.54180   50.00000   50.00000   50.00000   90.00000   90.00000   90.00000
LATT -1
SFAC C  
C      1  0.5086390000000  0.4356860000000  0.4525000000000 1.0
C      1  0.4504670000000  0.5727800000000  0.4464020000000 1.0
C      1  0.5331810000000  0.4313900000000  0.4373340000000 1.0
C      1  0.4841360000000  0.5731810000000  0.5077640000000 1.0
C      1  0.4967750000000  0.5663840000000  0.5341310000000 1.0
C      1  0.4466130000000  0.4978780000000  0.5015130000000 1.0
C      1  0.4581210000000  0.5502510000000  0.4638980000000 1.0
C      1  0.5311790000000  0.5790840000000  0.4793060000000 1.0
C      1  0.5217250000000  0.5797620000000  0.5434160000000 1.0
C      1  0.4804550000000  0.5017220000000  0.5737780000000 1.0
C      1  0.4530090000000  0.5462740000000  0.5459570000000 1.0
C      1  0.5301730000000  0.6064410000000  0.4628400000000 1.0
C      1  0.5412160000000  0.5203250000000  0.5443130000000 1.0
C      1  0.5097090000000  0.4293700000000  0.4808800000000 1.0
C      1  0.4922050000000  0.4459790000000  0.4971750000000 1.0
C      1  0.4885990000000  0.4553980000000  0.4437750000000 1.0
C      1  0.4778190000000  0.4277010000000  0.5588720000000 1.0
C      1  0.4895560000000  0.4856570000000  0.5290180000000 1.0
C      1  0.4578830000000  0.5597410000000  0.4986420000000 1.0
C      1  0.5594410000000  0.5437010000000  0.5432800000000 1.0
C      1  0.5611670000000  0.4376500000000  0.4788650000000 1.0
C      1  0.4987020000000  0.6014730000000  0.4649540000000 1.0
C      1  0.4899670000000  0.5240070000000  0.4884020000000 1.0
C      1  0.5433250000000  0.4790730000000  0.4717070000000 1.0
C      1  0.5302090000000  0.5139620000000  0.4949990000000 1.0
C      1  0.5252350000000  0.5254980000000  0.5202360000000 1.0
C      1  0.4814310000000  0.5479810000000  0.5518530000000 1.0
C      1  0.5236630000000  0.5257090000000  0.5677640000000 1.0
C      1  0.5210750000000  0.4522710000000  0.5660650000000 1.0
C      1  0.4563150000000  0.4266050000000  0.4871610000000 1.0
C      1  0.4311340000000  0.5201370000000  0.5103720000000 1.0
C      1  0.4603640000000  0.5769150000000  0.4195190000000 1.0
C      1  0.5422740000000  0.4847720000000  0.4415710000000 1.0
C      1  0.5502700000000  0.4909080000000  0.5457050000000 1.0
C      1  0.4482990000000  0.4705720000000  0.5540980000000 1.0
C      1  0.4915190000000  0.4529450000000  0.5654920000000 1.0
C      1  0.4427910000000  0.5447570000000  0.5187220000000 1.0
C      1  0.5187930000000  0.5193850000000  0.4498840000000 1.0
C      1  0.5375940000000  0.4765310000000  0.5689620000000 1.0
C      1  0.4999720000000  0.5743300000000  0.4823310000000 1.0
C      1  0.5370540000000  0.5299430000000  0.4710220000000 1.0
C      1  0.4518060000000  0.4551170000000  0.4826950000000 1.0
C      1  0.5166310000000  0.4849920000000  0.4229150000000 1.0
C      1  0.4715320000000  0.5002390000000  0.4861970000000 1.0
C      1  0.5366310000000  0.4312370000000  0.4949450000000 1.0
C      1  0.4681340000000  0.4996540000000  0.4443550000000 1.0
C      1  0.4776640000000  0.4776890000000  0.5558760000000 1.0
C      1  0.5657060000000  0.4669430000000  0.4872460000000 1.0
C      1  0.4879960000000  0.5483700000000  0.4716860000000 1.0
C      1  0.5494230000000  0.5706060000000  0.5379450000000 1.0
C      1  0.4564110000000  0.4136670000000  0.5135120000000 1.0
C      1  0.4949190000000  0.5261850000000  0.5666820000000 1.0
C      1  0.5309010000000  0.4369180000000  0.5441710000000 1.0
C      1  0.5058920000000  0.4954220000000  0.4621220000000 1.0
C      1  0.5562600000000  0.4717720000000  0.5191490000000 1.0
C      1  0.4786780000000  0.4145990000000  0.5325810000000 1.0
C      1  0.5589650000000  0.4313450000000  0.4504360000000 1.0
C      1  0.4708300000000  0.4728430000000  0.4628210000000 1.0
C      1  0.4905900000000  0.5025960000000  0.4236810000000 1.0
C      1  0.4383520000000  0.4705850000000  0.5039890000000 1.0
C      1  0.5472390000000  0.5567130000000  0.4719250000000 1.0
C      1  0.5189560000000  0.4868400000000  0.4882220000000 1.0
C      1  0.4352740000000  0.4598210000000  0.5305500000000 1.0
C      1  0.4496210000000  0.5224600000000  0.4530730000000 1.0
C      1  0.5062150000000  0.4689180000000  0.5100650000000 1.0
C      1  0.5333210000000  0.4503390000000  0.5186820000000 1.0
END
