TITL C-862506-1665-297 -13.5641342633031 125000 -1020.54054386242 0 0 183 (C1) n - 1
REM
REM in /home/nfs/bkarasulu/CARBON/AIRSS/Generating-Clusters/TERSOFF/Higher-Symm/FIRE-HFTN
REM
REM
REM
REM
REM
REM ./C.cell (b20cbc046b6831c77cfcea5457e17084)
REM AIRSS Version 0.9.1 bugfix July 2018 build 013d7b7c2542+ Fri, 06 Jul 2018 19:26:36 +0100
REM compiler GCC version 9.2.1 20190827 (Red Hat 9.2.1-1)
REM options -cpp -mtune=generic -march=x86-64 -g -O0 -fpre-include=/usr/include/finclude/math-vector-fortran.h
REM seed -216821828 202194116 -686686791 566992962 1061805174 1634278177 1862692863 1923159804 76179909 1768376289 1973309152 -874218683 -915415228 -250089476 -1947021214 719671837 -572696106 790447982 1548597927 1364919435 -622123207 -1975238352 330550901 1063810525 2086695458 -1158528375 -1522114434 2140651321 915571151 -288057216 -286504969 -1564599584 -2005693055
REM
CELL 1.54180   50.00000   50.00000   50.00000   90.00000   90.00000   90.00000
LATT -1
SFAC C  
C      1  0.5001950000000  0.4279950000000  0.4690570000000 1.0
C      1  0.5268360000000  0.4279820000000  0.5156260000000 1.0
C      1  0.4731290000000  0.4279900000000  0.5154180000000 1.0
C      1  0.5003000000000  0.4279960000000  0.5309810000000 1.0
C      1  0.5267770000000  0.4279830000000  0.4843210000000 1.0
C      1  0.4731000000000  0.4280010000000  0.4847710000000 1.0
C      1  0.5431700000000  0.5661850000000  0.4784910000000 1.0
C      1  0.4978460000000  0.5659290000000  0.5491670000000 1.0
C      1  0.4585510000000  0.5658110000000  0.4735730000000 1.0
C      1  0.5432630000000  0.5662440000000  0.5214690000000 1.0
C      1  0.4977440000000  0.5658520000000  0.4508790000000 1.0
C      1  0.4597300000000  0.5661460000000  0.5267350000000 1.0
C      1  0.4489560000000  0.5205440000000  0.5306940000000 1.0
C      1  0.4997260000000  0.5207330000000  0.4405730000000 1.0
C      1  0.5520450000000  0.5205330000000  0.5290390000000 1.0
C      1  0.4486610000000  0.5206930000000  0.4701850000000 1.0
C      1  0.5000140000000  0.5207480000000  0.5594520000000 1.0
C      1  0.5519140000000  0.5204580000000  0.4709190000000 1.0
C      1  0.3949620000000  0.5189100000000  0.4827780000000 1.0
C      1  0.5665250000000  0.5188830000000  0.4171750000000 1.0
C      1  0.5375000000000  0.5188530000000  0.5995880000000 1.0
C      1  0.3950110000000  0.5189510000000  0.5161150000000 1.0
C      1  0.5664920000000  0.5188880000000  0.5827960000000 1.0
C      1  0.5376550000000  0.5189110000000  0.4004210000000 1.0
C      1  0.4340800000000  0.5492850000000  0.4868420000000 1.0
C      1  0.5460740000000  0.5498840000000  0.4510160000000 1.0
C      1  0.5216620000000  0.5494070000000  0.5637470000000 1.0
C      1  0.4345620000000  0.5498460000000  0.5154610000000 1.0
C      1  0.5462070000000  0.5499680000000  0.5489640000000 1.0
C      1  0.5214790000000  0.5493230000000  0.4363330000000 1.0
C      1  0.4199000000000  0.4452680000000  0.4271170000000 1.0
C      1  0.6032630000000  0.4453160000000  0.4667660000000 1.0
C      1  0.4767440000000  0.4452160000000  0.6057150000000 1.0
C      1  0.4193290000000  0.4453660000000  0.5727890000000 1.0
C      1  0.6033890000000  0.4453480000000  0.5332480000000 1.0
C      1  0.4769320000000  0.4453190000000  0.3940170000000 1.0
C      1  0.6043180000000  0.4996120000000  0.4690970000000 1.0
C      1  0.4742330000000  0.4994620000000  0.6053440000000 1.0
C      1  0.4213280000000  0.4995400000000  0.4250660000000 1.0
C      1  0.6045320000000  0.4996770000000  0.5309730000000 1.0
C      1  0.4744630000000  0.4996400000000  0.3941080000000 1.0
C      1  0.4205170000000  0.4997090000000  0.5750210000000 1.0
C      1  0.5254150000000  0.5391840000000  0.5143190000000 1.0
C      1  0.4750200000000  0.5392560000000  0.5150800000000 1.0
C      1  0.4994440000000  0.5393350000000  0.4704920000000 1.0
C      1  0.5252300000000  0.5391450000000  0.4856380000000 1.0
C      1  0.4746860000000  0.5393160000000  0.4849910000000 1.0
C      1  0.4998180000000  0.5392830000000  0.5295100000000 1.0
C      1  0.5120250000000  0.4708670000000  0.4486660000000 1.0
C      1  0.5384700000000  0.4708590000000  0.5359110000000 1.0
C      1  0.4498700000000  0.4709700000000  0.5153890000000 1.0
C      1  0.5124600000000  0.4707070000000  0.5515190000000 1.0
C      1  0.5383110000000  0.4708050000000  0.4638400000000 1.0
C      1  0.4493730000000  0.4708100000000  0.4850320000000 1.0
C      1  0.5248760000000  0.5653470000000  0.5877270000000 1.0
C      1  0.4117870000000  0.5652940000000  0.4776300000000 1.0
C      1  0.5658100000000  0.5668270000000  0.4372740000000 1.0
C      1  0.5246660000000  0.5652920000000  0.4124200000000 1.0
C      1  0.4127770000000  0.5668880000000  0.5255180000000 1.0
C      1  0.5659410000000  0.5669580000000  0.5627010000000 1.0
C      1  0.4953930000000  0.3982400000000  0.4559810000000 1.0
C      1  0.5405410000000  0.3982160000000  0.5180180000000 1.0
C      1  0.4642030000000  0.3982350000000  0.5260870000000 1.0
C      1  0.4955340000000  0.3982160000000  0.5440740000000 1.0
C      1  0.5404820000000  0.3982110000000  0.4818880000000 1.0
C      1  0.4641390000000  0.3982340000000  0.4740970000000 1.0
C      1  0.5188130000000  0.5474200000000  0.3890640000000 1.0
C      1  0.5847380000000  0.5455350000000  0.5744740000000 1.0
C      1  0.3931000000000  0.5455900000000  0.5359560000000 1.0
C      1  0.5186030000000  0.5473480000000  0.6108990000000 1.0
C      1  0.5846990000000  0.5455270000000  0.4254730000000 1.0
C      1  0.3945790000000  0.5474190000000  0.4607820000000 1.0
C      1  0.5563490000000  0.4171760000000  0.5660500000000 1.0
C      1  0.4147560000000  0.4172960000000  0.5157720000000 1.0
C      1  0.5289840000000  0.4171210000000  0.4181800000000 1.0
C      1  0.5561710000000  0.4171740000000  0.4338250000000 1.0
C      1  0.4146280000000  0.4171100000000  0.4844180000000 1.0
C      1  0.5292390000000  0.4169980000000  0.5818450000000 1.0
C      1  0.4304980000000  0.5267480000000  0.4157400000000 1.0
C      1  0.6077540000000  0.5268630000000  0.4818500000000 1.0
C      1  0.4615630000000  0.5267320000000  0.6022370000000 1.0
C      1  0.4301710000000  0.5268370000000  0.5842320000000 1.0
C      1  0.6078260000000  0.5268890000000  0.5180920000000 1.0
C      1  0.4617720000000  0.5268080000000  0.3976190000000 1.0
C      1  0.5996660000000  0.5523930000000  0.4574990000000 1.0
C      1  0.4858900000000  0.5528490000000  0.6078790000000 1.0
C      1  0.4137640000000  0.5529110000000  0.4341440000000 1.0
C      1  0.5997260000000  0.5524000000000  0.5424510000000 1.0
C      1  0.4861100000000  0.5529550000000  0.3924120000000 1.0
C      1  0.4134050000000  0.5523740000000  0.5649130000000 1.0
C      1  0.5747140000000  0.5341960000000  0.4856180000000 1.0
C      1  0.4755690000000  0.5343980000000  0.5718480000000 1.0
C      1  0.4501840000000  0.5343080000000  0.4427520000000 1.0
C      1  0.5748170000000  0.5342200000000  0.5142780000000 1.0
C      1  0.4751990000000  0.5343290000000  0.4282020000000 1.0
C      1  0.4503630000000  0.5341790000000  0.5578840000000 1.0
C      1  0.5300630000000  0.4975260000000  0.4833200000000 1.0
C      1  0.4997760000000  0.4976100000000  0.5344780000000 1.0
C      1  0.4705190000000  0.4976330000000  0.4825170000000 1.0
C      1  0.5301620000000  0.4975550000000  0.5166620000000 1.0
C      1  0.4994840000000  0.4976450000000  0.4656880000000 1.0
C      1  0.4707430000000  0.4976110000000  0.5179110000000 1.0
C      1  0.5005440000000  0.5933040000000  0.5332070000000 1.0
C      1  0.4710540000000  0.5930850000000  0.4838050000000 1.0
C      1  0.5282500000000  0.5936030000000  0.4828790000000 1.0
C      1  0.5004060000000  0.5931410000000  0.4667870000000 1.0
C      1  0.4710990000000  0.5934530000000  0.5160530000000 1.0
C      1  0.5283180000000  0.5936650000000  0.5170920000000 1.0
C      1  0.4589460000000  0.4508110000000  0.4640310000000 1.0
C      1  0.5518900000000  0.4507620000000  0.4824540000000 1.0
C      1  0.4894120000000  0.4507780000000  0.5536190000000 1.0
C      1  0.4590390000000  0.4508050000000  0.5363910000000 1.0
C      1  0.5520340000000  0.4507710000000  0.5173550000000 1.0
C      1  0.4891170000000  0.4508150000000  0.4464200000000 1.0
C      1  0.4627370000000  0.4722160000000  0.3882490000000 1.0
C      1  0.6154900000000  0.4722370000000  0.5238100000000 1.0
C      1  0.4211940000000  0.4722410000000  0.5880590000000 1.0
C      1  0.4624170000000  0.4720860000000  0.6110420000000 1.0
C      1  0.6152550000000  0.4721960000000  0.4763080000000 1.0
C      1  0.4222070000000  0.4721440000000  0.4119880000000 1.0
C      1  0.5748270000000  0.4984030000000  0.4636520000000 1.0
C      1  0.4938150000000  0.4981910000000  0.5827530000000 1.0
C      1  0.4313370000000  0.4982950000000  0.4532800000000 1.0
C      1  0.5749760000000  0.4984850000000  0.5363370000000 1.0
C      1  0.4938180000000  0.4983930000000  0.4170210000000 1.0
C      1  0.4309450000000  0.4986230000000  0.5467880000000 1.0
C      1  0.4758070000000  0.4749890000000  0.4280660000000 1.0
C      1  0.5745160000000  0.4750370000000  0.5150240000000 1.0
C      1  0.4493800000000  0.4750840000000  0.5570530000000 1.0
C      1  0.4758140000000  0.4748920000000  0.5713360000000 1.0
C      1  0.5742440000000  0.4749650000000  0.4849280000000 1.0
C      1  0.4499870000000  0.4749120000000  0.4433660000000 1.0
C      1  0.5692230000000  0.4438370000000  0.5704680000000 1.0
C      1  0.4045220000000  0.4439590000000  0.5247220000000 1.0
C      1  0.5263470000000  0.4437030000000  0.4046510000000 1.0
C      1  0.5690730000000  0.4438150000000  0.4293530000000 1.0
C      1  0.4041660000000  0.4436720000000  0.4753730000000 1.0
C      1  0.5266470000000  0.4435560000000  0.5954540000000 1.0
C      1  0.5008210000000  0.4082060000000  0.5735220000000 1.0
C      1  0.4360100000000  0.4082640000000  0.4639650000000 1.0
C      1  0.5632890000000  0.4082440000000  0.4625250000000 1.0
C      1  0.5006030000000  0.4082940000000  0.4265480000000 1.0
C      1  0.4360810000000  0.4083140000000  0.5362200000000 1.0
C      1  0.5633900000000  0.4082670000000  0.5373260000000 1.0
C      1  0.5713370000000  0.4944420000000  0.4345510000000 1.0
C      1  0.5204310000000  0.4941910000000  0.5949310000000 1.0
C      1  0.4075650000000  0.4942920000000  0.4703140000000 1.0
C      1  0.5713710000000  0.4944690000000  0.5654120000000 1.0
C      1  0.5204930000000  0.4943350000000  0.4050650000000 1.0
C      1  0.4076690000000  0.4945870000000  0.5290420000000 1.0
C      1  0.4771780000000  0.5663490000000  0.5754360000000 1.0
C      1  0.4462880000000  0.5662870000000  0.4426580000000 1.0
C      1  0.5767340000000  0.5661730000000  0.4819460000000 1.0
C      1  0.4771390000000  0.5663080000000  0.4248210000000 1.0
C      1  0.4460340000000  0.5661780000000  0.5574050000000 1.0
C      1  0.5768180000000  0.5662010000000  0.5179900000000 1.0
C      1  0.5761030000000  0.4335610000000  0.5258900000000 1.0
C      1  0.4395680000000  0.4335840000000  0.5530290000000 1.0
C      1  0.4843340000000  0.4335810000000  0.4213170000000 1.0
C      1  0.5759420000000  0.4335540000000  0.4739450000000 1.0
C      1  0.4396440000000  0.4335740000000  0.4473480000000 1.0
C      1  0.4846540000000  0.4335380000000  0.5786000000000 1.0
C      1  0.4174110000000  0.5956550000000  0.5152050000000 1.0
C      1  0.5283690000000  0.5947610000000  0.4201810000000 1.0
C      1  0.5545870000000  0.5957080000000  0.5639110000000 1.0
C      1  0.4167440000000  0.5947960000000  0.4846520000000 1.0
C      1  0.5284870000000  0.5948390000000  0.5798150000000 1.0
C      1  0.5545100000000  0.5956090000000  0.4360360000000 1.0
C      1  0.5491000000000  0.6070860000000  0.4636080000000 1.0
C      1  0.5062690000000  0.6055950000000  0.5619920000000 1.0
C      1  0.4433310000000  0.6055210000000  0.4744050000000 1.0
C      1  0.5491840000000  0.6071580000000  0.5363340000000 1.0
C      1  0.5061760000000  0.6055370000000  0.4380500000000 1.0
C      1  0.4440040000000  0.6070500000000  0.5243760000000 1.0
C      1  0.4153620000000  0.4697180000000  0.4846380000000 1.0
C      1  0.5552360000000  0.4697690000000  0.4343290000000 1.0
C      1  0.5290710000000  0.4696000000000  0.5811310000000 1.0
C      1  0.4157080000000  0.4699020000000  0.5151110000000 1.0
C      1  0.5553100000000  0.4697740000000  0.5655810000000 1.0
C      1  0.5288850000000  0.4697330000000  0.4190030000000 1.0
C      1  0.4633220000000  0.3831450000000  0.5000920000000 1.0
C      1  0.5183490000000  0.3831390000000  0.4681990000000 1.0
C      1  0.5184530000000  0.3831300000000  0.5317660000000 1.0
END
