TITL C-862506-1665-695 150.440199294945 125000 -847.897039370795 0 0 146 (C1) n - 1
REM
REM in /home/nfs/bkarasulu/CARBON/AIRSS/Generating-Clusters/TERSOFF/Higher-Symm/FIRE-HFTN
REM
REM
REM
REM
REM
REM ./C.cell (b20cbc046b6831c77cfcea5457e17084)
REM AIRSS Version 0.9.1 bugfix July 2018 build 013d7b7c2542+ Fri, 06 Jul 2018 19:26:36 +0100
REM compiler GCC version 9.2.1 20190827 (Red Hat 9.2.1-1)
REM options -cpp -mtune=generic -march=x86-64 -g -O0 -fpre-include=/usr/include/finclude/math-vector-fortran.h
REM seed 35757453 -904218044 474406436 1659429462 -485044160 -1703840700 1588453866 1202134662 -1834218897 -479237653 -980362684 -2065289075 -1862936992 1870713835 55297012 -1382166913 453591414 2049970036 -1643134205 53950600 679833403 146510078 -890331921 -2122416964 1570290170 -617169090 1910479378 1942291351 -963540966 -1594746857 -1567588912 -1996173879 1957876031
REM
CELL 1.54180   50.00000   50.00000   50.00000   90.00000   90.00000   90.00000
LATT -1
SFAC C  
C      1  0.4384060000000  0.5167890000000  0.4525010000000 1.0
C      1  0.5729620000000  0.5988330000000  0.5217690000000 1.0
C      1  0.5262840000000  0.5672140000000  0.4061900000000 1.0
C      1  0.4885910000000  0.4033290000000  0.4645350000000 1.0
C      1  0.5780570000000  0.5343890000000  0.5657290000000 1.0
C      1  0.4768420000000  0.5759600000000  0.4861390000000 1.0
C      1  0.5632910000000  0.4415630000000  0.4139520000000 1.0
C      1  0.5849720000000  0.4686400000000  0.5263180000000 1.0
C      1  0.5824910000000  0.5777090000000  0.5031150000000 1.0
C      1  0.5291400000000  0.4075710000000  0.5295770000000 1.0
C      1  0.6059120000000  0.5412050000000  0.4706160000000 1.0
C      1  0.4423150000000  0.5471310000000  0.4542270000000 1.0
C      1  0.4883800000000  0.5884900000000  0.4629060000000 1.0
C      1  0.5816820000000  0.4518640000000  0.4322660000000 1.0
C      1  0.4422240000000  0.4215300000000  0.4548740000000 1.0
C      1  0.4364340000000  0.4952770000000  0.5552600000000 1.0
C      1  0.5107820000000  0.5736320000000  0.4306490000000 1.0
C      1  0.3869760000000  0.4993880000000  0.5126040000000 1.0
C      1  0.3852600000000  0.5109450000000  0.4822250000000 1.0
C      1  0.5527300000000  0.4793640000000  0.4643270000000 1.0
C      1  0.4808420000000  0.4382380000000  0.4898310000000 1.0
C      1  0.5167050000000  0.4418170000000  0.3976520000000 1.0
C      1  0.4883590000000  0.6169770000000  0.4577800000000 1.0
C      1  0.4393750000000  0.4457690000000  0.4381140000000 1.0
C      1  0.4335090000000  0.4285990000000  0.5653910000000 1.0
C      1  0.4149200000000  0.4628430000000  0.4385340000000 1.0
C      1  0.5506110000000  0.5298020000000  0.4542580000000 1.0
C      1  0.5919110000000  0.4959040000000  0.5362100000000 1.0
C      1  0.4506190000000  0.4721400000000  0.5036540000000 1.0
C      1  0.5317680000000  0.5415820000000  0.5245810000000 1.0
C      1  0.4739220000000  0.5639480000000  0.6210510000000 1.0
C      1  0.4760550000000  0.5385290000000  0.6354390000000 1.0
C      1  0.5521220000000  0.5542480000000  0.4117240000000 1.0
C      1  0.4624030000000  0.4172800000000  0.4780240000000 1.0
C      1  0.5248790000000  0.5176040000000  0.4452980000000 1.0
C      1  0.5310730000000  0.4349490000000  0.5388580000000 1.0
C      1  0.5410030000000  0.4589280000000  0.4070740000000 1.0
C      1  0.5676530000000  0.4570340000000  0.5643630000000 1.0
C      1  0.4552790000000  0.5400690000000  0.4832900000000 1.0
C      1  0.4273880000000  0.5667340000000  0.5294460000000 1.0
C      1  0.5679910000000  0.5055020000000  0.4003410000000 1.0
C      1  0.4167010000000  0.4950270000000  0.4412980000000 1.0
C      1  0.5564980000000  0.5346800000000  0.5076380000000 1.0
C      1  0.5174020000000  0.4738660000000  0.5908680000000 1.0
C      1  0.5745410000000  0.5150450000000  0.4608920000000 1.0
C      1  0.5879580000000  0.4395200000000  0.4729650000000 1.0
C      1  0.4828700000000  0.5308900000000  0.5902860000000 1.0
C      1  0.5875200000000  0.4672020000000  0.4844390000000 1.0
C      1  0.4554820000000  0.3949890000000  0.5285460000000 1.0
C      1  0.4349990000000  0.5406790000000  0.5780680000000 1.0
C      1  0.5315920000000  0.6072410000000  0.4921450000000 1.0
C      1  0.5746590000000  0.4759990000000  0.4454360000000 1.0
C      1  0.5821990000000  0.5556480000000  0.5454410000000 1.0
C      1  0.3948740000000  0.5305870000000  0.5180360000000 1.0
C      1  0.5757510000000  0.5850410000000  0.5489570000000 1.0
C      1  0.4568380000000  0.4396380000000  0.6083980000000 1.0
C      1  0.5609260000000  0.4789330000000  0.4927150000000 1.0
C      1  0.4545160000000  0.4228720000000  0.5841720000000 1.0
C      1  0.4617980000000  0.5529570000000  0.4315400000000 1.0
C      1  0.4950440000000  0.4648250000000  0.3949320000000 1.0
C      1  0.4950830000000  0.4884450000000  0.5744710000000 1.0
C      1  0.5921070000000  0.5003510000000  0.4160050000000 1.0
C      1  0.5361610000000  0.4286890000000  0.4674170000000 1.0
C      1  0.5062650000000  0.4479200000000  0.6029720000000 1.0
C      1  0.5130510000000  0.5629970000000  0.5173460000000 1.0
C      1  0.4600120000000  0.5028870000000  0.4643890000000 1.0
C      1  0.4453070000000  0.4119550000000  0.5056160000000 1.0
C      1  0.4450620000000  0.4890120000000  0.4217910000000 1.0
C      1  0.4423160000000  0.4953570000000  0.5846970000000 1.0
C      1  0.5429550000000  0.4607490000000  0.5079670000000 1.0
C      1  0.5865480000000  0.5614260000000  0.4551060000000 1.0
C      1  0.4983970000000  0.5186430000000  0.5663100000000 1.0
C      1  0.5497660000000  0.4831750000000  0.3907390000000 1.0
C      1  0.5506530000000  0.5033460000000  0.5386520000000 1.0
C      1  0.4756380000000  0.5623210000000  0.5909690000000 1.0
C      1  0.4796190000000  0.4130150000000  0.5727620000000 1.0
C      1  0.5798240000000  0.5508550000000  0.5152510000000 1.0
C      1  0.5437700000000  0.4850510000000  0.5960940000000 1.0
C      1  0.4791070000000  0.4864540000000  0.6025750000000 1.0
C      1  0.5238460000000  0.5178880000000  0.5432880000000 1.0
C      1  0.6049660000000  0.5164900000000  0.5184400000000 1.0
C      1  0.3900830000000  0.5440630000000  0.4897680000000 1.0
C      1  0.4880250000000  0.4583690000000  0.4236310000000 1.0
C      1  0.5729790000000  0.5057480000000  0.5587470000000 1.0
C      1  0.4903810000000  0.5544270000000  0.5012920000000 1.0
C      1  0.5178680000000  0.4647860000000  0.4327290000000 1.0
C      1  0.5644710000000  0.4253460000000  0.4598890000000 1.0
C      1  0.4131410000000  0.4537410000000  0.4991300000000 1.0
C      1  0.4826730000000  0.4639420000000  0.4777930000000 1.0
C      1  0.5400620000000  0.6021210000000  0.4646200000000 1.0
C      1  0.4353000000000  0.4601420000000  0.4773430000000 1.0
C      1  0.4273070000000  0.5244650000000  0.5539080000000 1.0
C      1  0.5029900000000  0.4301850000000  0.5788110000000 1.0
C      1  0.5119570000000  0.4182930000000  0.4178400000000 1.0
C      1  0.4819440000000  0.5207840000000  0.4751010000000 1.0
C      1  0.4224540000000  0.5373680000000  0.5281540000000 1.0
C      1  0.4188280000000  0.4259210000000  0.5086050000000 1.0
C      1  0.5660570000000  0.4828550000000  0.5776660000000 1.0
C      1  0.5056750000000  0.4927320000000  0.5289910000000 1.0
C      1  0.5300620000000  0.4365560000000  0.4950290000000 1.0
C      1  0.5627060000000  0.5336260000000  0.3933120000000 1.0
C      1  0.4608810000000  0.4741100000000  0.4630360000000 1.0
C      1  0.4576080000000  0.5899300000000  0.5029220000000 1.0
C      1  0.4840130000000  0.5135350000000  0.6191640000000 1.0
C      1  0.4042340000000  0.4755680000000  0.5195570000000 1.0
C      1  0.4478850000000  0.5774540000000  0.5480820000000 1.0
C      1  0.4590640000000  0.4552590000000  0.5287980000000 1.0
C      1  0.4383400000000  0.5246400000000  0.5040070000000 1.0
C      1  0.5118190000000  0.4182360000000  0.4496550000000 1.0
C      1  0.4821480000000  0.5175560000000  0.5372710000000 1.0
C      1  0.4562510000000  0.5090800000000  0.4029590000000 1.0
C      1  0.5254240000000  0.5034720000000  0.4182810000000 1.0
C      1  0.4905990000000  0.5537510000000  0.4394080000000 1.0
C      1  0.5581410000000  0.5561460000000  0.4437670000000 1.0
C      1  0.4114130000000  0.5649060000000  0.4825330000000 1.0
C      1  0.4513940000000  0.5216830000000  0.5940030000000 1.0
C      1  0.4620800000000  0.4658770000000  0.4344380000000 1.0
C      1  0.4648200000000  0.4940430000000  0.5436390000000 1.0
C      1  0.4702380000000  0.5905430000000  0.5323700000000 1.0
C      1  0.5495760000000  0.6142510000000  0.5141080000000 1.0
C      1  0.5091380000000  0.4450920000000  0.5550250000000 1.0
C      1  0.4870940000000  0.4678340000000  0.5460520000000 1.0
C      1  0.5189950000000  0.4802860000000  0.5056910000000 1.0
C      1  0.4993740000000  0.5827130000000  0.5359690000000 1.0
C      1  0.5061530000000  0.3903430000000  0.5341930000000 1.0
C      1  0.5581850000000  0.4520750000000  0.5352280000000 1.0
C      1  0.5602860000000  0.5044330000000  0.5099570000000 1.0
C      1  0.4093610000000  0.4954710000000  0.4739420000000 1.0
C      1  0.5351280000000  0.5772520000000  0.4497860000000 1.0
C      1  0.5251280000000  0.4773810000000  0.4573830000000 1.0
C      1  0.4349840000000  0.4492280000000  0.5453090000000 1.0
C      1  0.4184840000000  0.4733790000000  0.5453890000000 1.0
C      1  0.4551220000000  0.5386180000000  0.4064640000000 1.0
C      1  0.4501810000000  0.5655670000000  0.5746460000000 1.0
C      1  0.6059400000000  0.5151660000000  0.4887710000000 1.0
C      1  0.4315180000000  0.4976170000000  0.4958600000000 1.0
C      1  0.5966050000000  0.5116180000000  0.4423000000000 1.0
C      1  0.4794600000000  0.4578190000000  0.6134630000000 1.0
C      1  0.5001510000000  0.5312050000000  0.4544480000000 1.0
C      1  0.5037330000000  0.4943280000000  0.3990900000000 1.0
C      1  0.5038420000000  0.4295610000000  0.5042730000000 1.0
C      1  0.4802440000000  0.3993930000000  0.5450180000000 1.0
C      1  0.6069010000000  0.4880250000000  0.4772300000000 1.0
C      1  0.5066800000000  0.4787080000000  0.4796060000000 1.0
C      1  0.4281290000000  0.5795990000000  0.5031570000000 1.0
C      1  0.4735560000000  0.5397990000000  0.5210740000000 1.0
END
