TITL C-862506-1665-1014 7347545.24428587 125000 -686.947154554153 0 0 132 (T23) n - 1
REM
REM in /home/nfs/bkarasulu/CARBON/AIRSS/Generating-Clusters/TERSOFF/Higher-Symm/FIRE-HFTN
REM
REM
REM
REM
REM
REM ./C.cell (b20cbc046b6831c77cfcea5457e17084)
REM AIRSS Version 0.9.1 bugfix July 2018 build 013d7b7c2542+ Fri, 06 Jul 2018 19:26:36 +0100
REM compiler GCC version 9.2.1 20190827 (Red Hat 9.2.1-1)
REM options -cpp -mtune=generic -march=x86-64 -g -O0 -fpre-include=/usr/include/finclude/math-vector-fortran.h
REM seed 2103792695 1951249461 46543195 277175036 -1257872014 -1033100255 -843513797 -1189807058 1785293056 -207725179 434966631 -1064405883 374087423 744010951 -1432254826 -1230229371 -1104423743 -1024373008 -226683711 -458486445 818212677 1982310175 1179480862 1287862332 1191283194 806583413 -1140152040 738153076 633639052 1565093880 1799937637 -291163710 526278372
REM
CELL 1.54180   50.00000   50.00000   50.00000   90.00000   90.00000   90.00000
LATT -1
SFAC C  
C      1  0.4918010000000  0.5490940000000  0.4268540000000 1.0
C      1  0.4268540000000  0.4918010000000  0.5490940000000 1.0
C      1  0.5490940000000  0.4268540000000  0.4918010000000 1.0
C      1  0.5081990000000  0.4509060000000  0.4268540000000 1.0
C      1  0.5081990000000  0.5490940000000  0.5731460000000 1.0
C      1  0.4918010000000  0.4509060000000  0.5731460000000 1.0
C      1  0.5731460000000  0.5081990000000  0.5490940000000 1.0
C      1  0.5731460000000  0.4918010000000  0.4509060000000 1.0
C      1  0.4268540000000  0.5081990000000  0.4509060000000 1.0
C      1  0.4509060000000  0.5731460000000  0.4918010000000 1.0
C      1  0.4509060000000  0.4268540000000  0.5081990000000 1.0
C      1  0.5490940000000  0.5731460000000  0.5081990000000 1.0
C      1  0.3887150000000  0.4807870000000  0.4336180000000 1.0
C      1  0.4336180000000  0.3887150000000  0.4807870000000 1.0
C      1  0.4807870000000  0.4336180000000  0.3887150000000 1.0
C      1  0.6112850000000  0.5192130000000  0.4336180000000 1.0
C      1  0.6112850000000  0.4807870000000  0.5663820000000 1.0
C      1  0.3887150000000  0.5192130000000  0.5663820000000 1.0
C      1  0.5663820000000  0.6112850000000  0.4807870000000 1.0
C      1  0.5663820000000  0.3887150000000  0.5192130000000 1.0
C      1  0.4336180000000  0.6112850000000  0.5192130000000 1.0
C      1  0.5192130000000  0.5663820000000  0.3887150000000 1.0
C      1  0.5192130000000  0.4336180000000  0.6112850000000 1.0
C      1  0.4807870000000  0.5663820000000  0.6112850000000 1.0
C      1  0.4353230000000  0.4626280000000  0.4724930000000 1.0
C      1  0.4724930000000  0.4353230000000  0.4626280000000 1.0
C      1  0.4626280000000  0.4724930000000  0.4353230000000 1.0
C      1  0.5646770000000  0.5373720000000  0.4724930000000 1.0
C      1  0.5646770000000  0.4626280000000  0.5275070000000 1.0
C      1  0.4353230000000  0.5373720000000  0.5275070000000 1.0
C      1  0.5275070000000  0.5646770000000  0.4626280000000 1.0
C      1  0.5275070000000  0.4353230000000  0.5373720000000 1.0
C      1  0.4724930000000  0.5646770000000  0.5373720000000 1.0
C      1  0.5373720000000  0.5275070000000  0.4353230000000 1.0
C      1  0.5373720000000  0.4724930000000  0.5646770000000 1.0
C      1  0.4626280000000  0.5275070000000  0.5646770000000 1.0
C      1  0.4950090000000  0.6063100000000  0.5284230000000 1.0
C      1  0.5284220000000  0.4950100000000  0.6063100000000 1.0
C      1  0.6063100000000  0.5284220000000  0.4950090000000 1.0
C      1  0.5049910000000  0.3936900000000  0.5284220000000 1.0
C      1  0.5049910000000  0.6063100000000  0.4715780000000 1.0
C      1  0.4950090000000  0.3936900000000  0.4715780000000 1.0
C      1  0.4715780000000  0.5049910000000  0.6063100000000 1.0
C      1  0.4715780000000  0.4950090000000  0.3936900000000 1.0
C      1  0.5284220000000  0.5049910000000  0.3936900000000 1.0
C      1  0.3936900000000  0.4715780000000  0.4950090000000 1.0
C      1  0.3936900000000  0.5284220000000  0.5049910000000 1.0
C      1  0.6063100000000  0.4715780000000  0.5049910000000 1.0
C      1  0.5649910000000  0.4637890000000  0.4441820000000 1.0
C      1  0.4441820000000  0.5649910000000  0.4637890000000 1.0
C      1  0.4637890000000  0.4441820000000  0.5649910000000 1.0
C      1  0.4350090000000  0.5362110000000  0.4441820000000 1.0
C      1  0.4350090000000  0.4637890000000  0.5558180000000 1.0
C      1  0.5649910000000  0.5362110000000  0.5558180000000 1.0
C      1  0.5558180000000  0.4350090000000  0.4637890000000 1.0
C      1  0.5558180000000  0.5649910000000  0.5362110000000 1.0
C      1  0.4441820000000  0.4350090000000  0.5362110000000 1.0
C      1  0.5362110000000  0.5558180000000  0.5649910000000 1.0
C      1  0.5362110000000  0.4441820000000  0.4350090000000 1.0
C      1  0.4637890000000  0.5558180000000  0.4350080000000 1.0
C      1  0.5431580000000  0.4460990000000  0.5133140000000 1.0
C      1  0.5133140000000  0.5431580000000  0.4460990000000 1.0
C      1  0.4460990000000  0.5133140000000  0.5431580000000 1.0
C      1  0.4568420000000  0.5539010000000  0.5133140000000 1.0
C      1  0.4568420000000  0.4460990000000  0.4866860000000 1.0
C      1  0.5431580000000  0.5539010000000  0.4866860000000 1.0
C      1  0.4866860000000  0.4568420000000  0.4460990000000 1.0
C      1  0.4866860000000  0.5431580000000  0.5539010000000 1.0
C      1  0.5133140000000  0.4568420000000  0.5539010000000 1.0
C      1  0.5539010000000  0.4866860000000  0.5431580000000 1.0
C      1  0.5539010000000  0.5133140000000  0.4568420000000 1.0
C      1  0.4460990000000  0.4866860000000  0.4568420000000 1.0
C      1  0.5472140000000  0.6016900000000  0.5003890000000 1.0
C      1  0.5003890000000  0.5472140000000  0.6016900000000 1.0
C      1  0.6016900000000  0.5003890000000  0.5472140000000 1.0
C      1  0.4527860000000  0.3983100000000  0.5003890000000 1.0
C      1  0.4527860000000  0.6016900000000  0.4996110000000 1.0
C      1  0.5472140000000  0.3983100000000  0.4996110000000 1.0
C      1  0.4996110000000  0.4527860000000  0.6016900000000 1.0
C      1  0.4996110000000  0.5472140000000  0.3983100000000 1.0
C      1  0.5003890000000  0.4527860000000  0.3983100000000 1.0
C      1  0.3983100000000  0.4996110000000  0.5472140000000 1.0
C      1  0.3983100000000  0.5003890000000  0.4527860000000 1.0
C      1  0.6016900000000  0.4996110000000  0.4527860000000 1.0
C      1  0.4831520000000  0.6226010000000  0.4618910000000 1.0
C      1  0.4618910000000  0.4831520000000  0.6226010000000 1.0
C      1  0.6226010000000  0.4618910000000  0.4831520000000 1.0
C      1  0.5168480000000  0.3773990000000  0.4618910000000 1.0
C      1  0.5168480000000  0.6226010000000  0.5381100000000 1.0
C      1  0.4831520000000  0.3773990000000  0.5381090000000 1.0
C      1  0.5381100000000  0.5168480000000  0.6226010000000 1.0
C      1  0.5381090000000  0.4831520000000  0.3773990000000 1.0
C      1  0.4618910000000  0.5168480000000  0.3773990000000 1.0
C      1  0.3773990000000  0.5381090000000  0.4831520000000 1.0
C      1  0.3773990000000  0.4618910000000  0.5168480000000 1.0
C      1  0.6226010000000  0.5381090000000  0.5168480000000 1.0
C      1  0.3964060000000  0.5467840000000  0.5637310000000 1.0
C      1  0.5637310000000  0.3964060000000  0.5467840000000 1.0
C      1  0.5467840000000  0.5637310000000  0.3964060000000 1.0
C      1  0.6035940000000  0.4532160000000  0.5637310000000 1.0
C      1  0.6035940000000  0.5467840000000  0.4362690000000 1.0
C      1  0.3964060000000  0.4532160000000  0.4362690000000 1.0
C      1  0.4362690000000  0.6035940000000  0.5467840000000 1.0
C      1  0.4362690000000  0.3964060000000  0.4532160000000 1.0
C      1  0.5637310000000  0.6035940000000  0.4532160000000 1.0
C      1  0.4532160000000  0.4362690000000  0.3964060000000 1.0
C      1  0.4532160000000  0.5637310000000  0.6035940000000 1.0
C      1  0.5467840000000  0.4362690000000  0.6035940000000 1.0
C      1  0.5544140000000  0.4485730000000  0.5776450000000 1.0
C      1  0.5776450000000  0.5544140000000  0.4485730000000 1.0
C      1  0.4485730000000  0.5776450000000  0.5544140000000 1.0
C      1  0.4455860000000  0.5514270000000  0.5776450000000 1.0
C      1  0.4455860000000  0.4485730000000  0.4223550000000 1.0
C      1  0.5544140000000  0.5514270000000  0.4223550000000 1.0
C      1  0.4223550000000  0.4455860000000  0.4485730000000 1.0
C      1  0.4223550000000  0.5544140000000  0.5514270000000 1.0
C      1  0.5776450000000  0.4455860000000  0.5514270000000 1.0
C      1  0.5514270000000  0.4223550000000  0.5544140000000 1.0
C      1  0.5514270000000  0.5776450000000  0.4455860000000 1.0
C      1  0.4485730000000  0.4223550000000  0.4455860000000 1.0
C      1  0.4794830000000  0.3881110000000  0.4955260000000 1.0
C      1  0.4955260000000  0.4794830000000  0.3881110000000 1.0
C      1  0.3881110000000  0.4955260000000  0.4794830000000 1.0
C      1  0.5205170000000  0.6118890000000  0.4955250000000 1.0
C      1  0.5205170000000  0.3881110000000  0.5044740000000 1.0
C      1  0.4794830000000  0.6118890000000  0.5044750000000 1.0
C      1  0.5044740000000  0.5205170000000  0.3881110000000 1.0
C      1  0.5044740000000  0.4794840000000  0.6118890000000 1.0
C      1  0.4955260000000  0.5205160000000  0.6118890000000 1.0
C      1  0.6118890000000  0.5044740000000  0.4794830000000 1.0
C      1  0.6118890000000  0.4955260000000  0.5205170000000 1.0
C      1  0.3881110000000  0.5044740000000  0.5205170000000 1.0
END
