TITL C-862133-5440-1482 0.300773607250138 125000 -842.813599846789 0 0 149 (C1) n - 1
REM
REM in /home/nfs/bkarasulu/CARBON/AIRSS/Generating-Clusters/TERSOFF/Higher-Symm/FIRE-HFTN
REM
REM
REM
REM
REM
REM ./C.cell (b20cbc046b6831c77cfcea5457e17084)
REM AIRSS Version 0.9.1 bugfix July 2018 build 013d7b7c2542+ Fri, 06 Jul 2018 19:26:36 +0100
REM compiler GCC version 9.2.1 20190827 (Red Hat 9.2.1-1)
REM options -cpp -mtune=generic -march=x86-64 -g -O0 -fpre-include=/usr/include/finclude/math-vector-fortran.h
REM seed -1074752051 1268906522 279656716 972389532 373114942 1008045313 155761878 1934797575 -1165404858 1041723771 -472637227 -1868126233 179473161 -513254512 724887796 -775451935 1620285224 -1485206620 -15976066 1373388784 -1364788303 1679545110 2011884386 -550443924 -296599679 -2081669680 238533667 177186097 2118785089 -1243768175 -1274025093 -447055933 271301112
REM
CELL 1.54180   50.00000   50.00000   50.00000   90.00000   90.00000   90.00000
LATT -1
SFAC C  
C      1  0.4290210000000  0.4479150000000  0.4959830000000 1.0
C      1  0.4315420000000  0.5510810000000  0.5044720000000 1.0
C      1  0.5690580000000  0.4495660000000  0.4951520000000 1.0
C      1  0.5704580000000  0.5521380000000  0.5040720000000 1.0
C      1  0.6058780000000  0.5384070000000  0.5593440000000 1.0
C      1  0.6058630000000  0.4627560000000  0.4405410000000 1.0
C      1  0.3925590000000  0.5388350000000  0.5580130000000 1.0
C      1  0.3929860000000  0.4608740000000  0.4409510000000 1.0
C      1  0.4695380000000  0.4982610000000  0.6112640000000 1.0
C      1  0.4697720000000  0.5021890000000  0.3883270000000 1.0
C      1  0.5302180000000  0.4977790000000  0.6108830000000 1.0
C      1  0.5307780000000  0.5032310000000  0.3880600000000 1.0
C      1  0.4473410000000  0.4548700000000  0.4465540000000 1.0
C      1  0.4475290000000  0.5453820000000  0.5550100000000 1.0
C      1  0.5516270000000  0.4556660000000  0.4452580000000 1.0
C      1  0.5519830000000  0.5455170000000  0.5538100000000 1.0
C      1  0.5381510000000  0.5224380000000  0.5050130000000 1.0
C      1  0.5364450000000  0.4811900000000  0.4941500000000 1.0
C      1  0.4647080000000  0.5190640000000  0.5080380000000 1.0
C      1  0.4609140000000  0.4797540000000  0.4938950000000 1.0
C      1  0.5797460000000  0.4359240000000  0.5408420000000 1.0
C      1  0.5807660000000  0.5651220000000  0.4581010000000 1.0
C      1  0.4209090000000  0.4355350000000  0.5421650000000 1.0
C      1  0.4218680000000  0.5642370000000  0.4584130000000 1.0
C      1  0.4363400000000  0.4853850000000  0.4787460000000 1.0
C      1  0.4386110000000  0.5136150000000  0.5218370000000 1.0
C      1  0.5616140000000  0.4876140000000  0.4792760000000 1.0
C      1  0.5625760000000  0.5141900000000  0.5199510000000 1.0
C      1  0.5690400000000  0.5774050000000  0.4855760000000 1.0
C      1  0.5682940000000  0.4241140000000  0.5133870000000 1.0
C      1  0.4325020000000  0.5762850000000  0.4859540000000 1.0
C      1  0.4314280000000  0.4226860000000  0.5144760000000 1.0
C      1  0.6024200000000  0.4772160000000  0.5190260000000 1.0
C      1  0.6031130000000  0.5238700000000  0.4805080000000 1.0
C      1  0.3974540000000  0.4765460000000  0.5197090000000 1.0
C      1  0.3984030000000  0.5231650000000  0.4802820000000 1.0
C      1  0.4050350000000  0.5123170000000  0.5540520000000 1.0
C      1  0.4048390000000  0.4874380000000  0.4460000000000 1.0
C      1  0.5937210000000  0.5119960000000  0.5538500000000 1.0
C      1  0.5935410000000  0.4892060000000  0.4456530000000 1.0
C      1  0.5375900000000  0.4703790000000  0.5212290000000 1.0
C      1  0.5394390000000  0.5317890000000  0.4774650000000 1.0
C      1  0.4590220000000  0.4689790000000  0.5210740000000 1.0
C      1  0.4645870000000  0.5297880000000  0.4803060000000 1.0
C      1  0.5304580000000  0.5978600000000  0.5247210000000 1.0
C      1  0.5297350000000  0.4037890000000  0.4748580000000 1.0
C      1  0.4705440000000  0.5968640000000  0.5245830000000 1.0
C      1  0.4697570000000  0.4025850000000  0.4750550000000 1.0
C      1  0.5587620000000  0.4885990000000  0.4466850000000 1.0
C      1  0.5586690000000  0.5123830000000  0.5525580000000 1.0
C      1  0.4397930000000  0.4876860000000  0.4469590000000 1.0
C      1  0.4391930000000  0.5126090000000  0.5541950000000 1.0
C      1  0.4326480000000  0.5047690000000  0.5847270000000 1.0
C      1  0.4334290000000  0.4953830000000  0.4163440000000 1.0
C      1  0.5646970000000  0.5052930000000  0.5833850000000 1.0
C      1  0.5647320000000  0.4953690000000  0.4157870000000 1.0
C      1  0.4686830000000  0.5672700000000  0.4478870000000 1.0
C      1  0.4674320000000  0.4321790000000  0.5531440000000 1.0
C      1  0.5351600000000  0.5697600000000  0.4455200000000 1.0
C      1  0.5336170000000  0.4316130000000  0.5525160000000 1.0
C      1  0.5685110000000  0.5625640000000  0.5343880000000 1.0
C      1  0.5678510000000  0.4388900000000  0.4649360000000 1.0
C      1  0.4317960000000  0.5621710000000  0.5347460000000 1.0
C      1  0.4310760000000  0.4374850000000  0.4656310000000 1.0
C      1  0.5139860000000  0.4275770000000  0.5056750000000 1.0
C      1  0.5166650000000  0.5748130000000  0.4924330000000 1.0
C      1  0.4846750000000  0.4273400000000  0.5055250000000 1.0
C      1  0.4877200000000  0.5730660000000  0.4945400000000 1.0
C      1  0.5570670000000  0.4120590000000  0.4809200000000 1.0
C      1  0.5577250000000  0.5894750000000  0.5180900000000 1.0
C      1  0.4425460000000  0.4109300000000  0.4817810000000 1.0
C      1  0.4432000000000  0.5888140000000  0.5183710000000 1.0
C      1  0.4419300000000  0.5633730000000  0.4359380000000 1.0
C      1  0.4407080000000  0.4361840000000  0.5653400000000 1.0
C      1  0.5618850000000  0.5647780000000  0.4342280000000 1.0
C      1  0.5603460000000  0.4364440000000  0.5639420000000 1.0
C      1  0.5183120000000  0.5238560000000  0.4316590000000 1.0
C      1  0.5169480000000  0.4770030000000  0.5675580000000 1.0
C      1  0.4828460000000  0.5216480000000  0.4323880000000 1.0
C      1  0.4809740000000  0.4783980000000  0.5674810000000 1.0
C      1  0.4226130000000  0.4788390000000  0.5921940000000 1.0
C      1  0.4234360000000  0.5212610000000  0.4087570000000 1.0
C      1  0.5762300000000  0.4801150000000  0.5911640000000 1.0
C      1  0.5768510000000  0.5201980000000  0.4077450000000 1.0
C      1  0.5147940000000  0.5226100000000  0.6041980000000 1.0
C      1  0.5154520000000  0.4784500000000  0.3949630000000 1.0
C      1  0.4851020000000  0.5228280000000  0.6043650000000 1.0
C      1  0.4858670000000  0.4775140000000  0.3935210000000 1.0
C      1  0.5349880000000  0.4881060000000  0.5454100000000 1.0
C      1  0.5360890000000  0.5132470000000  0.4537870000000 1.0
C      1  0.4614520000000  0.4876960000000  0.5461090000000 1.0
C      1  0.4648780000000  0.5117660000000  0.4548220000000 1.0
C      1  0.5602150000000  0.5442990000000  0.4100170000000 1.0
C      1  0.5590120000000  0.4565380000000  0.5884930000000 1.0
C      1  0.4421910000000  0.5435210000000  0.4113710000000 1.0
C      1  0.4412800000000  0.4564740000000  0.5896320000000 1.0
C      1  0.4861640000000  0.4484390000000  0.5670980000000 1.0
C      1  0.4871420000000  0.5519570000000  0.4326640000000 1.0
C      1  0.5147720000000  0.4437980000000  0.5701750000000 1.0
C      1  0.5157610000000  0.5571850000000  0.4286340000000 1.0
C      1  0.4087160000000  0.5277600000000  0.5074590000000 1.0
C      1  0.4059930000000  0.4711680000000  0.4918850000000 1.0
C      1  0.5932790000000  0.5287100000000  0.5079040000000 1.0
C      1  0.5919630000000  0.4727850000000  0.4918750000000 1.0
C      1  0.5324540000000  0.4742740000000  0.5930320000000 1.0
C      1  0.5334840000000  0.5265920000000  0.4059640000000 1.0
C      1  0.4669510000000  0.4750000000000  0.5933520000000 1.0
C      1  0.4677310000000  0.5248820000000  0.4070900000000 1.0
C      1  0.4001400000000  0.5445210000000  0.4600520000000 1.0
C      1  0.3991230000000  0.4553080000000  0.5402060000000 1.0
C      1  0.6024070000000  0.5454740000000  0.4605780000000 1.0
C      1  0.6014010000000  0.4555510000000  0.5388290000000 1.0
C      1  0.4854180000000  0.5842060000000  0.5472240000000 1.0
C      1  0.4841720000000  0.4144580000000  0.4515040000000 1.0
C      1  0.5158340000000  0.5854770000000  0.5477520000000 1.0
C      1  0.5146260000000  0.4161710000000  0.4521250000000 1.0
C      1  0.6027550000000  0.5046140000000  0.5275130000000 1.0
C      1  0.6020500000000  0.4964340000000  0.4721600000000 1.0
C      1  0.3980380000000  0.5042850000000  0.5273580000000 1.0
C      1  0.3961390000000  0.4956380000000  0.4723030000000 1.0
C      1  0.5996560000000  0.5530490000000  0.5341330000000 1.0
C      1  0.5989390000000  0.4484440000000  0.4657760000000 1.0
C      1  0.4007480000000  0.5525180000000  0.5328720000000 1.0
C      1  0.3997050000000  0.4463930000000  0.4660620000000 1.0
C      1  0.4420770000000  0.5491790000000  0.5870390000000 1.0
C      1  0.4447430000000  0.4518100000000  0.4152920000000 1.0
C      1  0.5579200000000  0.5478660000000  0.5857750000000 1.0
C      1  0.5582860000000  0.4527860000000  0.4133740000000 1.0
C      1  0.4865270000000  0.4914170000000  0.4844470000000 1.0
C      1  0.4909730000000  0.5114960000000  0.5210460000000 1.0
C      1  0.5113040000000  0.4770820000000  0.4793600000000 1.0
C      1  0.5137560000000  0.5289070000000  0.5195650000000 1.0
C      1  0.5173450000000  0.4470100000000  0.4404520000000 1.0
C      1  0.5182380000000  0.5544600000000  0.5592880000000 1.0
C      1  0.4811090000000  0.4450750000000  0.4387850000000 1.0
C      1  0.4819750000000  0.5535050000000  0.5588560000000 1.0
C      1  0.5147430000000  0.6143080000000  0.5065900000000 1.0
C      1  0.5145270000000  0.3873710000000  0.4934190000000 1.0
C      1  0.4858800000000  0.6136840000000  0.5064290000000 1.0
C      1  0.4857040000000  0.3869010000000  0.4936150000000 1.0
C      1  0.5305040000000  0.4417870000000  0.5251700000000 1.0
C      1  0.5327980000000  0.5602950000000  0.4730360000000 1.0
C      1  0.4677690000000  0.4408310000000  0.5251430000000 1.0
C      1  0.4706070000000  0.5586090000000  0.4759810000000 1.0
C      1  0.5279960000000  0.4565080000000  0.4105520000000 1.0
C      1  0.5276260000000  0.5449990000000  0.5895010000000 1.0
C      1  0.4738170000000  0.4537820000000  0.4066790000000 1.0
C      1  0.4724590000000  0.5449780000000  0.5891220000000 1.0
C      1  0.4980490000000  0.4836400000000  0.5259290000000 1.0
END
