TITL C-862502-1143-145 1.55383216239842 125000 -771.814270610839 0 0 135 (C1) n - 1
REM
REM in /home/nfs/bkarasulu/CARBON/AIRSS/Generating-Clusters/TERSOFF/Higher-Symm/FIRE-HFTN
REM
REM
REM
REM
REM
REM ./C.cell (b20cbc046b6831c77cfcea5457e17084)
REM AIRSS Version 0.9.1 bugfix July 2018 build 013d7b7c2542+ Fri, 06 Jul 2018 19:26:36 +0100
REM compiler GCC version 9.2.1 20190827 (Red Hat 9.2.1-1)
REM options -cpp -mtune=generic -march=x86-64 -g -O0 -fpre-include=/usr/include/finclude/math-vector-fortran.h
REM seed -714710359 1228599660 -1009540073 -2070226971 -5414289 1436218753 -1259023880 -923991598 -1336884383 -279169907 -1266871924 -1792713151 746252558 1013333979 1479935125 -1282913810 -1909585228 -1894195160 1393487364 1212291823 489365393 -2021576254 139371708 1434300669 -26301854 -984291090 1753171253 375868989 -1715708223 1678407839 43182416 1501764259 2029184203
REM
CELL 1.54180   50.00000   50.00000   50.00000   90.00000   90.00000   90.00000
LATT -1
SFAC C  
C      1  0.4078660000000  0.4835270000000  0.4666870000000 1.0
C      1  0.5924260000000  0.5160120000000  0.4671500000000 1.0
C      1  0.4055840000000  0.4912770000000  0.5328630000000 1.0
C      1  0.5969070000000  0.5075490000000  0.5330980000000 1.0
C      1  0.5313340000000  0.4145210000000  0.5801340000000 1.0
C      1  0.4641820000000  0.5869440000000  0.5830870000000 1.0
C      1  0.5406100000000  0.4155550000000  0.4199120000000 1.0
C      1  0.4632670000000  0.5847240000000  0.4215420000000 1.0
C      1  0.4712870000000  0.4786110000000  0.6035140000000 1.0
C      1  0.5322580000000  0.5213450000000  0.6055420000000 1.0
C      1  0.4701400000000  0.4767080000000  0.3934150000000 1.0
C      1  0.5295260000000  0.5234810000000  0.3947510000000 1.0
C      1  0.5386270000000  0.5310530000000  0.5556530000000 1.0
C      1  0.4636200000000  0.4692900000000  0.5540990000000 1.0
C      1  0.5379780000000  0.5404860000000  0.4423590000000 1.0
C      1  0.4619180000000  0.4580730000000  0.4407710000000 1.0
C      1  0.4621390000000  0.5415410000000  0.5286670000000 1.0
C      1  0.5349250000000  0.4659350000000  0.5317060000000 1.0
C      1  0.4652230000000  0.5357400000000  0.4687330000000 1.0
C      1  0.5339670000000  0.4651420000000  0.4704900000000 1.0
C      1  0.5284160000000  0.5376240000000  0.5822090000000 1.0
C      1  0.4766000000000  0.4642670000000  0.5794290000000 1.0
C      1  0.5235610000000  0.5407640000000  0.4169000000000 1.0
C      1  0.4754360000000  0.4579830000000  0.4145670000000 1.0
C      1  0.5018310000000  0.4561870000000  0.4279180000000 1.0
C      1  0.4975150000000  0.5404180000000  0.4311820000000 1.0
C      1  0.5028600000000  0.4626260000000  0.5675070000000 1.0
C      1  0.5022070000000  0.5447440000000  0.5714640000000 1.0
C      1  0.4125130000000  0.4805450000000  0.4175320000000 1.0
C      1  0.5869730000000  0.5191130000000  0.4181250000000 1.0
C      1  0.4145510000000  0.4840620000000  0.5804990000000 1.0
C      1  0.5896830000000  0.5175610000000  0.5807090000000 1.0
C      1  0.4929860000000  0.5387320000000  0.5304640000000 1.0
C      1  0.5089590000000  0.4832970000000  0.5314620000000 1.0
C      1  0.4948480000000  0.5245390000000  0.4699590000000 1.0
C      1  0.5040610000000  0.4751780000000  0.4700590000000 1.0
C      1  0.4364920000000  0.4275110000000  0.4660000000000 1.0
C      1  0.5615030000000  0.5704590000000  0.4684360000000 1.0
C      1  0.4392260000000  0.4359780000000  0.5289450000000 1.0
C      1  0.5634620000000  0.5649160000000  0.5311750000000 1.0
C      1  0.4144540000000  0.4677080000000  0.4430440000000 1.0
C      1  0.5853610000000  0.5319920000000  0.4437140000000 1.0
C      1  0.4150870000000  0.4735380000000  0.5537260000000 1.0
C      1  0.5875960000000  0.5260550000000  0.5533370000000 1.0
C      1  0.6003510000000  0.4682990000000  0.4835590000000 1.0
C      1  0.3995610000000  0.5309350000000  0.4834060000000 1.0
C      1  0.6000290000000  0.4633480000000  0.5122030000000 1.0
C      1  0.4003800000000  0.5352860000000  0.5120600000000 1.0
C      1  0.4542420000000  0.5183560000000  0.5765310000000 1.0
C      1  0.5504710000000  0.4836860000000  0.5815180000000 1.0
C      1  0.4525940000000  0.5133500000000  0.4208540000000 1.0
C      1  0.5465530000000  0.4861100000000  0.4219870000000 1.0
C      1  0.4384930000000  0.5333740000000  0.5538150000000 1.0
C      1  0.5618090000000  0.4683380000000  0.5558830000000 1.0
C      1  0.4390680000000  0.5272530000000  0.4453840000000 1.0
C      1  0.5603010000000  0.4729110000000  0.4469120000000 1.0
C      1  0.5382720000000  0.5710140000000  0.4868420000000 1.0
C      1  0.4601100000000  0.4226430000000  0.4831470000000 1.0
C      1  0.5402860000000  0.5733750000000  0.5158040000000 1.0
C      1  0.4621880000000  0.4300590000000  0.5116420000000 1.0
C      1  0.6163960000000  0.5157570000000  0.5131670000000 1.0
C      1  0.3855980000000  0.4825490000000  0.5136790000000 1.0
C      1  0.6098610000000  0.5278900000000  0.4875920000000 1.0
C      1  0.3914830000000  0.4709940000000  0.4876850000000 1.0
C      1  0.5166080000000  0.4977820000000  0.6114000000000 1.0
C      1  0.4858160000000  0.5023320000000  0.6109340000000 1.0
C      1  0.5156370000000  0.4985870000000  0.3897530000000 1.0
C      1  0.4848680000000  0.5013830000000  0.3897530000000 1.0
C      1  0.4693720000000  0.5337810000000  0.6041280000000 1.0
C      1  0.5327830000000  0.4658160000000  0.6063520000000 1.0
C      1  0.4675940000000  0.5325810000000  0.3957740000000 1.0
C      1  0.5336040000000  0.4676200000000  0.3949710000000 1.0
C      1  0.4343560000000  0.4948170000000  0.4058590000000 1.0
C      1  0.5651140000000  0.5045920000000  0.4065870000000 1.0
C      1  0.4363940000000  0.4989030000000  0.5919440000000 1.0
C      1  0.5685960000000  0.5035570000000  0.5942770000000 1.0
C      1  0.5523530000000  0.4409860000000  0.4103610000000 1.0
C      1  0.4501210000000  0.5602730000000  0.4107850000000 1.0
C      1  0.5471640000000  0.4369480000000  0.5911090000000 1.0
C      1  0.4509750000000  0.5620790000000  0.5915990000000 1.0
C      1  0.5247980000000  0.4134650000000  0.4446060000000 1.0
C      1  0.4777670000000  0.5851160000000  0.4472240000000 1.0
C      1  0.5190130000000  0.4159210000000  0.5535740000000 1.0
C      1  0.4800350000000  0.5892680000000  0.5586120000000 1.0
C      1  0.5843850000000  0.4808860000000  0.5307570000000 1.0
C      1  0.4172840000000  0.5182260000000  0.5298960000000 1.0
C      1  0.5816630000000  0.4878820000000  0.4701700000000 1.0
C      1  0.4182200000000  0.5119150000000  0.4694380000000 1.0
C      1  0.4950920000000  0.5628040000000  0.4526590000000 1.0
C      1  0.5029800000000  0.4318620000000  0.4476330000000 1.0
C      1  0.5020810000000  0.5712110000000  0.5553730000000 1.0
C      1  0.5052730000000  0.4401690000000  0.5465260000000 1.0
C      1  0.4892650000000  0.4210250000000  0.4742290000000 1.0
C      1  0.5086350000000  0.5719080000000  0.4795290000000 1.0
C      1  0.4922340000000  0.4327550000000  0.5188860000000 1.0
C      1  0.5119740000000  0.5759600000000  0.5263760000000 1.0
C      1  0.4793490000000  0.4786530000000  0.5312530000000 1.0
C      1  0.5193400000000  0.5238390000000  0.5343840000000 1.0
C      1  0.4779110000000  0.4604560000000  0.4654430000000 1.0
C      1  0.5235350000000  0.5347690000000  0.4669140000000 1.0
C      1  0.5235080000000  0.3994660000000  0.5288000000000 1.0
C      1  0.4709540000000  0.5977480000000  0.5310000000000 1.0
C      1  0.5309960000000  0.4019040000000  0.4718760000000 1.0
C      1  0.4738830000000  0.6008010000000  0.4729890000000 1.0
C      1  0.5400190000000  0.5279630000000  0.4891570000000 1.0
C      1  0.4602010000000  0.4644020000000  0.4875730000000 1.0
C      1  0.5309040000000  0.5127180000000  0.5110530000000 1.0
C      1  0.4646000000000  0.4835000000000  0.5075900000000 1.0
C      1  0.5369320000000  0.4406120000000  0.4870030000000 1.0
C      1  0.4607200000000  0.5619730000000  0.4820090000000 1.0
C      1  0.5338700000000  0.4407480000000  0.5157790000000 1.0
C      1  0.4557910000000  0.5642130000000  0.5103290000000 1.0
C      1  0.5714990000000  0.4510590000000  0.4301910000000 1.0
C      1  0.4294740000000  0.5504020000000  0.4293870000000 1.0
C      1  0.5684940000000  0.4442190000000  0.5720420000000 1.0
C      1  0.4296350000000  0.5544850000000  0.5727500000000 1.0
C      1  0.5551900000000  0.4836820000000  0.4871310000000 1.0
C      1  0.4453990000000  0.5168540000000  0.4855410000000 1.0
C      1  0.5571970000000  0.4804000000000  0.5159490000000 1.0
C      1  0.4446250000000  0.5197390000000  0.5145910000000 1.0
C      1  0.5169980000000  0.4820470000000  0.4307350000000 1.0
C      1  0.4816520000000  0.5150950000000  0.4312560000000 1.0
C      1  0.5216000000000  0.4861390000000  0.5713570000000 1.0
C      1  0.4839370000000  0.5203480000000  0.5671010000000 1.0
C      1  0.4385720000000  0.4575260000000  0.5480390000000 1.0
C      1  0.5638100000000  0.5414350000000  0.5475620000000 1.0
C      1  0.4356590000000  0.4479420000000  0.4452330000000 1.0
C      1  0.5638810000000  0.5516130000000  0.4462500000000 1.0
C      1  0.5932770000000  0.4294800000000  0.5693320000000 1.0
C      1  0.4031620000000  0.5662120000000  0.5726880000000 1.0
C      1  0.5984210000000  0.4408000000000  0.4331430000000 1.0
C      1  0.4030060000000  0.5618900000000  0.4317860000000 1.0
C      1  0.4882470000000  0.5898130000000  0.5030030000000 1.0
C      1  0.5114830000000  0.4094480000000  0.4989780000000 1.0
C      1  0.4980070000000  0.4995690000000  0.4833840000000 1.0
END
