TITL C-862128-1543-1025 -0.150505566808669 125000 -205.02616201098 0 0 37 (C1) n - 1
REM
REM in /home/nfs/bkarasulu/CARBON/AIRSS/Generating-Clusters/TERSOFF/Higher-Symm/FIRE-HFTN
REM
REM
REM
REM
REM
REM ./C.cell (b20cbc046b6831c77cfcea5457e17084)
REM AIRSS Version 0.9.1 bugfix July 2018 build 013d7b7c2542+ Fri, 06 Jul 2018 19:26:36 +0100
REM compiler GCC version 9.2.1 20190827 (Red Hat 9.2.1-1)
REM options -cpp -mtune=generic -march=x86-64 -g -O0 -fpre-include=/usr/include/finclude/math-vector-fortran.h
REM seed -967769054 1714961009 -894885853 773065584 -392578381 1018604297 2106717225 969515672 415090795 -902624574 1057952672 21967009 1197204019 -1142846109 719389714 1449310142 835601228 -123598690 -126976970 -1190084847 1705231357 1967914738 1794810372 -1248961288 -426188075 821022114 39592442 1345571431 -780325092 708261765 -1164582965 -1761549955 75731189
REM
CELL 1.54180   50.00000   50.00000   50.00000   90.00000   90.00000   90.00000
LATT -1
SFAC C  
C      1  0.5324640000000  0.4449420000000  0.4746720000000 1.0
C      1  0.4651040000000  0.5445440000000  0.5294990000000 1.0
C      1  0.4997660000000  0.4810670000000  0.4497510000000 1.0
C      1  0.5037970000000  0.5223760000000  0.5598550000000 1.0
C      1  0.4893970000000  0.4554420000000  0.5270090000000 1.0
C      1  0.5047480000000  0.5521810000000  0.4741970000000 1.0
C      1  0.4488510000000  0.5458730000000  0.4806240000000 1.0
C      1  0.5486640000000  0.4541860000000  0.5230190000000 1.0
C      1  0.4437960000000  0.4676210000000  0.5097050000000 1.0
C      1  0.5499560000000  0.5332290000000  0.4889190000000 1.0
C      1  0.5026910000000  0.5007930000000  0.5112840000000 1.0
C      1  0.5089380000000  0.5061340000000  0.4612230000000 1.0
C      1  0.4440760000000  0.5308370000000  0.5442290000000 1.0
C      1  0.5543740000000  0.4436200000000  0.4555520000000 1.0
C      1  0.5352300000000  0.4772900000000  0.5342370000000 1.0
C      1  0.4629420000000  0.5248110000000  0.4664810000000 1.0
C      1  0.4532820000000  0.4966460000000  0.4689360000000 1.0
C      1  0.5469150000000  0.5048430000000  0.5318420000000 1.0
C      1  0.5059100000000  0.4543180000000  0.4655680000000 1.0
C      1  0.4925860000000  0.5439410000000  0.5397610000000 1.0
C      1  0.5603030000000  0.5124620000000  0.5067220000000 1.0
C      1  0.4364470000000  0.4890810000000  0.4916490000000 1.0
C      1  0.5255390000000  0.5486440000000  0.4947570000000 1.0
C      1  0.4687700000000  0.4526080000000  0.5065450000000 1.0
C      1  0.4446670000000  0.5028750000000  0.5516810000000 1.0
C      1  0.5654870000000  0.4663960000000  0.4415700000000 1.0
C      1  0.4768310000000  0.4488880000000  0.4781960000000 1.0
C      1  0.5194290000000  0.5509430000000  0.5235980000000 1.0
C      1  0.4699250000000  0.4746220000000  0.4581320000000 1.0
C      1  0.5308830000000  0.5271020000000  0.5434460000000 1.0
C      1  0.4915320000000  0.5296750000000  0.4605460000000 1.0
C      1  0.5063620000000  0.4788750000000  0.5295580000000 1.0
C      1  0.5371960000000  0.4369610000000  0.5024880000000 1.0
C      1  0.4584770000000  0.5586090000000  0.5048400000000 1.0
C      1  0.5507400000000  0.4903120000000  0.4346180000000 1.0
C      1  0.4601390000000  0.4919380000000  0.5735620000000 1.0
C      1  0.5193290000000  0.5045080000000  0.4880310000000 1.0
END
