TITL C-862130-1496-1044 1.85193021291441e-06 125000 -261.466714404993 0 0 48 (O) n - 1
REM
REM in /home/nfs/bkarasulu/CARBON/AIRSS/Generating-Clusters/TERSOFF/Higher-Symm/FIRE-HFTN
REM
REM
REM
REM
REM
REM ./C.cell (b20cbc046b6831c77cfcea5457e17084)
REM AIRSS Version 0.9.1 bugfix July 2018 build 013d7b7c2542+ Fri, 06 Jul 2018 19:26:36 +0100
REM compiler GCC version 9.2.1 20190827 (Red Hat 9.2.1-1)
REM options -cpp -mtune=generic -march=x86-64 -g -O0 -fpre-include=/usr/include/finclude/math-vector-fortran.h
REM seed -1079245004 283935826 1261444998 -1354708363 59040795 2026321172 -401635308 2127529693 -133966201 -515288885 1870110757 856891689 -591363888 -1908591711 1629990766 1059387064 -1672712205 -1965769844 62118246 55814224 -1755269211 39045308 445251936 532240419 -1963978319 261300216 -1266967298 -113875131 -1180706180 -828206728 -2063808269 1862590753 225100350
REM
CELL 1.54180   50.00000   50.00000   50.00000   90.00000   90.00000   90.00000
LATT -1
SFAC C  
C      1  0.5169810000000  0.4391950000000  0.5358800000000 1.0
C      1  0.5358800000000  0.5169810000000  0.4391950000000 1.0
C      1  0.4391950000000  0.5358800000000  0.5169810000000 1.0
C      1  0.4830190000000  0.4391950000000  0.4641200000000 1.0
C      1  0.5169810000000  0.5608050000000  0.4641200000000 1.0
C      1  0.4830190000000  0.5608050000000  0.5358800000000 1.0
C      1  0.4641200000000  0.5169810000000  0.5608050000000 1.0
C      1  0.5358800000000  0.4830190000000  0.5608050000000 1.0
C      1  0.4641200000000  0.4830190000000  0.4391950000000 1.0
C      1  0.5608050000000  0.5358800000000  0.4830190000000 1.0
C      1  0.4391950000000  0.4641200000000  0.4830190000000 1.0
C      1  0.5608050000000  0.4641200000000  0.5169810000000 1.0
C      1  0.5151320000000  0.5582180000000  0.5376590000000 1.0
C      1  0.5376590000000  0.4848680000000  0.4417820000000 1.0
C      1  0.4417820000000  0.4623410000000  0.5151320000000 1.0
C      1  0.4848680000000  0.5582180000000  0.4623410000000 1.0
C      1  0.5151320000000  0.4417820000000  0.4623410000000 1.0
C      1  0.4848680000000  0.4417820000000  0.5376590000000 1.0
C      1  0.4623410000000  0.4848680000000  0.5582180000000 1.0
C      1  0.5376590000000  0.5151320000000  0.5582180000000 1.0
C      1  0.4623410000000  0.5151320000000  0.4417820000000 1.0
C      1  0.5582180000000  0.4623410000000  0.4848680000000 1.0
C      1  0.4417820000000  0.5376590000000  0.4848680000000 1.0
C      1  0.5582180000000  0.5376590000000  0.5151320000000 1.0
C      1  0.5376590000000  0.5582180000000  0.4848680000000 1.0
C      1  0.4848680000000  0.5376590000000  0.5582180000000 1.0
C      1  0.5582180000000  0.4848680000000  0.5376590000000 1.0
C      1  0.4623410000000  0.5582180000000  0.5151320000000 1.0
C      1  0.5376590000000  0.4417820000000  0.5151320000000 1.0
C      1  0.4623410000000  0.4417820000000  0.4848680000000 1.0
C      1  0.5151320000000  0.5376590000000  0.4417820000000 1.0
C      1  0.4848680000000  0.4623410000000  0.4417820000000 1.0
C      1  0.5151320000000  0.4623410000000  0.5582180000000 1.0
C      1  0.4417820000000  0.4848680000000  0.4623410000000 1.0
C      1  0.5582180000000  0.5151320000000  0.4623410000000 1.0
C      1  0.4417820000000  0.5151320000000  0.5376590000000 1.0
C      1  0.5358800000000  0.4391950000000  0.4830190000000 1.0
C      1  0.4830190000000  0.4641200000000  0.5608050000000 1.0
C      1  0.5608050000000  0.5169810000000  0.5358800000000 1.0
C      1  0.4641200000000  0.4391950000000  0.5169810000000 1.0
C      1  0.5358800000000  0.5608050000000  0.5169810000000 1.0
C      1  0.4641200000000  0.5608050000000  0.4830190000000 1.0
C      1  0.5169810000000  0.4641200000000  0.4391950000000 1.0
C      1  0.4830190000000  0.5358800000000  0.4391950000000 1.0
C      1  0.5169810000000  0.5358800000000  0.5608050000000 1.0
C      1  0.4391950000000  0.5169810000000  0.4641200000000 1.0
C      1  0.5608050000000  0.4830190000000  0.4641200000000 1.0
C      1  0.4391950000000  0.4830190000000  0.5358800000000 1.0
END
