TITL C-862500-986-782 146.325744574082 125000 -697.832317195257 0 0 121 (C1) n - 1
REM
REM in /home/nfs/bkarasulu/CARBON/AIRSS/Generating-Clusters/TERSOFF/Higher-Symm/FIRE-HFTN
REM
REM
REM
REM
REM
REM ./C.cell (b20cbc046b6831c77cfcea5457e17084)
REM AIRSS Version 0.9.1 bugfix July 2018 build 013d7b7c2542+ Fri, 06 Jul 2018 19:26:36 +0100
REM compiler GCC version 9.2.1 20190827 (Red Hat 9.2.1-1)
REM options -cpp -mtune=generic -march=x86-64 -g -O0 -fpre-include=/usr/include/finclude/math-vector-fortran.h
REM seed -1550684983 1319891878 1990133076 639415746 2098011566 995389556 1114652089 -780964309 -1668060856 1550517777 2027971611 1418251798 -645135841 -1761498111 -355318212 -887161097 -1130359837 1801232506 1638667849 -1335329853 -805846364 -1323466433 1730430341 -1137867193 786065947 -1913150221 1861812589 -456609417 -503983757 -93152056 -1766247899 1156707600 -293370368
REM
CELL 1.54180   50.00000   50.00000   50.00000   90.00000   90.00000   90.00000
LATT -1
SFAC C  
C      1  0.5895770000000  0.4426220000000  0.4881620000000 1.0
C      1  0.5812560000000  0.5598030000000  0.5155230000000 1.0
C      1  0.5886630000000  0.4430220000000  0.5180150000000 1.0
C      1  0.5818490000000  0.5604020000000  0.4858810000000 1.0
C      1  0.4843700000000  0.5614740000000  0.4322510000000 1.0
C      1  0.4908950000000  0.4304130000000  0.5725720000000 1.0
C      1  0.4808520000000  0.5540340000000  0.5616200000000 1.0
C      1  0.4914090000000  0.4395140000000  0.4343950000000 1.0
C      1  0.5061350000000  0.5645820000000  0.4092550000000 1.0
C      1  0.5133680000000  0.4335720000000  0.5955390000000 1.0
C      1  0.5000090000000  0.5585850000000  0.5867780000000 1.0
C      1  0.5106140000000  0.4374700000000  0.4072210000000 1.0
C      1  0.4419490000000  0.5879810000000  0.5267100000000 1.0
C      1  0.4481350000000  0.4293570000000  0.4750130000000 1.0
C      1  0.4429960000000  0.5904240000000  0.4695570000000 1.0
C      1  0.4476300000000  0.4237210000000  0.5300400000000 1.0
C      1  0.4900540000000  0.5713710000000  0.4627020000000 1.0
C      1  0.4978920000000  0.4228520000000  0.5391290000000 1.0
C      1  0.4880020000000  0.5671680000000  0.5332230000000 1.0
C      1  0.4984220000000  0.4278510000000  0.4644410000000 1.0
C      1  0.5058730000000  0.5241460000000  0.4522360000000 1.0
C      1  0.5104120000000  0.4666300000000  0.5499510000000 1.0
C      1  0.5057880000000  0.5213750000000  0.5402900000000 1.0
C      1  0.5261940000000  0.4683850000000  0.4496890000000 1.0
C      1  0.5910110000000  0.5358250000000  0.5303730000000 1.0
C      1  0.5974950000000  0.4671060000000  0.4725020000000 1.0
C      1  0.5918580000000  0.5369520000000  0.4704260000000 1.0
C      1  0.5959570000000  0.4675910000000  0.5332310000000 1.0
C      1  0.4075320000000  0.5177980000000  0.5913050000000 1.0
C      1  0.3876940000000  0.4932850000000  0.4220320000000 1.0
C      1  0.4002490000000  0.5187950000000  0.4160420000000 1.0
C      1  0.3930790000000  0.4943940000000  0.5818910000000 1.0
C      1  0.4401790000000  0.4402320000000  0.5529870000000 1.0
C      1  0.4276830000000  0.5774450000000  0.4484590000000 1.0
C      1  0.4410920000000  0.4465270000000  0.4524650000000 1.0
C      1  0.4305710000000  0.5778800000000  0.5516250000000 1.0
C      1  0.5843210000000  0.4738270000000  0.5597790000000 1.0
C      1  0.5814850000000  0.5300160000000  0.4436470000000 1.0
C      1  0.5891180000000  0.4714950000000  0.4440950000000 1.0
C      1  0.5792670000000  0.5276730000000  0.5563100000000 1.0
C      1  0.4984440000000  0.4757220000000  0.5271530000000 1.0
C      1  0.5010530000000  0.4997330000000  0.4649880000000 1.0
C      1  0.5225560000000  0.4818210000000  0.4754320000000 1.0
C      1  0.5023930000000  0.5028540000000  0.5188760000000 1.0
C      1  0.4752120000000  0.4862940000000  0.4618730000000 1.0
C      1  0.4736830000000  0.4638900000000  0.5180100000000 1.0
C      1  0.4789850000000  0.5018410000000  0.5006400000000 1.0
C      1  0.5023860000000  0.4627860000000  0.4874050000000 1.0
C      1  0.5347350000000  0.5820120000000  0.5144440000000 1.0
C      1  0.5461350000000  0.4144960000000  0.4878280000000 1.0
C      1  0.5357010000000  0.5827370000000  0.4852130000000 1.0
C      1  0.5452790000000  0.4153620000000  0.5174000000000 1.0
C      1  0.6097420000000  0.5183440000000  0.5159240000000 1.0
C      1  0.6125880000000  0.4875950000000  0.4874580000000 1.0
C      1  0.6112080000000  0.5196860000000  0.4841800000000 1.0
C      1  0.6131820000000  0.4867160000000  0.5193380000000 1.0
C      1  0.4020100000000  0.4690180000000  0.4291430000000 1.0
C      1  0.4050920000000  0.5444820000000  0.5799920000000 1.0
C      1  0.4051600000000  0.4685070000000  0.5764170000000 1.0
C      1  0.3948190000000  0.5436640000000  0.4300750000000 1.0
C      1  0.5439120000000  0.5293400000000  0.4080100000000 1.0
C      1  0.5453330000000  0.4742130000000  0.5942730000000 1.0
C      1  0.5397690000000  0.5255850000000  0.5901150000000 1.0
C      1  0.5516890000000  0.4715180000000  0.4065870000000 1.0
C      1  0.4154010000000  0.5343430000000  0.5319810000000 1.0
C      1  0.4166070000000  0.4849120000000  0.4744490000000 1.0
C      1  0.4123990000000  0.5389120000000  0.4769190000000 1.0
C      1  0.4182710000000  0.4795070000000  0.5292170000000 1.0
C      1  0.5505750000000  0.5278470000000  0.5624880000000 1.0
C      1  0.5638860000000  0.4619340000000  0.4323600000000 1.0
C      1  0.5531130000000  0.5296230000000  0.4362610000000 1.0
C      1  0.5562230000000  0.4698820000000  0.5670510000000 1.0
C      1  0.3906580000000  0.4927470000000  0.4868640000000 1.0
C      1  0.3903830000000  0.5224190000000  0.5210870000000 1.0
C      1  0.3921400000000  0.4902080000000  0.5191440000000 1.0
C      1  0.3887960000000  0.5249610000000  0.4890370000000 1.0
C      1  0.5228660000000  0.4656750000000  0.3982020000000 1.0
C      1  0.5111550000000  0.5312580000000  0.5971570000000 1.0
C      1  0.5185930000000  0.4637010000000  0.6028400000000 1.0
C      1  0.5160980000000  0.5365880000000  0.3997770000000 1.0
C      1  0.5428440000000  0.5701790000000  0.4395340000000 1.0
C      1  0.5500760000000  0.4284130000000  0.5645530000000 1.0
C      1  0.5386550000000  0.5680180000000  0.5600170000000 1.0
C      1  0.5478880000000  0.4186070000000  0.4301940000000 1.0
C      1  0.4203670000000  0.4620000000000  0.5524210000000 1.0
C      1  0.4106450000000  0.5540460000000  0.4522220000000 1.0
C      1  0.4191530000000  0.4661000000000  0.4524670000000 1.0
C      1  0.4160430000000  0.5526880000000  0.5543020000000 1.0
C      1  0.4917820000000  0.4609150000000  0.5706430000000 1.0
C      1  0.4868260000000  0.5312280000000  0.4318590000000 1.0
C      1  0.5011490000000  0.4686460000000  0.4340020000000 1.0
C      1  0.4847640000000  0.5233080000000  0.5611910000000 1.0
C      1  0.5297040000000  0.4158240000000  0.4084840000000 1.0
C      1  0.5214430000000  0.5769890000000  0.5809150000000 1.0
C      1  0.5375630000000  0.4193030000000  0.5885470000000 1.0
C      1  0.5282530000000  0.5810420000000  0.4175950000000 1.0
C      1  0.5314050000000  0.5411480000000  0.4563400000000 1.0
C      1  0.5379520000000  0.4534160000000  0.5487090000000 1.0
C      1  0.5304950000000  0.5400630000000  0.5416760000000 1.0
C      1  0.5456220000000  0.4431490000000  0.4482290000000 1.0
C      1  0.4950070000000  0.5157480000000  0.4066340000000 1.0
C      1  0.4934460000000  0.4802220000000  0.5938710000000 1.0
C      1  0.4913530000000  0.5101700000000  0.5884990000000 1.0
C      1  0.5000460000000  0.4855700000000  0.4080010000000 1.0
C      1  0.5160000000000  0.5623460000000  0.5251510000000 1.0
C      1  0.5278940000000  0.4307480000000  0.4709600000000 1.0
C      1  0.5171530000000  0.5643360000000  0.4721950000000 1.0
C      1  0.5251210000000  0.4314480000000  0.5309160000000 1.0
C      1  0.4674110000000  0.5793880000000  0.4819160000000 1.0
C      1  0.4749620000000  0.4219530000000  0.5185980000000 1.0
C      1  0.4667300000000  0.5779250000000  0.5141660000000 1.0
C      1  0.4756570000000  0.4261360000000  0.4861070000000 1.0
C      1  0.4417450000000  0.4932450000000  0.5178940000000 1.0
C      1  0.4385020000000  0.5294470000000  0.4870300000000 1.0
C      1  0.4396130000000  0.4981190000000  0.4865500000000 1.0
C      1  0.4398800000000  0.5252450000000  0.5186050000000 1.0
C      1  0.5717980000000  0.4218030000000  0.5292220000000 1.0
C      1  0.5633130000000  0.5801060000000  0.4747850000000 1.0
C      1  0.5734120000000  0.4207640000000  0.4769770000000 1.0
C      1  0.5617150000000  0.5787230000000  0.5266200000000 1.0
C      1  0.4696970000000  0.4695080000000  0.4877120000000 1.0
END
