TITL C-862507-1800-1379 -4.18074946231081 125000 -1105.27629434392 0 0 187 (C1) n - 1
REM
REM in /home/nfs/bkarasulu/CARBON/AIRSS/Generating-Clusters/TERSOFF/Higher-Symm/FIRE-HFTN
REM
REM
REM
REM
REM
REM ./C.cell (b20cbc046b6831c77cfcea5457e17084)
REM AIRSS Version 0.9.1 bugfix July 2018 build 013d7b7c2542+ Fri, 06 Jul 2018 19:26:36 +0100
REM compiler GCC version 9.2.1 20190827 (Red Hat 9.2.1-1)
REM options -cpp -mtune=generic -march=x86-64 -g -O0 -fpre-include=/usr/include/finclude/math-vector-fortran.h
REM seed 194934808 -23390207 -35936657 -1347846720 -1529835403 1395685884 1059199480 1163139797 -2082640208 -1133691889 1048500623 -2053583275 1231483362 -1829333985 1594341401 -23775231 1208659515 1917042949 1404766948 -2061984271 1885876635 269315041 1843321611 790263010 1953029678 -1443360065 -1452570054 1063335410 -176739062 2146842237 992277437 1482398432 1140006068
REM
CELL 1.54180   50.00000   50.00000   50.00000   90.00000   90.00000   90.00000
LATT -1
SFAC C  
C      1  0.6114890000000  0.5190590000000  0.5300920000000 1.0
C      1  0.4736360000000  0.4681240000000  0.4681700000000 1.0
C      1  0.5154720000000  0.4877410000000  0.3900240000000 1.0
C      1  0.5530600000000  0.5509550000000  0.4632670000000 1.0
C      1  0.4073650000000  0.5559820000000  0.4853920000000 1.0
C      1  0.4693690000000  0.4707510000000  0.3812080000000 1.0
C      1  0.4053910000000  0.4434300000000  0.6087860000000 1.0
C      1  0.4552190000000  0.4468100000000  0.5143000000000 1.0
C      1  0.4430470000000  0.5991420000000  0.4345720000000 1.0
C      1  0.5483340000000  0.5711230000000  0.5608740000000 1.0
C      1  0.5778460000000  0.4766490000000  0.5866610000000 1.0
C      1  0.6055350000000  0.4697760000000  0.5353250000000 1.0
C      1  0.5599420000000  0.6052000000000  0.4958900000000 1.0
C      1  0.5136200000000  0.5717930000000  0.4192200000000 1.0
C      1  0.4850910000000  0.4404900000000  0.4199860000000 1.0
C      1  0.4717700000000  0.4854590000000  0.6247240000000 1.0
C      1  0.5197080000000  0.5289110000000  0.3728210000000 1.0
C      1  0.4741250000000  0.6004350000000  0.4931560000000 1.0
C      1  0.5202630000000  0.5896100000000  0.5265860000000 1.0
C      1  0.4228340000000  0.4884960000000  0.5650610000000 1.0
C      1  0.5011050000000  0.4971280000000  0.6315810000000 1.0
C      1  0.5517070000000  0.5175430000000  0.5216180000000 1.0
C      1  0.3971290000000  0.5157710000000  0.4202210000000 1.0
C      1  0.5956530000000  0.5465430000000  0.4866770000000 1.0
C      1  0.5238570000000  0.5971150000000  0.4664540000000 1.0
C      1  0.5578570000000  0.4076870000000  0.5155490000000 1.0
C      1  0.5878830000000  0.5314290000000  0.5743230000000 1.0
C      1  0.5803100000000  0.4481000000000  0.4717830000000 1.0
C      1  0.4196820000000  0.5812860000000  0.4773330000000 1.0
C      1  0.5507650000000  0.4930510000000  0.5816630000000 1.0
C      1  0.4126840000000  0.4712310000000  0.6122030000000 1.0
C      1  0.4603220000000  0.3976340000000  0.4876960000000 1.0
C      1  0.5249730000000  0.5489420000000  0.4701890000000 1.0
C      1  0.5081610000000  0.6217270000000  0.4657720000000 1.0
C      1  0.4552500000000  0.4998350000000  0.6047720000000 1.0
C      1  0.5231740000000  0.5902400000000  0.5560400000000 1.0
C      1  0.4942190000000  0.4882120000000  0.5194880000000 1.0
C      1  0.4407490000000  0.4362670000000  0.4898270000000 1.0
C      1  0.4264310000000  0.4096860000000  0.4894080000000 1.0
C      1  0.3875610000000  0.5085840000000  0.4752460000000 1.0
C      1  0.5909210000000  0.4384190000000  0.5981270000000 1.0
C      1  0.5877830000000  0.4944240000000  0.4463490000000 1.0
C      1  0.5573610000000  0.3902610000000  0.5619750000000 1.0
C      1  0.4704850000000  0.5976770000000  0.4443990000000 1.0
C      1  0.4791610000000  0.6154900000000  0.4676770000000 1.0
C      1  0.4934620000000  0.5231120000000  0.3849300000000 1.0
C      1  0.5027510000000  0.5683330000000  0.5926760000000 1.0
C      1  0.4455000000000  0.4920640000000  0.4935030000000 1.0
C      1  0.5220530000000  0.4487490000000  0.4464960000000 1.0
C      1  0.5766840000000  0.4903510000000  0.6147800000000 1.0
C      1  0.5497880000000  0.5464540000000  0.5181760000000 1.0
C      1  0.4926780000000  0.4321230000000  0.5470350000000 1.0
C      1  0.5925220000000  0.5652920000000  0.5327450000000 1.0
C      1  0.5100470000000  0.3994190000000  0.4994340000000 1.0
C      1  0.5651170000000  0.4346190000000  0.5849820000000 1.0
C      1  0.4167520000000  0.4659210000000  0.5471290000000 1.0
C      1  0.4342510000000  0.4536340000000  0.4687160000000 1.0
C      1  0.4876010000000  0.5714910000000  0.4394610000000 1.0
C      1  0.4909400000000  0.4514430000000  0.5916870000000 1.0
C      1  0.5723310000000  0.4750500000000  0.5061140000000 1.0
C      1  0.4281870000000  0.4813440000000  0.4726970000000 1.0
C      1  0.5440990000000  0.4820890000000  0.5550520000000 1.0
C      1  0.6028300000000  0.5126220000000  0.5585640000000 1.0
C      1  0.4630410000000  0.4510630000000  0.4382850000000 1.0
C      1  0.5023010000000  0.4504780000000  0.5030850000000 1.0
C      1  0.4945490000000  0.4993210000000  0.4093380000000 1.0
C      1  0.4818270000000  0.4053170000000  0.5062100000000 1.0
C      1  0.3815540000000  0.5219490000000  0.3966160000000 1.0
C      1  0.5042640000000  0.3849290000000  0.5713240000000 1.0
C      1  0.5158430000000  0.4469630000000  0.3803030000000 1.0
C      1  0.3894660000000  0.4981650000000  0.5185840000000 1.0
C      1  0.4668110000000  0.5503790000000  0.4900880000000 1.0
C      1  0.4318650000000  0.5386120000000  0.5572920000000 1.0
C      1  0.4383940000000  0.4467860000000  0.5399240000000 1.0
C      1  0.3870100000000  0.4556970000000  0.4882900000000 1.0
C      1  0.4701890000000  0.5915190000000  0.5678810000000 1.0
C      1  0.4005950000000  0.4820960000000  0.4814140000000 1.0
C      1  0.5183940000000  0.4724930000000  0.6370370000000 1.0
C      1  0.5493410000000  0.5909700000000  0.5190120000000 1.0
C      1  0.5016700000000  0.5042820000000  0.6020280000000 1.0
C      1  0.5408680000000  0.4521420000000  0.5511220000000 1.0
C      1  0.5547790000000  0.4516770000000  0.5115860000000 1.0
C      1  0.4930890000000  0.5141470000000  0.4741720000000 1.0
C      1  0.4006760000000  0.4303610000000  0.5008970000000 1.0
C      1  0.5456430000000  0.5318290000000  0.3908120000000 1.0
C      1  0.5067020000000  0.5722650000000  0.4666450000000 1.0
C      1  0.5013360000000  0.4167670000000  0.4268050000000 1.0
C      1  0.5755440000000  0.5248770000000  0.4034900000000 1.0
C      1  0.4487510000000  0.5410580000000  0.3969090000000 1.0
C      1  0.4800650000000  0.4817280000000  0.5486810000000 1.0
C      1  0.5286320000000  0.5451060000000  0.4150210000000 1.0
C      1  0.5713980000000  0.5666280000000  0.4802360000000 1.0
C      1  0.5622130000000  0.4518480000000  0.4012980000000 1.0
C      1  0.4212350000000  0.4006480000000  0.4599050000000 1.0
C      1  0.4832310000000  0.4556150000000  0.5624800000000 1.0
C      1  0.4126730000000  0.5359240000000  0.4360000000000 1.0
C      1  0.3952330000000  0.4714910000000  0.5284430000000 1.0
C      1  0.4560410000000  0.5976130000000  0.5418920000000 1.0
C      1  0.4044110000000  0.5478300000000  0.5144970000000 1.0
C      1  0.5642540000000  0.5023710000000  0.5017520000000 1.0
C      1  0.5196840000000  0.4782180000000  0.4511270000000 1.0
C      1  0.5974430000000  0.5203950000000  0.4660020000000 1.0
C      1  0.5552760000000  0.5959600000000  0.4667280000000 1.0
C      1  0.5058150000000  0.4138100000000  0.5702240000000 1.0
C      1  0.4457000000000  0.5171050000000  0.3789360000000 1.0
C      1  0.5166730000000  0.4050930000000  0.4713830000000 1.0
C      1  0.5624380000000  0.4264650000000  0.4648140000000 1.0
C      1  0.4438270000000  0.4610980000000  0.3907540000000 1.0
C      1  0.4477010000000  0.5064440000000  0.4323840000000 1.0
C      1  0.5692140000000  0.5151580000000  0.4777480000000 1.0
C      1  0.4635850000000  0.5023860000000  0.5604170000000 1.0
C      1  0.5086340000000  0.5390050000000  0.5153240000000 1.0
C      1  0.4515040000000  0.5448270000000  0.5787150000000 1.0
C      1  0.4142690000000  0.4265870000000  0.5869850000000 1.0
C      1  0.4284390000000  0.5873460000000  0.5385840000000 1.0
C      1  0.5294020000000  0.4102490000000  0.5192600000000 1.0
C      1  0.5309870000000  0.5959000000000  0.4208090000000 1.0
C      1  0.5422580000000  0.4977130000000  0.3895920000000 1.0
C      1  0.5151160000000  0.5280100000000  0.4879960000000 1.0
C      1  0.4971600000000  0.5206010000000  0.5350050000000 1.0
C      1  0.5706420000000  0.4301970000000  0.5312800000000 1.0
C      1  0.5575130000000  0.5955370000000  0.4343460000000 1.0
C      1  0.4095240000000  0.5189840000000  0.5148430000000 1.0
C      1  0.5213160000000  0.4860510000000  0.5900850000000 1.0
C      1  0.4707460000000  0.5004560000000  0.3739480000000 1.0
C      1  0.5350530000000  0.5030880000000  0.5388440000000 1.0
C      1  0.4256670000000  0.4943690000000  0.4468030000000 1.0
C      1  0.4380850000000  0.4560780000000  0.4188560000000 1.0
C      1  0.5703420000000  0.4754300000000  0.4641830000000 1.0
C      1  0.4568580000000  0.5723250000000  0.5856940000000 1.0
C      1  0.5605830000000  0.5265170000000  0.5847680000000 1.0
C      1  0.4192970000000  0.5921240000000  0.4501880000000 1.0
C      1  0.4685960000000  0.6121960000000  0.5194630000000 1.0
C      1  0.4858580000000  0.5737160000000  0.4919920000000 1.0
C      1  0.4975530000000  0.5262500000000  0.5664880000000 1.0
C      1  0.5333740000000  0.4298270000000  0.4677620000000 1.0
C      1  0.4444460000000  0.3940400000000  0.4430080000000 1.0
C      1  0.4907450000000  0.4540290000000  0.3937600000000 1.0
C      1  0.5274620000000  0.5254460000000  0.4355170000000 1.0
C      1  0.5399860000000  0.4424320000000  0.5999400000000 1.0
C      1  0.5619160000000  0.5162270000000  0.6148620000000 1.0
C      1  0.5416180000000  0.5468210000000  0.5763110000000 1.0
C      1  0.6044290000000  0.5446900000000  0.5159700000000 1.0
C      1  0.5211720000000  0.4338800000000  0.5367180000000 1.0
C      1  0.4298300000000  0.4862230000000  0.5941370000000 1.0
C      1  0.6012400000000  0.4438910000000  0.4925140000000 1.0
C      1  0.4769030000000  0.5468780000000  0.3913090000000 1.0
C      1  0.5257830000000  0.4852560000000  0.5020240000000 1.0
C      1  0.5400630000000  0.4835070000000  0.4721480000000 1.0
C      1  0.5964060000000  0.4445640000000  0.5220570000000 1.0
C      1  0.5727230000000  0.5723700000000  0.4243810000000 1.0
C      1  0.4687780000000  0.3929700000000  0.4594830000000 1.0
C      1  0.5453000000000  0.5267210000000  0.6375630000000 1.0
C      1  0.5166440000000  0.4999970000000  0.4304600000000 1.0
C      1  0.4960610000000  0.4012980000000  0.4510250000000 1.0
C      1  0.5411650000000  0.4638210000000  0.6203640000000 1.0
C      1  0.4210190000000  0.5587990000000  0.5373330000000 1.0
C      1  0.5637490000000  0.5681430000000  0.5339930000000 1.0
C      1  0.5143990000000  0.5445490000000  0.5817790000000 1.0
C      1  0.4818660000000  0.4321330000000  0.5180400000000 1.0
C      1  0.4744390000000  0.4582780000000  0.6145460000000 1.0
C      1  0.5282850000000  0.4156830000000  0.4147860000000 1.0
C      1  0.4729240000000  0.5180800000000  0.5851130000000 1.0
C      1  0.4691350000000  0.5457230000000  0.4426920000000 1.0
C      1  0.4367780000000  0.5098550000000  0.5513290000000 1.0
C      1  0.5130050000000  0.4315800000000  0.5935570000000 1.0
C      1  0.4027900000000  0.5340400000000  0.4656310000000 1.0
C      1  0.4947700000000  0.4870630000000  0.4638910000000 1.0
C      1  0.6137290000000  0.4925610000000  0.5174730000000 1.0
C      1  0.5990320000000  0.4827630000000  0.5644180000000 1.0
C      1  0.4715260000000  0.5328230000000  0.4681550000000 1.0
C      1  0.4674030000000  0.4737500000000  0.5015970000000 1.0
C      1  0.3998220000000  0.4881790000000  0.4321450000000 1.0
C      1  0.5825230000000  0.4979080000000  0.4168860000000 1.0
C      1  0.5027680000000  0.5682800000000  0.5151540000000 1.0
C      1  0.4680470000000  0.4896480000000  0.4186920000000 1.0
C      1  0.5643280000000  0.4185180000000  0.5600930000000 1.0
C      1  0.4445430000000  0.5366600000000  0.4260190000000 1.0
C      1  0.5632070000000  0.4812840000000  0.4013510000000 1.0
C      1  0.4106630000000  0.4603960000000  0.4272010000000 1.0
C      1  0.4997560000000  0.5908610000000  0.5744700000000 1.0
C      1  0.5379100000000  0.4357530000000  0.3957510000000 1.0
C      1  0.4374440000000  0.5141960000000  0.5096460000000 1.0
C      1  0.5162200000000  0.5213230000000  0.6422620000000 1.0
C      1  0.5301320000000  0.4441700000000  0.4945500000000 1.0
C      1  0.4548820000000  0.5373970000000  0.5127090000000 1.0
C      1  0.5643200000000  0.5477550000000  0.4368420000000 1.0
END
