TITL C-862131-2149-1275 154333.394573202 125000 -183.453337921869 0 0 33 (C1) n - 1
REM
REM in /home/nfs/bkarasulu/CARBON/AIRSS/Generating-Clusters/TERSOFF/Higher-Symm/FIRE-HFTN
REM
REM
REM
REM
REM
REM ./C.cell (b20cbc046b6831c77cfcea5457e17084)
REM AIRSS Version 0.9.1 bugfix July 2018 build 013d7b7c2542+ Fri, 06 Jul 2018 19:26:36 +0100
REM compiler GCC version 9.2.1 20190827 (Red Hat 9.2.1-1)
REM options -cpp -mtune=generic -march=x86-64 -g -O0 -fpre-include=/usr/include/finclude/math-vector-fortran.h
REM seed -1775290494 -554414304 -1958611211 -524373724 -1002067827 1903710475 -1455904876 1841232497 1757628525 593732212 396529259 -684554896 1449073459 546897985 2053611662 -470246588 -1690665390 637061286 1758873734 -1011086344 -1857187937 -1216622443 1826370250 -1849537825 -658672370 -1441411452 -311107479 644372320 -1644874188 -173712502 -99345968 -255634413 -389849718
REM
CELL 1.54180   50.00000   50.00000   50.00000   90.00000   90.00000   90.00000
LATT -1
SFAC C  
C      1  0.4744060000000  0.5637250000000  0.4976390000000 1.0
C      1  0.4648230000000  0.5679050000000  0.4706130000000 1.0
C      1  0.4765850000000  0.5561370000000  0.4469030000000 1.0
C      1  0.4993890000000  0.5383260000000  0.4468900000000 1.0
C      1  0.5133940000000  0.5293730000000  0.4706600000000 1.0
C      1  0.5272930000000  0.5483050000000  0.4878820000000 1.0
C      1  0.5359030000000  0.5422230000000  0.5150310000000 1.0
C      1  0.5427620000000  0.5634170000000  0.5336060000000 1.0
C      1  0.5237080000000  0.5814120000000  0.5458730000000 1.0
C      1  0.4950860000000  0.5806770000000  0.5414750000000 1.0
C      1  0.4821810000000  0.5848520000000  0.5158730000000 1.0
C      1  0.5412810000000  0.4389850000000  0.5000690000000 1.0
C      1  0.5276320000000  0.4555350000000  0.5195080000000 1.0
C      1  0.5050550000000  0.4470220000000  0.5355010000000 1.0
C      1  0.4773200000000  0.4496660000000  0.5276500000000 1.0
C      1  0.4634950000000  0.4317820000000  0.5095650000000 1.0
C      1  0.4531810000000  0.4392940000000  0.4835770000000 1.0
C      1  0.4626660000000  0.4287140000000  0.4583490000000 1.0
C      1  0.4860370000000  0.4382520000000  0.4441800000000 1.0
C      1  0.5042200000000  0.4586730000000  0.4540430000000 1.0
C      1  0.5329590000000  0.4548210000000  0.4519780000000 1.0
C      1  0.5503480000000  0.4480550000000  0.4741120000000 1.0
C      1  0.5375280000000  0.5072670000000  0.5517660000000 1.0
C      1  0.5169140000000  0.4954380000000  0.5682520000000 1.0
C      1  0.4898480000000  0.4899620000000  0.5594700000000 1.0
C      1  0.4779920000000  0.5001720000000  0.5350580000000 1.0
C      1  0.4582970000000  0.4861230000000  0.5191030000000 1.0
C      1  0.4502990000000  0.4936720000000  0.4922850000000 1.0
C      1  0.4648660000000  0.4869220000000  0.4681780000000 1.0
C      1  0.4935840000000  0.4826780000000  0.4668040000000 1.0
C      1  0.5116020000000  0.5015790000000  0.4797210000000 1.0
C      1  0.5250410000000  0.4946920000000  0.5045410000000 1.0
C      1  0.5343060000000  0.5143450000000  0.5238440000000 1.0
END
