TITL C-862501-1041-1481 2011909.75164174 125000 -906.620340211599 0 0 159 (C2) n - 1
REM
REM in /home/nfs/bkarasulu/CARBON/AIRSS/Generating-Clusters/TERSOFF/Higher-Symm/FIRE-HFTN
REM
REM
REM
REM
REM
REM ./C.cell (b20cbc046b6831c77cfcea5457e17084)
REM AIRSS Version 0.9.1 bugfix July 2018 build 013d7b7c2542+ Fri, 06 Jul 2018 19:26:36 +0100
REM compiler GCC version 9.2.1 20190827 (Red Hat 9.2.1-1)
REM options -cpp -mtune=generic -march=x86-64 -g -O0 -fpre-include=/usr/include/finclude/math-vector-fortran.h
REM seed 1127352989 -474378895 1745564678 -1761384604 -1574567514 -1603874422 -1557876400 2063145705 -108025966 170842859 -79602819 -1325279576 467946817 1706170546 1360722396 -2092058395 -769840340 -1441450969 1644406445 -1366192291 657845888 1825995591 -852760055 -2094866952 2006614945 -432747237 555144898 1343737490 -1100970949 733994309 244855837 -632721764 1622689244
REM
CELL 1.54180   50.00000   50.00000   50.00000   90.00000   90.00000   90.00000
LATT -1
SFAC C  
C      1  0.4949740000000  0.5763090000000  0.4715680000000 1.0
C      1  0.5056140000000  0.5705990000000  0.5340280000000 1.0
C      1  0.5056150000000  0.4292590000000  0.4656200000000 1.0
C      1  0.4949720000000  0.4235470000000  0.5280780000000 1.0
C      1  0.5309450000000  0.4361510000000  0.4778020000000 1.0
C      1  0.4679840000000  0.4330630000000  0.5193230000000 1.0
C      1  0.4679860000000  0.5667930000000  0.4803240000000 1.0
C      1  0.5309440000000  0.5637060000000  0.5218450000000 1.0
C      1  0.5698380000000  0.4707440000000  0.5372170000000 1.0
C      1  0.4302160000000  0.4707770000000  0.4617450000000 1.0
C      1  0.4302180000000  0.5290800000000  0.5379040000000 1.0
C      1  0.5698390000000  0.5291120000000  0.4624300000000 1.0
C      1  0.4169290000000  0.5183130000000  0.4567470000000 1.0
C      1  0.5842930000000  0.5185860000000  0.5435840000000 1.0
C      1  0.5842950000000  0.4812690000000  0.4560620000000 1.0
C      1  0.4169290000000  0.4815440000000  0.5429020000000 1.0
C      1  0.4965390000000  0.4017520000000  0.4647130000000 1.0
C      1  0.5000920000000  0.3959890000000  0.5357250000000 1.0
C      1  0.5000940000000  0.6038680000000  0.4639230000000 1.0
C      1  0.4965400000000  0.5981060000000  0.5349380000000 1.0
C      1  0.5302230000000  0.5890460000000  0.4257730000000 1.0
C      1  0.4669250000000  0.5888500000000  0.5743140000000 1.0
C      1  0.4669220000000  0.4110070000000  0.4253370000000 1.0
C      1  0.5302220000000  0.4108100000000  0.5738740000000 1.0
C      1  0.5268360000000  0.5299330000000  0.3973680000000 1.0
C      1  0.4718200000000  0.5305650000000  0.6034420000000 1.0
C      1  0.4718190000000  0.4692920000000  0.3962080000000 1.0
C      1  0.5268360000000  0.4699240000000  0.6022790000000 1.0
C      1  0.4397590000000  0.5743750000000  0.5120000000000 1.0
C      1  0.5569970000000  0.5731980000000  0.4893240000000 1.0
C      1  0.5569960000000  0.4266580000000  0.5103240000000 1.0
C      1  0.4397540000000  0.4254810000000  0.4876490000000 1.0
C      1  0.5159060000000  0.4804350000000  0.4362440000000 1.0
C      1  0.4877890000000  0.4770520000000  0.5557110000000 1.0
C      1  0.4877880000000  0.5228030000000  0.4439350000000 1.0
C      1  0.5159040000000  0.5194250000000  0.5634040000000 1.0
C      1  0.5311100000000  0.4790020000000  0.3682100000000 1.0
C      1  0.5092380000000  0.5055280000000  0.6425590000000 1.0
C      1  0.5092070000000  0.4943390000000  0.3571130000000 1.0
C      1  0.5311280000000  0.5208720000000  0.6314430000000 1.0
C      1  0.5144670000000  0.5766140000000  0.4051270000000 1.0
C      1  0.4834450000000  0.5774810000000  0.5952580000000 1.0
C      1  0.4834430000000  0.4223760000000  0.4043930000000 1.0
C      1  0.5144680000000  0.4232430000000  0.5945200000000 1.0
C      1  0.5758020000000  0.5271470000000  0.5721000000000 1.0
C      1  0.4235240000000  0.5261160000000  0.4279150000000 1.0
C      1  0.4235250000000  0.4737410000000  0.5717340000000 1.0
C      1  0.5758020000000  0.4727090000000  0.4275460000000 1.0
C      1  0.4789250000000  0.4806220000000  0.4860550000000 1.0
C      1  0.5168770000000  0.4859930000000  0.5168140000000 1.0
C      1  0.5168770000000  0.5138640000000  0.4828320000000 1.0
C      1  0.4789260000000  0.5192370000000  0.5135900000000 1.0
C      1  0.5503440000000  0.5230310000000  0.4134090000000 1.0
C      1  0.4482670000000  0.5238500000000  0.5869750000000 1.0
C      1  0.4482650000000  0.4760070000000  0.4126740000000 1.0
C      1  0.5503440000000  0.4768250000000  0.5862390000000 1.0
C      1  0.5749970000000  0.4313900000000  0.4610580000000 1.0
C      1  0.4231090000000  0.4313720000000  0.5382340000000 1.0
C      1  0.4231110000000  0.5684850000000  0.4614150000000 1.0
C      1  0.5749960000000  0.5684650000000  0.5385880000000 1.0
C      1  0.5190750000000  0.4587110000000  0.4145760000000 1.0
C      1  0.4812890000000  0.4600000000000  0.5810180000000 1.0
C      1  0.4812880000000  0.5398560000000  0.4186280000000 1.0
C      1  0.5190760000000  0.5411460000000  0.5850740000000 1.0
C      1  0.4568250000000  0.5382870000000  0.4782020000000 1.0
C      1  0.5430270000000  0.5369200000000  0.5237340000000 1.0
C      1  0.5430290000000  0.4629370000000  0.4759130000000 1.0
C      1  0.4568230000000  0.4615690000000  0.5214460000000 1.0
C      1  0.5608630000000  0.4995950000000  0.5441460000000 1.0
C      1  0.4406140000000  0.4995470000000  0.4563470000000 1.0
C      1  0.4406140000000  0.5003100000000  0.5433010000000 1.0
C      1  0.5608660000000  0.5002610000000  0.4555010000000 1.0
C      1  0.5380520000000  0.3983240000000  0.4594040000000 1.0
C      1  0.4583860000000  0.3976520000000  0.5402410000000 1.0
C      1  0.4583880000000  0.6022050000000  0.4594070000000 1.0
C      1  0.5380530000000  0.6015330000000  0.5402440000000 1.0
C      1  0.4810090000000  0.4733340000000  0.4585070000000 1.0
C      1  0.5108650000000  0.4697680000000  0.5395350000000 1.0
C      1  0.5108650000000  0.5300880000000  0.4601090000000 1.0
C      1  0.4810090000000  0.5265230000000  0.5411380000000 1.0
C      1  0.4649090000000  0.5221890000000  0.4012260000000 1.0
C      1  0.5365210000000  0.5238590000000  0.6031160000000 1.0
C      1  0.5365180000000  0.4760000000000  0.3965320000000 1.0
C      1  0.4649110000000  0.4776680000000  0.5984200000000 1.0
C      1  0.3928260000000  0.5032160000000  0.4668990000000 1.0
C      1  0.6081360000000  0.5029470000000  0.5330560000000 1.0
C      1  0.6081370000000  0.4969090000000  0.4665910000000 1.0
C      1  0.3928270000000  0.4966430000000  0.5327510000000 1.0
C      1  0.4424000000000  0.4135870000000  0.5189770000000 1.0
C      1  0.5544320000000  0.4148270000000  0.4797590000000 1.0
C      1  0.5544310000000  0.5850300000000  0.5198880000000 1.0
C      1  0.4424030000000  0.5862690000000  0.4806710000000 1.0
C      1  0.5909700000000  0.5276810000000  0.4917040000000 1.0
C      1  0.4096880000000  0.5277910000000  0.5082710000000 1.0
C      1  0.4096870000000  0.4720670000000  0.4913780000000 1.0
C      1  0.5909690000000  0.4721740000000  0.5079440000000 1.0
C      1  0.5657220000000  0.4434120000000  0.4326430000000 1.0
C      1  0.4333100000000  0.4441370000000  0.5664990000000 1.0
C      1  0.4333100000000  0.5557200000000  0.4331500000000 1.0
C      1  0.5657220000000  0.5564440000000  0.5670030000000 1.0
C      1  0.6030730000000  0.4472130000000  0.4986830000000 1.0
C      1  0.3973400000000  0.4471190000000  0.5003960000000 1.0
C      1  0.3973430000000  0.5527400000000  0.4992540000000 1.0
C      1  0.6030740000000  0.5526410000000  0.5009660000000 1.0
C      1  0.4795970000000  0.6074690000000  0.5559970000000 1.0
C      1  0.5174370000000  0.6099750000000  0.4417350000000 1.0
C      1  0.5174360000000  0.3898820000000  0.5579130000000 1.0
C      1  0.4795940000000  0.3923900000000  0.4436550000000 1.0
C      1  0.4460010000000  0.5465960000000  0.5178300000000 1.0
C      1  0.5534840000000  0.5449200000000  0.4839030000000 1.0
C      1  0.5534820000000  0.4549360000000  0.5157450000000 1.0
C      1  0.4459980000000  0.4532600000000  0.4818180000000 1.0
C      1  0.5378870000000  0.5636040000000  0.5751050000000 1.0
C      1  0.4615460000000  0.5627300000000  0.4263910000000 1.0
C      1  0.4615460000000  0.4371260000000  0.5732570000000 1.0
C      1  0.5378850000000  0.4362520000000  0.4245430000000 1.0
C      1  0.5153420000000  0.4421380000000  0.5359450000000 1.0
C      1  0.4917480000000  0.4485700000000  0.4490930000000 1.0
C      1  0.4917490000000  0.5512850000000  0.5505550000000 1.0
C      1  0.5153430000000  0.5577180000000  0.4636980000000 1.0
C      1  0.5579340000000  0.5083040000000  0.5892930000000 1.0
C      1  0.4419060000000  0.5072830000000  0.4112980000000 1.0
C      1  0.4419080000000  0.4925750000000  0.5883500000000 1.0
C      1  0.5579330000000  0.4915530000000  0.4103550000000 1.0
C      1  0.5276620000000  0.4107080000000  0.4349810000000 1.0
C      1  0.4707290000000  0.4110360000000  0.5632440000000 1.0
C      1  0.4707300000000  0.5888210000000  0.4364040000000 1.0
C      1  0.5276630000000  0.5891480000000  0.5646670000000 1.0
C      1  0.5345730000000  0.5149530000000  0.5414880000000 1.0
C      1  0.4662190000000  0.5150140000000  0.4625680000000 1.0
C      1  0.4662190000000  0.4848420000000  0.5370780000000 1.0
C      1  0.5345750000000  0.4849050000000  0.4581600000000 1.0
C      1  0.5067560000000  0.5490160000000  0.4051030000000 1.0
C      1  0.4920130000000  0.5499610000000  0.5962220000000 1.0
C      1  0.4920110000000  0.4498960000000  0.4034290000000 1.0
C      1  0.5067560000000  0.4508410000000  0.5945440000000 1.0
C      1  0.3978050000000  0.4770450000000  0.4515160000000 1.0
C      1  0.6021360000000  0.4767100000000  0.5480630000000 1.0
C      1  0.6021380000000  0.5231460000000  0.4515850000000 1.0
C      1  0.3978080000000  0.5228140000000  0.5481340000000 1.0
C      1  0.5613800000000  0.4122110000000  0.5351850000000 1.0
C      1  0.4338690000000  0.4120870000000  0.4621910000000 1.0
C      1  0.4338740000000  0.5877700000000  0.5374570000000 1.0
C      1  0.5613790000000  0.5876450000000  0.4644630000000 1.0
C      1  0.4276550000000  0.4589490000000  0.5269460000000 1.0
C      1  0.5725310000000  0.4593240000000  0.4725210000000 1.0
C      1  0.5725290000000  0.5405320000000  0.5271250000000 1.0
C      1  0.4276560000000  0.5409080000000  0.4727030000000 1.0
C      1  0.5534420000000  0.4251100000000  0.5611960000000 1.0
C      1  0.4430120000000  0.4253360000000  0.4364470000000 1.0
C      1  0.4430160000000  0.5745210000000  0.5632020000000 1.0
C      1  0.5534420000000  0.5747460000000  0.4384520000000 1.0
C      1  0.4389540000000  0.5429880000000  0.5644400000000 1.0
C      1  0.5594670000000  0.5428530000000  0.4362490000000 1.0
C      1  0.5594670000000  0.4570040000000  0.5633990000000 1.0
C      1  0.4389510000000  0.4568690000000  0.4352090000000 1.0
C      1  0.6043930000000  0.4999270000000  0.4998240000000 1.0
C      1  0.3964230000000  0.4999290000000  0.4998250000000 1.0
C      1  0.4966070000000  0.4999290000000  0.4998230000000 1.0
END
