TITL C-862134-6730-387 0.12161261712137 125000 -726.764935499694 0 0 135 (C3) n - 1
REM
REM in /home/nfs/bkarasulu/CARBON/AIRSS/Generating-Clusters/TERSOFF/Higher-Symm/FIRE-HFTN
REM
REM
REM
REM
REM
REM ./C.cell (b20cbc046b6831c77cfcea5457e17084)
REM AIRSS Version 0.9.1 bugfix July 2018 build 013d7b7c2542+ Fri, 06 Jul 2018 19:26:36 +0100
REM compiler GCC version 9.2.1 20190827 (Red Hat 9.2.1-1)
REM options -cpp -mtune=generic -march=x86-64 -g -O0 -fpre-include=/usr/include/finclude/math-vector-fortran.h
REM seed -556905665 -1778308916 -1259593388 1960508889 -470812726 799232628 2075101461 -1987640832 1067909976 -2091604191 246079412 1308332463 -592976623 -590996301 -1396387496 -757929536 1047765348 -1068819890 1246860220 -2048052493 -961454017 426723283 -1551297097 1237303096 424669597 1228995011 1912002971 -671465842 -1809424149 2004726690 1595062748 885884334 2144352251
REM
CELL 1.54180   50.00000   50.00000   50.00000   90.00000   90.00000   90.00000
LATT -1
SFAC C  
C      1  0.5393760000000  0.4410370000000  0.4351630000000 1.0
C      1  0.4292490000000  0.4953810000000  0.4351630000000 1.0
C      1  0.5313750000000  0.5635810000000  0.4351630000000 1.0
C      1  0.4577740000000  0.4551950000000  0.4124430000000 1.0
C      1  0.4823110000000  0.5589710000000  0.4124430000000 1.0
C      1  0.5599150000000  0.4858340000000  0.4124430000000 1.0
C      1  0.5069160000000  0.4084420000000  0.4622060000000 1.0
C      1  0.4172500000000  0.5397900000000  0.4622060000000 1.0
C      1  0.5758340000000  0.5517680000000  0.4622060000000 1.0
C      1  0.4572230000000  0.6022240000000  0.5487740000000 1.0
C      1  0.6099170000000  0.4859340000000  0.5487740000000 1.0
C      1  0.4328600000000  0.4118420000000  0.5487740000000 1.0
C      1  0.5995760000000  0.5085960000000  0.4622660000000 1.0
C      1  0.4576560000000  0.4094660000000  0.4622670000000 1.0
C      1  0.4427680000000  0.5819380000000  0.4622660000000 1.0
C      1  0.4863260000000  0.5864630000000  0.4646370000000 1.0
C      1  0.5817160000000  0.4686100000000  0.4646370000000 1.0
C      1  0.4319580000000  0.4449260000000  0.4646370000000 1.0
C      1  0.4466280000000  0.4598580000000  0.5459660000000 1.0
C      1  0.4919220000000  0.5662930000000  0.5459660000000 1.0
C      1  0.5614500000000  0.4738490000000  0.5459660000000 1.0
C      1  0.4826020000000  0.4531890000000  0.4538620000000 1.0
C      1  0.4681600000000  0.5384730000000  0.4538620000000 1.0
C      1  0.5492390000000  0.5083380000000  0.4538620000000 1.0
C      1  0.5298410000000  0.4879220000000  0.4460700000000 1.0
C      1  0.4746200000000  0.4801950000000  0.4460700000000 1.0
C      1  0.4955390000000  0.5318820000000  0.4460700000000 1.0
C      1  0.5675780000000  0.5651450000000  0.5167400000000 1.0
C      1  0.5226280000000  0.4089030000000  0.5167400000000 1.0
C      1  0.4097940000000  0.5259520000000  0.5167400000000 1.0
C      1  0.4976980000000  0.5754710000000  0.4373670000000 1.0
C      1  0.5665110000000  0.4642580000000  0.4373680000000 1.0
C      1  0.4357910000000  0.4602700000000  0.4373680000000 1.0
C      1  0.4983070000000  0.5393800000000  0.5320940000000 1.0
C      1  0.5349500000000  0.4817760000000  0.5320940000000 1.0
C      1  0.4667430000000  0.4788440000000  0.5320940000000 1.0
C      1  0.5267310000000  0.4798560000000  0.5021440000000 1.0
C      1  0.4691890000000  0.4869220000000  0.5021440000000 1.0
C      1  0.5040800000000  0.5332220000000  0.5021440000000 1.0
C      1  0.4655170000000  0.4379430000000  0.4728060000000 1.0
C      1  0.4634990000000  0.5608920000000  0.4728060000000 1.0
C      1  0.5709840000000  0.5011650000000  0.4728060000000 1.0
C      1  0.5408750000000  0.5654930000000  0.5016160000000 1.0
C      1  0.5362810000000  0.4318540000000  0.5016170000000 1.0
C      1  0.4228440000000  0.5026520000000  0.5016160000000 1.0
C      1  0.5077080000000  0.5988560000000  0.5174130000000 1.0
C      1  0.5817580000000  0.4438970000000  0.5174130000000 1.0
C      1  0.4105340000000  0.4572470000000  0.5174130000000 1.0
C      1  0.4702860000000  0.5373390000000  0.5733770000000 1.0
C      1  0.5471930000000  0.5070640000000  0.5733770000000 1.0
C      1  0.4825210000000  0.4555980000000  0.5733770000000 1.0
C      1  0.4443790000000  0.4868040000000  0.4060710000000 1.0
C      1  0.5163830000000  0.5547670000000  0.4060710000000 1.0
C      1  0.5392380000000  0.4584280000000  0.4060710000000 1.0
C      1  0.4634800000000  0.5736170000000  0.5510220000000 1.0
C      1  0.5820140000000  0.4948190000000  0.5510230000000 1.0
C      1  0.4545060000000  0.4315650000000  0.5510230000000 1.0
C      1  0.5336650000000  0.4458130000000  0.5845170000000 1.0
C      1  0.4362400000000  0.4979390000000  0.5845170000000 1.0
C      1  0.5300950000000  0.5562490000000  0.5845160000000 1.0
C      1  0.4891530000000  0.4670480000000  0.5483550000000 1.0
C      1  0.4768860000000  0.5258700000000  0.5483540000000 1.0
C      1  0.5339610000000  0.5070830000000  0.5483540000000 1.0
C      1  0.4558960000000  0.5555170000000  0.5273280000000 1.0
C      1  0.5701310000000  0.5104370000000  0.5273280000000 1.0
C      1  0.4739730000000  0.4340470000000  0.5273280000000 1.0
C      1  0.4284490000000  0.5724730000000  0.5005990000000 1.0
C      1  0.5985390000000  0.5257280000000  0.5005990000000 1.0
C      1  0.4730120000000  0.4017980000000  0.5005990000000 1.0
C      1  0.5003280000000  0.5187350000000  0.4204360000000 1.0
C      1  0.5160610000000  0.4903480000000  0.4204360000000 1.0
C      1  0.4836100000000  0.4909160000000  0.4204360000000 1.0
C      1  0.4935720000000  0.4267380000000  0.4845480000000 1.0
C      1  0.4397680000000  0.5421980000000  0.4845470000000 1.0
C      1  0.5666600000000  0.5310640000000  0.4845470000000 1.0
C      1  0.3978250000000  0.5331670000000  0.4872560000000 1.0
C      1  0.5798110000000  0.5719030000000  0.4872560000000 1.0
C      1  0.5223640000000  0.3949310000000  0.4872560000000 1.0
C      1  0.5696910000000  0.4473070000000  0.5445010000000 1.0
C      1  0.4195210000000  0.4659930000000  0.5445010000000 1.0
C      1  0.5107880000000  0.5867000000000  0.5445000000000 1.0
C      1  0.4866860000000  0.4726670000000  0.5963270000000 1.0
C      1  0.4829860000000  0.5251970000000  0.5963270000000 1.0
C      1  0.5303280000000  0.5021370000000  0.5963270000000 1.0
C      1  0.4246640000000  0.5509910000000  0.5256840000000 1.0
C      1  0.5818280000000  0.5397470000000  0.5256840000000 1.0
C      1  0.4935080000000  0.4092620000000  0.5256840000000 1.0
C      1  0.5187000000000  0.5457870000000  0.4583110000000 1.0
C      1  0.5303030000000  0.4609110000000  0.4583120000000 1.0
C      1  0.4509970000000  0.4933010000000  0.4583110000000 1.0
C      1  0.4888000000000  0.4478150000000  0.4126740000000 1.0
C      1  0.4604060000000  0.5357920000000  0.4126740000000 1.0
C      1  0.5507940000000  0.5163930000000  0.4126740000000 1.0
C      1  0.5135260000000  0.5278440000000  0.5969780000000 1.0
C      1  0.5173500000000  0.4743640000000  0.5969780000000 1.0
C      1  0.4691240000000  0.4977930000000  0.5969780000000 1.0
C      1  0.5649450000000  0.4311230000000  0.4969860000000 1.0
C      1  0.4078780000000  0.4781950000000  0.4969860000000 1.0
C      1  0.5271770000000  0.5906830000000  0.4969860000000 1.0
C      1  0.5105000000000  0.4656510000000  0.4005190000000 1.0
C      1  0.4650030000000  0.5080810000000  0.4005190000000 1.0
C      1  0.5244970000000  0.5262680000000  0.4005190000000 1.0
C      1  0.5157670000000  0.5947270000000  0.4709120000000 1.0
C      1  0.5741530000000  0.4389820000000  0.4709120000000 1.0
C      1  0.4100810000000  0.4662910000000  0.4709120000000 1.0
C      1  0.4593540000000  0.5065550000000  0.5379470000000 1.0
C      1  0.5260000000000  0.5319230000000  0.5379470000000 1.0
C      1  0.5146460000000  0.4615220000000  0.5379470000000 1.0
C      1  0.5315850000000  0.5404850000000  0.4867500000000 1.0
C      1  0.5192680000000  0.4524040000000  0.4867500000000 1.0
C      1  0.4491460000000  0.5071110000000  0.4867500000000 1.0
C      1  0.5894210000000  0.4705510000000  0.4999250000000 1.0
C      1  0.4297860000000  0.4372830000000  0.4999250000000 1.0
C      1  0.4807930000000  0.5921660000000  0.4999250000000 1.0
C      1  0.5490150000000  0.4310820000000  0.5579990000000 1.0
C      1  0.4158070000000  0.4920110000000  0.5579990000000 1.0
C      1  0.5351770000000  0.5769080000000  0.5579990000000 1.0
C      1  0.5860660000000  0.5383370000000  0.5568850000000 1.0
C      1  0.4901680000000  0.4062970000000  0.5568850000000 1.0
C      1  0.4237670000000  0.5553670000000  0.5568850000000 1.0
C      1  0.5382290000000  0.4074130000000  0.5433720000000 1.0
C      1  0.4007030000000  0.5131870000000  0.5433710000000 1.0
C      1  0.5610680000000  0.5794010000000  0.5433710000000 1.0
C      1  0.4483180000000  0.5955660000000  0.5034380000000 1.0
C      1  0.6086030000000  0.4969750000000  0.5034380000000 1.0
C      1  0.4430790000000  0.4074590000000  0.5034390000000 1.0
C      1  0.5546350000000  0.5370480000000  0.4384790000000 1.0
C      1  0.5047670000000  0.4341610000000  0.4384790000000 1.0
C      1  0.4405980000000  0.5287910000000  0.4384790000000 1.0
C      1  0.4604710000000  0.4456820000000  0.5035080000000 1.0
C      1  0.4727240000000  0.5613920000000  0.5035080000000 1.0
C      1  0.5668050000000  0.4929260000000  0.5035080000000 1.0
C      1  0.4743980000000  0.4266790000000  0.5737300000000 1.0
C      1  0.4493030000000  0.5588330000000  0.5737290000000 1.0
C      1  0.5762990000000  0.5144890000000  0.5737300000000 1.0
END
