TITL C-862506-1665-1213 -0.00586206754676106 125000 -793.357817866054 0 0 147 (Ci) n - 1
REM
REM in /home/nfs/bkarasulu/CARBON/AIRSS/Generating-Clusters/TERSOFF/Higher-Symm/FIRE-HFTN
REM
REM
REM
REM
REM
REM ./C.cell (b20cbc046b6831c77cfcea5457e17084)
REM AIRSS Version 0.9.1 bugfix July 2018 build 013d7b7c2542+ Fri, 06 Jul 2018 19:26:36 +0100
REM compiler GCC version 9.2.1 20190827 (Red Hat 9.2.1-1)
REM options -cpp -mtune=generic -march=x86-64 -g -O0 -fpre-include=/usr/include/finclude/math-vector-fortran.h
REM seed -616952662 -1532724971 -1995897371 282092254 505796530 -1070667197 639404372 -177666884 -1905534441 1205775843 1856809033 -688838092 -1206138241 -401514191 -1124725699 -260081799 1599854891 -1772940649 848112759 381869427 1068117395 -2076261873 -1077292272 1655443080 397559660 1953541417 596944231 -1311185482 -1740090953 1456195986 1890395309 1355605083 861918148
REM
CELL 1.54180   50.00000   50.00000   50.00000   90.00000   90.00000   90.00000
LATT -1
SFAC C  
C      1  0.5172500000000  0.4390350000000  0.4729210000000 1.0
C      1  0.4826470000000  0.5614050000000  0.5277290000000 1.0
C      1  0.4905240000000  0.5075820000000  0.6055700000000 1.0
C      1  0.5093730000000  0.4928570000000  0.3950800000000 1.0
C      1  0.5287550000000  0.4448080000000  0.4455510000000 1.0
C      1  0.4711420000000  0.5556310000000  0.5550990000000 1.0
C      1  0.4553170000000  0.5408030000000  0.5967040000000 1.0
C      1  0.5445800000000  0.4596370000000  0.4039460000000 1.0
C      1  0.5598220000000  0.5850620000000  0.5101970000000 1.0
C      1  0.4400750000000  0.4153770000000  0.4904530000000 1.0
C      1  0.5801870000000  0.4939240000000  0.5716920000000 1.0
C      1  0.4197100000000  0.5065150000000  0.4289580000000 1.0
C      1  0.5444370000000  0.5383310000000  0.5364390000000 1.0
C      1  0.4554600000000  0.4621090000000  0.4642110000000 1.0
C      1  0.5779480000000  0.5386980000000  0.5212910000000 1.0
C      1  0.4219490000000  0.4617410000000  0.4793590000000 1.0
C      1  0.4855900000000  0.4525900000000  0.4829950000000 1.0
C      1  0.5143070000000  0.5478500000000  0.5176550000000 1.0
C      1  0.5383720000000  0.4687640000000  0.5949090000000 1.0
C      1  0.4615250000000  0.5316750000000  0.4057410000000 1.0
C      1  0.4825870000000  0.5366570000000  0.6065900000000 1.0
C      1  0.5173100000000  0.4637820000000  0.3940600000000 1.0
C      1  0.6117800000000  0.4920500000000  0.5054400000000 1.0
C      1  0.3881170000000  0.5083900000000  0.4952090000000 1.0
C      1  0.5714870000000  0.4567150000000  0.5238630000000 1.0
C      1  0.4284090000000  0.5437250000000  0.4767870000000 1.0
C      1  0.5867500000000  0.4718610000000  0.5486160000000 1.0
C      1  0.4131470000000  0.5285780000000  0.4520340000000 1.0
C      1  0.4363780000000  0.5824070000000  0.5150560000000 1.0
C      1  0.5635190000000  0.4180330000000  0.4855940000000 1.0
C      1  0.5029440000000  0.5570300000000  0.5944610000000 1.0
C      1  0.4969530000000  0.4434090000000  0.4061890000000 1.0
C      1  0.4875800000000  0.4701580000000  0.5073200000000 1.0
C      1  0.5123170000000  0.5302810000000  0.4933300000000 1.0
C      1  0.4152700000000  0.4762570000000  0.4326670000000 1.0
C      1  0.5846270000000  0.5241830000000  0.5679830000000 1.0
C      1  0.4072260000000  0.4934840000000  0.4742100000000 1.0
C      1  0.5926700000000  0.5069550000000  0.5264400000000 1.0
C      1  0.4659340000000  0.5813870000000  0.5120500000000 1.0
C      1  0.5339630000000  0.4190530000000  0.4886000000000 1.0
C      1  0.5122320000000  0.4098940000000  0.5500520000000 1.0
C      1  0.4876650000000  0.5905450000000  0.4505980000000 1.0
C      1  0.5803000000000  0.5688200000000  0.5221230000000 1.0
C      1  0.4195970000000  0.4316200000000  0.4785270000000 1.0
C      1  0.5491290000000  0.5761620000000  0.4842020000000 1.0
C      1  0.4507680000000  0.4242780000000  0.5164480000000 1.0
C      1  0.4610120000000  0.5255780000000  0.4534620000000 1.0
C      1  0.5388850000000  0.4748620000000  0.5471880000000 1.0
C      1  0.4457230000000  0.5516420000000  0.4390980000000 1.0
C      1  0.5541730000000  0.4487980000000  0.5615520000000 1.0
C      1  0.4993780000000  0.4043300000000  0.4444920000000 1.0
C      1  0.5005190000000  0.5961100000000  0.5561580000000 1.0
C      1  0.4832910000000  0.5198540000000  0.5216990000000 1.0
C      1  0.5166060000000  0.4805850000000  0.4789510000000 1.0
C      1  0.4743100000000  0.4868130000000  0.5534910000000 1.0
C      1  0.5255870000000  0.5136260000000  0.4471590000000 1.0
C      1  0.5150160000000  0.5728520000000  0.4417500000000 1.0
C      1  0.4848810000000  0.4275880000000  0.5589000000000 1.0
C      1  0.4563050000000  0.4859700000000  0.4843170000000 1.0
C      1  0.5435920000000  0.5144700000000  0.5163330000000 1.0
C      1  0.5451650000000  0.4243470000000  0.5286230000000 1.0
C      1  0.4547320000000  0.5760930000000  0.4720270000000 1.0
C      1  0.5029930000000  0.4938780000000  0.5572420000000 1.0
C      1  0.4969040000000  0.5065620000000  0.4434080000000 1.0
C      1  0.5865080000000  0.4433070000000  0.4973870000000 1.0
C      1  0.4133890000000  0.5571330000000  0.5032630000000 1.0
C      1  0.5433790000000  0.5084650000000  0.5578410000000 1.0
C      1  0.4565180000000  0.4919750000000  0.4428090000000 1.0
C      1  0.4113820000000  0.5593520000000  0.5395620000000 1.0
C      1  0.5885140000000  0.4410870000000  0.4610870000000 1.0
C      1  0.5471970000000  0.5616440000000  0.4402210000000 1.0
C      1  0.4527000000000  0.4387960000000  0.5604290000000 1.0
C      1  0.4616080000000  0.4852350000000  0.4121730000000 1.0
C      1  0.5382890000000  0.5152050000000  0.5884770000000 1.0
C      1  0.4522920000000  0.5014820000000  0.5694430000000 1.0
C      1  0.5476050000000  0.4989570000000  0.4312070000000 1.0
C      1  0.5021500000000  0.4766920000000  0.4506900000000 1.0
C      1  0.4977470000000  0.5237480000000  0.5499600000000 1.0
C      1  0.5768850000000  0.4123320000000  0.4581650000000 1.0
C      1  0.4230120000000  0.5881070000000  0.5424850000000 1.0
C      1  0.4958730000000  0.4089210000000  0.5030950000000 1.0
C      1  0.5040240000000  0.5915190000000  0.4975550000000 1.0
C      1  0.5619190000000  0.5452550000000  0.5655220000000 1.0
C      1  0.4379780000000  0.4551850000000  0.4351280000000 1.0
C      1  0.5513560000000  0.4666410000000  0.4328980000000 1.0
C      1  0.4485410000000  0.5337990000000  0.5677520000000 1.0
C      1  0.4566800000000  0.4708060000000  0.5143140000000 1.0
C      1  0.5432170000000  0.5296340000000  0.4863360000000 1.0
C      1  0.5033800000000  0.4523560000000  0.5247580000000 1.0
C      1  0.4965170000000  0.5480840000000  0.4758920000000 1.0
C      1  0.4654800000000  0.4532890000000  0.4119170000000 1.0
C      1  0.5344170000000  0.5471510000000  0.5887330000000 1.0
C      1  0.4562080000000  0.5800990000000  0.4414790000000 1.0
C      1  0.5436890000000  0.4203410000000  0.5591710000000 1.0
C      1  0.4794080000000  0.4568490000000  0.4418740000000 1.0
C      1  0.5204890000000  0.5435910000000  0.5587760000000 1.0
C      1  0.5141470000000  0.5971190000000  0.5275430000000 1.0
C      1  0.4857500000000  0.4033210000000  0.4731070000000 1.0
C      1  0.5428340000000  0.6006070000000  0.5272180000000 1.0
C      1  0.4570630000000  0.3998320000000  0.4734320000000 1.0
C      1  0.4807620000000  0.4257280000000  0.5228890000000 1.0
C      1  0.5191350000000  0.5747120000000  0.4777610000000 1.0
C      1  0.5740110000000  0.5168550000000  0.4434980000000 1.0
C      1  0.4258860000000  0.4835840000000  0.5571520000000 1.0
C      1  0.5579090000000  0.4910970000000  0.5932130000000 1.0
C      1  0.4419880000000  0.5093430000000  0.4074370000000 1.0
C      1  0.4198920000000  0.5381670000000  0.5579560000000 1.0
C      1  0.5800050000000  0.4622730000000  0.4426940000000 1.0
C      1  0.5667260000000  0.4974130000000  0.5146490000000 1.0
C      1  0.4331710000000  0.5030270000000  0.4860010000000 1.0
C      1  0.4664590000000  0.4615770000000  0.5425210000000 1.0
C      1  0.5334380000000  0.5388620000000  0.4581290000000 1.0
C      1  0.5385650000000  0.4544770000000  0.5202820000000 1.0
C      1  0.4613320000000  0.5459630000000  0.4803680000000 1.0
C      1  0.5946000000000  0.4727360000000  0.4887400000000 1.0
C      1  0.4052970000000  0.5277040000000  0.5119100000000 1.0
C      1  0.5101330000000  0.4289210000000  0.4294740000000 1.0
C      1  0.4897640000000  0.5715190000000  0.5711760000000 1.0
C      1  0.5669400000000  0.4843920000000  0.4873790000000 1.0
C      1  0.4329570000000  0.5160480000000  0.5132710000000 1.0
C      1  0.4046020000000  0.4638070000000  0.5089590000000 1.0
C      1  0.5952950000000  0.5366330000000  0.4916910000000 1.0
C      1  0.5603920000000  0.5086160000000  0.4716490000000 1.0
C      1  0.4395050000000  0.4918240000000  0.5290010000000 1.0
C      1  0.5416750000000  0.4680820000000  0.4907660000000 1.0
C      1  0.4582220000000  0.5323580000000  0.5098840000000 1.0
C      1  0.5175750000000  0.4658100000000  0.5730470000000 1.0
C      1  0.4823220000000  0.5346290000000  0.4276030000000 1.0
C      1  0.4372020000000  0.4602680000000  0.5751180000000 1.0
C      1  0.5626950000000  0.5401710000000  0.4255320000000 1.0
C      1  0.4799750000000  0.5043430000000  0.4752640000000 1.0
C      1  0.5199220000000  0.4960960000000  0.5253850000000 1.0
C      1  0.4768710000000  0.5961850000000  0.4854030000000 1.0
C      1  0.5230260000000  0.4042540000000  0.5152470000000 1.0
C      1  0.5113660000000  0.5438320000000  0.4204580000000 1.0
C      1  0.4885310000000  0.4566080000000  0.5801920000000 1.0
C      1  0.5663550000000  0.5674910000000  0.4627020000000 1.0
C      1  0.4335420000000  0.4329480000000  0.5379480000000 1.0
C      1  0.4167330000000  0.4570590000000  0.5348330000000 1.0
C      1  0.5831640000000  0.5433800000000  0.4658170000000 1.0
C      1  0.6173940000000  0.5177250000000  0.4919090000000 1.0
C      1  0.3825030000000  0.4827150000000  0.5087410000000 1.0
C      1  0.5109470000000  0.5053250000000  0.5853120000000 1.0
C      1  0.4889500000000  0.4951150000000  0.4153380000000 1.0
C      1  0.5289750000000  0.5160000000000  0.4054620000000 1.0
C      1  0.4709220000000  0.4844400000000  0.5951880000000 1.0
C      1  0.4999480000000  0.5002200000000  0.5003250000000 1.0
END
