TITL C-862134-6730-1281 2.40657982950179e-05 125000 -362.779007784439 0 0 66 (C1) n - 1
REM
REM in /home/nfs/bkarasulu/CARBON/AIRSS/Generating-Clusters/TERSOFF/Higher-Symm/FIRE-HFTN
REM
REM
REM
REM
REM
REM ./C.cell (b20cbc046b6831c77cfcea5457e17084)
REM AIRSS Version 0.9.1 bugfix July 2018 build 013d7b7c2542+ Fri, 06 Jul 2018 19:26:36 +0100
REM compiler GCC version 9.2.1 20190827 (Red Hat 9.2.1-1)
REM options -cpp -mtune=generic -march=x86-64 -g -O0 -fpre-include=/usr/include/finclude/math-vector-fortran.h
REM seed 394973294 -133883237 1161847005 1938261039 1344291347 1837406526 342899496 -1202705063 1086058133 277025617 -1041317936 695596028 -643471966 1619028676 2019178915 -1708167872 1724497553 2126718527 -2077661234 1835110466 -995733528 -1170040014 -498734375 -546151330 2004044753 -1634764860 -469334493 36840733 -965408812 -144917941 -1365889702 -1206167102 122512144
REM
CELL 1.54180   50.00000   50.00000   50.00000   90.00000   90.00000   90.00000
LATT -1
SFAC C  
C      1  0.4802990000000  0.4836520000000  0.5704550000000 1.0
C      1  0.5100310000000  0.4768940000000  0.5717670000000 1.0
C      1  0.5256510000000  0.5032270000000  0.5717170000000 1.0
C      1  0.5053100000000  0.5259530000000  0.5704540000000 1.0
C      1  0.4772110000000  0.5140050000000  0.5712670000000 1.0
C      1  0.4606490000000  0.4926020000000  0.4449270000000 1.0
C      1  0.4914280000000  0.4573900000000  0.4428560000000 1.0
C      1  0.5346210000000  0.4830020000000  0.4453630000000 1.0
C      1  0.5282180000000  0.5322900000000  0.4439520000000 1.0
C      1  0.4818570000000  0.5370740000000  0.4443360000000 1.0
C      1  0.5139150000000  0.4772950000000  0.5050990000000 1.0
C      1  0.5262480000000  0.5072710000000  0.5046690000000 1.0
C      1  0.5023140000000  0.5278180000000  0.5032100000000 1.0
C      1  0.4759420000000  0.5104530000000  0.5044180000000 1.0
C      1  0.4825210000000  0.4795280000000  0.5033250000000 1.0
C      1  0.5066710000000  0.5495560000000  0.4560730000000 1.0
C      1  0.4726650000000  0.5142320000000  0.4627230000000 1.0
C      1  0.4652370000000  0.4650400000000  0.4561020000000 1.0
C      1  0.5129950000000  0.4674430000000  0.4622600000000 1.0
C      1  0.5337250000000  0.5093040000000  0.4627320000000 1.0
C      1  0.5535750000000  0.5549970000000  0.5362660000000 1.0
C      1  0.4647560000000  0.5680130000000  0.5374840000000 1.0
C      1  0.4244590000000  0.4881730000000  0.5344540000000 1.0
C      1  0.4880800000000  0.4250880000000  0.5377200000000 1.0
C      1  0.5677980000000  0.4663250000000  0.5349770000000 1.0
C      1  0.5199710000000  0.4420890000000  0.5379720000000 1.0
C      1  0.5615380000000  0.5017170000000  0.5372340000000 1.0
C      1  0.5178510000000  0.5597370000000  0.5367730000000 1.0
C      1  0.4494050000000  0.5353290000000  0.5368760000000 1.0
C      1  0.4502830000000  0.4631490000000  0.5363660000000 1.0
C      1  0.5675830000000  0.5305880000000  0.5466090000000 1.0
C      1  0.4924190000000  0.5735360000000  0.5476120000000 1.0
C      1  0.4273220000000  0.5157850000000  0.5454060000000 1.0
C      1  0.4624100000000  0.4370140000000  0.5474320000000 1.0
C      1  0.5495290000000  0.4455180000000  0.5462960000000 1.0
C      1  0.4742790000000  0.5170970000000  0.5379250000000 1.0
C      1  0.4758150000000  0.4809940000000  0.5373620000000 1.0
C      1  0.5107850000000  0.4716810000000  0.5386220000000 1.0
C      1  0.5305560000000  0.5019640000000  0.5385060000000 1.0
C      1  0.5079960000000  0.5302000000000  0.5373160000000 1.0
C      1  0.5542330000000  0.5617730000000  0.5050780000000 1.0
C      1  0.4594010000000  0.5702750000000  0.5062120000000 1.0
C      1  0.4208950000000  0.4834810000000  0.5028340000000 1.0
C      1  0.4911750000000  0.4194150000000  0.5066630000000 1.0
C      1  0.5732850000000  0.4674870000000  0.5032420000000 1.0
C      1  0.4460950000000  0.5433280000000  0.5064400000000 1.0
C      1  0.4412160000000  0.4612620000000  0.5055480000000 1.0
C      1  0.5180030000000  0.4328200000000  0.5075910000000 1.0
C      1  0.5689410000000  0.4973120000000  0.5066510000000 1.0
C      1  0.5244260000000  0.5673320000000  0.5061000000000 1.0
C      1  0.4275710000000  0.5045760000000  0.4844320000000 1.0
C      1  0.4718530000000  0.4297670000000  0.4883970000000 1.0
C      1  0.5559490000000  0.4534320000000  0.4851930000000 1.0
C      1  0.5629950000000  0.5414750000000  0.4868640000000 1.0
C      1  0.4813370000000  0.5740640000000  0.4884890000000 1.0
C      1  0.4874620000000  0.5237210000000  0.4173570000000 1.0
C      1  0.4738700000000  0.4962000000000  0.4175590000000 1.0
C      1  0.4955260000000  0.4744250000000  0.4170630000000 1.0
C      1  0.5225140000000  0.4891240000000  0.4183180000000 1.0
C      1  0.5178840000000  0.5194680000000  0.4175470000000 1.0
C      1  0.5265660000000  0.4540300000000  0.4874190000000 1.0
C      1  0.5522400000000  0.5140550000000  0.4870910000000 1.0
C      1  0.5043770000000  0.5550950000000  0.4860820000000 1.0
C      1  0.4523010000000  0.5207280000000  0.4865400000000 1.0
C      1  0.4647250000000  0.4588080000000  0.4860160000000 1.0
C      1  0.5017190000000  0.4993280000000  0.4715430000000 1.0
END
