TITL C-862503-991-1025 51.2643895064663 125000 -939.308500495214 0 0 162 (Ci) n - 1
REM
REM in /home/nfs/bkarasulu/CARBON/AIRSS/Generating-Clusters/TERSOFF/Higher-Symm/FIRE-HFTN
REM
REM
REM
REM
REM
REM ./C.cell (b20cbc046b6831c77cfcea5457e17084)
REM AIRSS Version 0.9.1 bugfix July 2018 build 013d7b7c2542+ Fri, 06 Jul 2018 19:26:36 +0100
REM compiler GCC version 9.2.1 20190827 (Red Hat 9.2.1-1)
REM options -cpp -mtune=generic -march=x86-64 -g -O0 -fpre-include=/usr/include/finclude/math-vector-fortran.h
REM seed -535118351 -836598387 -1635266846 486369213 817588360 2130010000 -1195700113 -1018239828 -74510294 -1934548340 856964076 557946563 418266928 1860193492 -1599817785 -9949818 -1735677786 -224533737 4741555 -43074015 729278021 -871440742 -122165441 -636841291 1076913869 270937201 1005764094 -987999404 -913794011 -1367085732 -448311811 754904841 822564195
REM
CELL 1.54180   50.00000   50.00000   50.00000   90.00000   90.00000   90.00000
LATT -1
SFAC C  
C      1  0.4764650000000  0.5032030000000  0.4196450000000 1.0
C      1  0.5235350000000  0.4967970000000  0.5803550000000 1.0
C      1  0.4773850000000  0.4574940000000  0.6073490000000 1.0
C      1  0.5226150000000  0.5425060000000  0.3926510000000 1.0
C      1  0.4458220000000  0.4220990000000  0.4518290000000 1.0
C      1  0.5541780000000  0.5779010000000  0.5481710000000 1.0
C      1  0.4387220000000  0.4135140000000  0.5167590000000 1.0
C      1  0.5612780000000  0.5864860000000  0.4832410000000 1.0
C      1  0.4634790000000  0.4824190000000  0.6025590000000 1.0
C      1  0.5365210000000  0.5175810000000  0.3974410000000 1.0
C      1  0.4865220000000  0.4427690000000  0.4251640000000 1.0
C      1  0.5134780000000  0.5572310000000  0.5748360000000 1.0
C      1  0.4943340000000  0.5489940000000  0.4812680000000 1.0
C      1  0.5056660000000  0.4510060000000  0.5187320000000 1.0
C      1  0.6128050000000  0.5010010000000  0.5087120000000 1.0
C      1  0.3871940000000  0.4989990000000  0.4912880000000 1.0
C      1  0.4153540000000  0.4839870000000  0.5674280000000 1.0
C      1  0.5846460000000  0.5160130000000  0.4325720000000 1.0
C      1  0.4719180000000  0.6110540000000  0.4862110000000 1.0
C      1  0.5280820000000  0.3889460000000  0.5137890000000 1.0
C      1  0.4180050000000  0.4157030000000  0.4938700000000 1.0
C      1  0.5819950000000  0.5842970000000  0.5061300000000 1.0
C      1  0.5566830000000  0.3891210000000  0.5035960000000 1.0
C      1  0.4433170000000  0.6108790000000  0.4964040000000 1.0
C      1  0.4508520000000  0.4390480000000  0.4267810000000 1.0
C      1  0.5491480000000  0.5609520000000  0.5732190000000 1.0
C      1  0.5528910000000  0.4357210000000  0.5055360000000 1.0
C      1  0.4471090000000  0.5642790000000  0.4944640000000 1.0
C      1  0.4818370000000  0.4587220000000  0.5045500000000 1.0
C      1  0.5181630000000  0.5412780000000  0.4954500000000 1.0
C      1  0.4402250000000  0.4532630000000  0.5034870000000 1.0
C      1  0.5597750000000  0.5467370000000  0.4965130000000 1.0
C      1  0.5777840000000  0.5703530000000  0.5325480000000 1.0
C      1  0.4222160000000  0.4296470000000  0.4674520000000 1.0
C      1  0.5358330000000  0.5615420000000  0.5054700000000 1.0
C      1  0.4641670000000  0.4384580000000  0.4945300000000 1.0
C      1  0.4252820000000  0.5863840000000  0.4948960000000 1.0
C      1  0.5747180000000  0.4136160000000  0.5051040000000 1.0
C      1  0.4331190000000  0.5569580000000  0.5705260000000 1.0
C      1  0.5668810000000  0.4430420000000  0.4294740000000 1.0
C      1  0.5085010000000  0.5634310000000  0.5458180000000 1.0
C      1  0.4914990000000  0.4365690000000  0.4541820000000 1.0
C      1  0.6089940000000  0.4778730000000  0.4585420000000 1.0
C      1  0.3910060000000  0.5221270000000  0.5414580000000 1.0
C      1  0.6002600000000  0.4239220000000  0.4897490000000 1.0
C      1  0.3997400000000  0.5760780000000  0.5102510000000 1.0
C      1  0.4632630000000  0.4321070000000  0.6083370000000 1.0
C      1  0.5367370000000  0.5678930000000  0.3916630000000 1.0
C      1  0.4977860000000  0.4318450000000  0.5422160000000 1.0
C      1  0.5022140000000  0.5681550000000  0.4577840000000 1.0
C      1  0.4402500000000  0.5223130000000  0.5413450000000 1.0
C      1  0.5597500000000  0.4776870000000  0.4586550000000 1.0
C      1  0.4969150000000  0.5169670000000  0.6212770000000 1.0
C      1  0.5030850000000  0.4830330000000  0.3787230000000 1.0
C      1  0.5193700000000  0.5007670000000  0.6092770000000 1.0
C      1  0.4806300000000  0.4992330000000  0.3907230000000 1.0
C      1  0.4544810000000  0.5198510000000  0.4725920000000 1.0
C      1  0.5455190000000  0.4801490000000  0.5274070000000 1.0
C      1  0.5337080000000  0.4784260000000  0.6231380000000 1.0
C      1  0.4662920000000  0.5215740000000  0.3768620000000 1.0
C      1  0.4684880000000  0.4705700000000  0.5447400000000 1.0
C      1  0.5315120000000  0.5294300000000  0.4552600000000 1.0
C      1  0.4943180000000  0.4984350000000  0.4775640000000 1.0
C      1  0.5056820000000  0.5015650000000  0.5224360000000 1.0
C      1  0.4952120000000  0.6028080000000  0.5037310000000 1.0
C      1  0.5047880000000  0.3971920000000  0.4962690000000 1.0
C      1  0.4252990000000  0.5331350000000  0.5859490000000 1.0
C      1  0.5747010000000  0.4668650000000  0.4140510000000 1.0
C      1  0.4718150000000  0.4005000000000  0.5105410000000 1.0
C      1  0.5281850000000  0.5995000000000  0.4894590000000 1.0
C      1  0.6156300000000  0.5007980000000  0.4781030000000 1.0
C      1  0.3843700000000  0.4992020000000  0.5218970000000 1.0
C      1  0.4149900000000  0.4605690000000  0.4618780000000 1.0
C      1  0.5850100000000  0.5394310000000  0.5381220000000 1.0
C      1  0.4892570000000  0.5984730000000  0.5330120000000 1.0
C      1  0.5107430000000  0.4015270000000  0.4669880000000 1.0
C      1  0.4908350000000  0.4557550000000  0.5577010000000 1.0
C      1  0.5091650000000  0.5442450000000  0.4422990000000 1.0
C      1  0.3888460000000  0.4704600000000  0.4778680000000 1.0
C      1  0.6111530000000  0.5295400000000  0.5221320000000 1.0
C      1  0.5147870000000  0.4502040000000  0.4691550000000 1.0
C      1  0.4852130000000  0.5497960000000  0.5308450000000 1.0
C      1  0.4711720000000  0.4080670000000  0.5936810000000 1.0
C      1  0.5288280000000  0.5919330000000  0.4063190000000 1.0
C      1  0.4060730000000  0.4610620000000  0.5502730000000 1.0
C      1  0.5939270000000  0.5389380000000  0.4497280000000 1.0
C      1  0.4150190000000  0.5310830000000  0.4318360000000 1.0
C      1  0.5849810000000  0.4689170000000  0.5681640000000 1.0
C      1  0.4765880000000  0.6116110000000  0.4577750000000 1.0
C      1  0.5234120000000  0.3883890000000  0.5422250000000 1.0
C      1  0.4844740000000  0.5327580000000  0.4258890000000 1.0
C      1  0.5155260000000  0.4672420000000  0.5741110000000 1.0
C      1  0.5343840000000  0.4645880000000  0.4492920000000 1.0
C      1  0.4656160000000  0.5354120000000  0.5507080000000 1.0
C      1  0.4218580000000  0.5037020000000  0.4260020000000 1.0
C      1  0.5781420000000  0.4962980000000  0.5739980000000 1.0
C      1  0.5499270000000  0.5096880000000  0.5678210000000 1.0
C      1  0.4500730000000  0.4903120000000  0.4321790000000 1.0
C      1  0.4450240000000  0.5682420000000  0.5271570000000 1.0
C      1  0.5549760000000  0.4317580000000  0.4728430000000 1.0
C      1  0.5227560000000  0.4420670000000  0.4976780000000 1.0
C      1  0.4772440000000  0.5579330000000  0.5023220000000 1.0
C      1  0.3868230000000  0.4693490000000  0.5292140000000 1.0
C      1  0.6131770000000  0.5306510000000  0.4707870000000 1.0
C      1  0.5310510000000  0.5736680000000  0.5311970000000 1.0
C      1  0.4689490000000  0.4263320000000  0.4688030000000 1.0
C      1  0.4405950000000  0.4979540000000  0.5600570000000 1.0
C      1  0.5594050000000  0.5020460000000  0.4399430000000 1.0
C      1  0.5512120000000  0.5039310000000  0.5103320000000 1.0
C      1  0.4487880000000  0.4960690000000  0.4896670000000 1.0
C      1  0.5241170000000  0.4673600000000  0.3940150000000 1.0
C      1  0.4758830000000  0.5326400000000  0.6059850000000 1.0
C      1  0.4578920000000  0.5495610000000  0.4220890000000 1.0
C      1  0.5421080000000  0.4504390000000  0.5779110000000 1.0
C      1  0.4831020000000  0.5239750000000  0.4699570000000 1.0
C      1  0.5168980000000  0.4760250000000  0.5300420000000 1.0
C      1  0.4440210000000  0.4578480000000  0.5325670000000 1.0
C      1  0.5559790000000  0.5421520000000  0.4674330000000 1.0
C      1  0.5384780000000  0.4293310000000  0.4268710000000 1.0
C      1  0.4615220000000  0.5706690000000  0.5731290000000 1.0
C      1  0.4981860000000  0.4026730000000  0.5836880000000 1.0
C      1  0.5018130000000  0.5973270000000  0.4163120000000 1.0
C      1  0.5534870000000  0.4770870000000  0.3947640000000 1.0
C      1  0.4465130000000  0.5229130000000  0.6052360000000 1.0
C      1  0.4270840000000  0.5507110000000  0.5416380000000 1.0
C      1  0.5729160000000  0.4492890000000  0.4583620000000 1.0
C      1  0.4289520000000  0.4341210000000  0.5447170000000 1.0
C      1  0.5710480000000  0.5658790000000  0.4552830000000 1.0
C      1  0.4762660000000  0.4862380000000  0.4971100000000 1.0
C      1  0.5237340000000  0.5137620000000  0.5028900000000 1.0
C      1  0.4840860000000  0.5556040000000  0.5875300000000 1.0
C      1  0.5159140000000  0.4443960000000  0.4124700000000 1.0
C      1  0.5364170000000  0.5032720000000  0.4228150000000 1.0
C      1  0.4635830000000  0.4967280000000  0.5771850000000 1.0
C      1  0.5312700000000  0.5279330000000  0.5495410000000 1.0
C      1  0.4687300000000  0.4720670000000  0.4504590000000 1.0
C      1  0.5466270000000  0.4558130000000  0.6080090000000 1.0
C      1  0.4533730000000  0.5441870000000  0.3919910000000 1.0
C      1  0.5603540000000  0.4558910000000  0.5281900000000 1.0
C      1  0.4396460000000  0.5441090000000  0.4718100000000 1.0
C      1  0.4298090000000  0.4736090000000  0.4865150000000 1.0
C      1  0.5701910000000  0.5263910000000  0.5134850000000 1.0
C      1  0.4027100000000  0.5132240000000  0.5697020000000 1.0
C      1  0.5972900000000  0.4867760000000  0.4302980000000 1.0
C      1  0.4928170000000  0.5923560000000  0.4437920000000 1.0
C      1  0.5071830000000  0.4076440000000  0.5562080000000 1.0
C      1  0.5049610000000  0.4574620000000  0.6008270000000 1.0
C      1  0.4950390000000  0.5425380000000  0.3991730000000 1.0
C      1  0.4346900000000  0.5497760000000  0.4422530000000 1.0
C      1  0.5653100000000  0.4502250000000  0.5577470000000 1.0
C      1  0.4843940000000  0.5166210000000  0.5681830000000 1.0
C      1  0.5156060000000  0.4833790000000  0.4318170000000 1.0
C      1  0.5683910000000  0.5365700000000  0.5671390000000 1.0
C      1  0.4316090000000  0.4634300000000  0.4328620000000 1.0
C      1  0.5042880000000  0.5216180000000  0.5425530000000 1.0
C      1  0.4957120000000  0.4783820000000  0.4574470000000 1.0
C      1  0.6004470000000  0.4485210000000  0.4687290000000 1.0
C      1  0.3995530000000  0.5514790000000  0.5312710000000 1.0
C      1  0.5352490000000  0.4160270000000  0.4559910000000 1.0
C      1  0.4647510000000  0.5839730000000  0.5440090000000 1.0
C      1  0.3837490000000  0.4545870000000  0.5034720000000 1.0
C      1  0.6162510000000  0.5454130000000  0.4965280000000 1.0
END
