TITL C-862501-1041-237 -1168019.9589192 125000 -774.795239964837 0 0 137 (C1) n - 1
REM
REM in /home/nfs/bkarasulu/CARBON/AIRSS/Generating-Clusters/TERSOFF/Higher-Symm/FIRE-HFTN
REM
REM
REM
REM
REM
REM ./C.cell (b20cbc046b6831c77cfcea5457e17084)
REM AIRSS Version 0.9.1 bugfix July 2018 build 013d7b7c2542+ Fri, 06 Jul 2018 19:26:36 +0100
REM compiler GCC version 9.2.1 20190827 (Red Hat 9.2.1-1)
REM options -cpp -mtune=generic -march=x86-64 -g -O0 -fpre-include=/usr/include/finclude/math-vector-fortran.h
REM seed 1621436340 -1917001111 -1930027301 -792537013 899127087 385995634 -165805903 -310245178 1654783291 211190693 637832458 539791187 1033085442 1424410968 -831848571 -884065665 -1426471612 -1778236532 -1618715407 147673444 -2024907579 876834671 -730546577 1181682478 1978835348 -595968523 526142091 146421578 1148933373 -1138220301 -541627313 -1981756945 992053384
REM
CELL 1.54180   50.00000   50.00000   50.00000   90.00000   90.00000   90.00000
LATT -1
SFAC C  
C      1  0.5979590000000  0.4669670000000  0.4863770000000 1.0
C      1  0.4220040000000  0.4316300000000  0.4870570000000 1.0
C      1  0.4815820000000  0.5991350000000  0.4863750000000 1.0
C      1  0.4402490000000  0.5738620000000  0.5008960000000 1.0
C      1  0.5957210000000  0.5152080000000  0.5008280000000 1.0
C      1  0.4651520000000  0.4100570000000  0.5014760000000 1.0
C      1  0.4931540000000  0.5877670000000  0.4593420000000 1.0
C      1  0.5831960000000  0.4625670000000  0.4587990000000 1.0
C      1  0.4256580000000  0.4474140000000  0.4600020000000 1.0
C      1  0.4267460000000  0.4703650000000  0.5025810000000 1.0
C      1  0.5128100000000  0.5750020000000  0.5007380000000 1.0
C      1  0.5609660000000  0.4526600000000  0.5001840000000 1.0
C      1  0.5476750000000  0.4153670000000  0.4861740000000 1.0
C      1  0.3972060000000  0.4998830000000  0.4882430000000 1.0
C      1  0.5510890000000  0.5859710000000  0.4873870000000 1.0
C      1  0.5502740000000  0.5430190000000  0.5728340000000 1.0
C      1  0.5126230000000  0.4356070000000  0.5728490000000 1.0
C      1  0.4381070000000  0.5213510000000  0.5727420000000 1.0
C      1  0.5589640000000  0.5331660000000  0.4913430000000 1.0
C      1  0.5002970000000  0.4395400000000  0.4833180000000 1.0
C      1  0.4403450000000  0.5323320000000  0.4947360000000 1.0
C      1  0.4900520000000  0.5259390000000  0.4207270000000 1.0
C      1  0.5325660000000  0.4964230000000  0.4179430000000 1.0
C      1  0.4844320000000  0.4726590000000  0.4196020000000 1.0
C      1  0.4396170000000  0.5184390000000  0.4686460000000 1.0
C      1  0.5497910000000  0.5404070000000  0.4641200000000 1.0
C      1  0.5129510000000  0.4417620000000  0.4576990000000 1.0
C      1  0.3999170000000  0.4607500000000  0.5409620000000 1.0
C      1  0.5160720000000  0.6049860000000  0.5386190000000 1.0
C      1  0.5834770000000  0.4335790000000  0.5389610000000 1.0
C      1  0.5056540000000  0.3995720000000  0.4716140000000 1.0
C      1  0.4083230000000  0.5463310000000  0.4707900000000 1.0
C      1  0.5880370000000  0.5564020000000  0.4706570000000 1.0
C      1  0.5519990000000  0.5556430000000  0.5453310000000 1.0
C      1  0.5231230000000  0.4272920000000  0.5456570000000 1.0
C      1  0.4256770000000  0.5165070000000  0.5455590000000 1.0
C      1  0.4060750000000  0.5283760000000  0.4971560000000 1.0
C      1  0.5707020000000  0.5641650000000  0.4965930000000 1.0
C      1  0.5180930000000  0.4151840000000  0.4966610000000 1.0
C      1  0.5680540000000  0.4746970000000  0.4122640000000 1.0
C      1  0.4461440000000  0.4561020000000  0.4147150000000 1.0
C      1  0.4904040000000  0.5673080000000  0.4135040000000 1.0
C      1  0.5161930000000  0.5131770000000  0.4751640000000 1.0
C      1  0.4929770000000  0.4884020000000  0.4734270000000 1.0
C      1  0.4848330000000  0.5234540000000  0.4740070000000 1.0
C      1  0.4712200000000  0.4248000000000  0.4471340000000 1.0
C      1  0.4504150000000  0.5597390000000  0.4468290000000 1.0
C      1  0.5807620000000  0.5136280000000  0.4454670000000 1.0
C      1  0.4672540000000  0.5828150000000  0.5071540000000 1.0
C      1  0.5899630000000  0.4873000000000  0.5071190000000 1.0
C      1  0.4433770000000  0.4282620000000  0.5080070000000 1.0
C      1  0.4581070000000  0.5420920000000  0.5724850000000 1.0
C      1  0.5585950000000  0.5153600000000  0.5732140000000 1.0
C      1  0.4845040000000  0.4421240000000  0.5729530000000 1.0
C      1  0.5261080000000  0.4835540000000  0.5978150000000 1.0
C      1  0.4729110000000  0.4859190000000  0.5980690000000 1.0
C      1  0.5017990000000  0.5306160000000  0.5976210000000 1.0
C      1  0.4758350000000  0.4067500000000  0.4723740000000 1.0
C      1  0.4316310000000  0.5664950000000  0.4720160000000 1.0
C      1  0.5951540000000  0.5262870000000  0.4713550000000 1.0
C      1  0.4323290000000  0.4725010000000  0.4752180000000 1.0
C      1  0.5118220000000  0.5689080000000  0.4732870000000 1.0
C      1  0.5572520000000  0.4567710000000  0.4724980000000 1.0
C      1  0.5791710000000  0.4331780000000  0.5110520000000 1.0
C      1  0.4005760000000  0.4648940000000  0.5130230000000 1.0
C      1  0.5197050000000  0.6009980000000  0.5108950000000 1.0
C      1  0.5365680000000  0.4515780000000  0.5366090000000 1.0
C      1  0.4397200000000  0.4925140000000  0.5358180000000 1.0
C      1  0.5241660000000  0.5549400000000  0.5358370000000 1.0
C      1  0.5136340000000  0.5448340000000  0.4110660000000 1.0
C      1  0.5368410000000  0.4665850000000  0.4086240000000 1.0
C      1  0.4564840000000  0.4860570000000  0.4127410000000 1.0
C      1  0.5948370000000  0.5339260000000  0.5238770000000 1.0
C      1  0.4825830000000  0.4022300000000  0.5240880000000 1.0
C      1  0.4241350000000  0.5644190000000  0.5240660000000 1.0
C      1  0.4749070000000  0.4492270000000  0.5456450000000 1.0
C      1  0.4691400000000  0.5462430000000  0.5451420000000 1.0
C      1  0.5564020000000  0.5034080000000  0.5460560000000 1.0
C      1  0.5322320000000  0.4550350000000  0.5870380000000 1.0
C      1  0.4451360000000  0.4948520000000  0.5871420000000 1.0
C      1  0.5235110000000  0.5501900000000  0.5868330000000 1.0
C      1  0.5825350000000  0.4513160000000  0.5964870000000 1.0
C      1  0.4169820000000  0.4532730000000  0.5970110000000 1.0
C      1  0.5016310000000  0.5956760000000  0.5957640000000 1.0
C      1  0.4284120000000  0.4655170000000  0.5483150000000 1.0
C      1  0.5062680000000  0.5784280000000  0.5474020000000 1.0
C      1  0.5657070000000  0.4554200000000  0.5478980000000 1.0
C      1  0.5518870000000  0.4206540000000  0.4347410000000 1.0
C      1  0.4078930000000  0.4951660000000  0.4371610000000 1.0
C      1  0.5445290000000  0.5823760000000  0.4359740000000 1.0
C      1  0.4755980000000  0.5440200000000  0.5957640000000 1.0
C      1  0.5508340000000  0.4995770000000  0.5965220000000 1.0
C      1  0.4742940000000  0.4564680000000  0.5962700000000 1.0
C      1  0.4461250000000  0.4399240000000  0.4396810000000 1.0
C      1  0.4762120000000  0.5742920000000  0.4389900000000 1.0
C      1  0.5803790000000  0.4838210000000  0.4380380000000 1.0
C      1  0.5762450000000  0.4133120000000  0.4741830000000 1.0
C      1  0.3840160000000  0.4758810000000  0.4736180000000 1.0
C      1  0.5375200000000  0.6101670000000  0.4739850000000 1.0
C      1  0.4784340000000  0.5726160000000  0.5356110000000 1.0
C      1  0.5749590000000  0.4824740000000  0.5360650000000 1.0
C      1  0.4471140000000  0.4439230000000  0.5364150000000 1.0
C      1  0.4992660000000  0.4298360000000  0.4314780000000 1.0
C      1  0.4375160000000  0.5374780000000  0.4285190000000 1.0
C      1  0.5681920000000  0.5361860000000  0.4266520000000 1.0
C      1  0.5296240000000  0.5021950000000  0.5347400000000 1.0
C      1  0.4877210000000  0.4722610000000  0.5330140000000 1.0
C      1  0.4828230000000  0.5235820000000  0.5326650000000 1.0
C      1  0.5755120000000  0.5560170000000  0.5260710000000 1.0
C      1  0.5107960000000  0.4096100000000  0.5247340000000 1.0
C      1  0.4135170000000  0.5370110000000  0.5266800000000 1.0
C      1  0.5759200000000  0.5651040000000  0.4424760000000 1.0
C      1  0.5207870000000  0.4033940000000  0.4426550000000 1.0
C      1  0.4083070000000  0.5309620000000  0.4435260000000 1.0
C      1  0.4916280000000  0.4658020000000  0.4918240000000 1.0
C      1  0.4696810000000  0.5358780000000  0.4947970000000 1.0
C      1  0.5342140000000  0.5186440000000  0.4964840000000 1.0
C      1  0.5605820000000  0.4538000000000  0.5776400000000 1.0
C      1  0.4300370000000  0.4708930000000  0.5779680000000 1.0
C      1  0.5102810000000  0.5751240000000  0.5771540000000 1.0
C      1  0.5409550000000  0.4353650000000  0.4609000000000 1.0
C      1  0.4208090000000  0.4974580000000  0.4656120000000 1.0
C      1  0.5393040000000  0.5671790000000  0.4629240000000 1.0
C      1  0.5811910000000  0.4307330000000  0.4498600000000 1.0
C      1  0.3995670000000  0.4647400000000  0.4501210000000 1.0
C      1  0.5209000000000  0.6026070000000  0.4499270000000 1.0
C      1  0.5303180000000  0.4383160000000  0.4196310000000 1.0
C      1  0.4354950000000  0.5047980000000  0.4251540000000 1.0
C      1  0.5404890000000  0.5542760000000  0.4227350000000 1.0
C      1  0.5259940000000  0.5184040000000  0.4003580000000 1.0
C      1  0.5061720000000  0.4688000000000  0.4004980000000 1.0
C      1  0.4737990000000  0.5097820000000  0.4030920000000 1.0
C      1  0.5180630000000  0.4753830000000  0.5320350000000 1.0
C      1  0.4700870000000  0.4961450000000  0.5308020000000 1.0
C      1  0.5123490000000  0.5267890000000  0.5315500000000 1.0
C      1  0.5002940000000  0.4999560000000  0.5919440000000 1.0
C      1  0.4987710000000  0.4994110000000  0.5630180000000 1.0
END
