TITL C-862502-1143-783 -0.00112466918005869 125000 -581.019617169806 0 0 97 (C3) n - 1
REM
REM in /home/nfs/bkarasulu/CARBON/AIRSS/Generating-Clusters/TERSOFF/Higher-Symm/FIRE-HFTN
REM
REM
REM
REM
REM
REM ./C.cell (b20cbc046b6831c77cfcea5457e17084)
REM AIRSS Version 0.9.1 bugfix July 2018 build 013d7b7c2542+ Fri, 06 Jul 2018 19:26:36 +0100
REM compiler GCC version 9.2.1 20190827 (Red Hat 9.2.1-1)
REM options -cpp -mtune=generic -march=x86-64 -g -O0 -fpre-include=/usr/include/finclude/math-vector-fortran.h
REM seed -1316769490 -215982640 -742556777 1732169226 2140805926 369143075 -2046064630 66743153 -813968248 189850064 -1420823175 1694138705 -374173683 -838969432 1758866283 -954040162 -1159766742 1759132277 -101206947 -1281660863 967077770 1456484142 -1983311156 1928091318 -1382372542 104376625 -654652946 -2056749418 -1753533599 -1555809370 634944748 -127412803 1678333330
REM
CELL 1.54180   50.00000   50.00000   50.00000   90.00000   90.00000   90.00000
LATT -1
SFAC C  
C      1  0.5588560000000  0.5508040000000  0.5481110000000 1.0
C      1  0.5588570000000  0.4326110000000  0.5191450000000 1.0
C      1  0.5588560000000  0.5167920000000  0.4312700000000 1.0
C      1  0.4249410000000  0.4923170000000  0.4403010000000 1.0
C      1  0.4249410000000  0.5552180000000  0.5224010000000 1.0
C      1  0.4249420000000  0.4526680000000  0.5358250000000 1.0
C      1  0.4622450000000  0.5306800000000  0.4300710000000 1.0
C      1  0.4622450000000  0.5448980000000  0.5607390000000 1.0
C      1  0.4622470000000  0.4246270000000  0.5077170000000 1.0
C      1  0.4697700000000  0.4655180000000  0.5327930000000 1.0
C      1  0.4697700000000  0.4885190000000  0.4529460000000 1.0
C      1  0.4697690000000  0.5461680000000  0.5127890000000 1.0
C      1  0.4180000000000  0.5182450000000  0.4891200000000 1.0
C      1  0.4180010000000  0.4999760000000  0.5204460000000 1.0
C      1  0.4180010000000  0.4819820000000  0.4889610000000 1.0
C      1  0.5241080000000  0.5554080000000  0.4300810000000 1.0
C      1  0.5241080000000  0.5325260000000  0.5821480000000 1.0
C      1  0.5241090000000  0.4122730000000  0.4862980000000 1.0
C      1  0.4481020000000  0.4505870000000  0.5173360000000 1.0
C      1  0.4481010000000  0.5093700000000  0.4477430000000 1.0
C      1  0.4481010000000  0.5402470000000  0.5334480000000 1.0
C      1  0.5668260000000  0.4454830000000  0.5468810000000 1.0
C      1  0.5668260000000  0.4863370000000  0.4285490000000 1.0
C      1  0.5668250000000  0.5683880000000  0.5230960000000 1.0
C      1  0.5055750000000  0.5763960000000  0.5187630000000 1.0
C      1  0.5055770000000  0.4452300000000  0.5559830000000 1.0
C      1  0.5055760000000  0.4785790000000  0.4237800000000 1.0
C      1  0.5299380000000  0.4796900000000  0.4838390000000 1.0
C      1  0.5299380000000  0.5238290000000  0.4896950000000 1.0
C      1  0.5299380000000  0.4966880000000  0.5249930000000 1.0
C      1  0.5752010000000  0.5200490000000  0.5153270000000 1.0
C      1  0.5752010000000  0.4763810000000  0.5089030000000 1.0
C      1  0.5752010000000  0.5037780000000  0.4742970000000 1.0
C      1  0.4174350000000  0.4797950000000  0.5442760000000 1.0
C      1  0.4174350000000  0.4714350000000  0.4595690000000 1.0
C      1  0.4174340000000  0.5489740000000  0.4946830000000 1.0
C      1  0.4770730000000  0.4531730000000  0.5598120000000 1.0
C      1  0.4770730000000  0.4712920000000  0.4287450000000 1.0
C      1  0.4770720000000  0.5757400000000  0.5099700000000 1.0
C      1  0.5720180000000  0.5277330000000  0.4561480000000 1.0
C      1  0.5720180000000  0.5237890000000  0.5451470000000 1.0
C      1  0.5720190000000  0.4486860000000  0.4972320000000 1.0
C      1  0.5393600000000  0.5509020000000  0.4845820000000 1.0
C      1  0.5393610000000  0.4875790000000  0.5509950000000 1.0
C      1  0.5393610000000  0.4617260000000  0.4629500000000 1.0
C      1  0.5037600000000  0.4829510000000  0.5856540000000 1.0
C      1  0.5037600000000  0.4340230000000  0.4416120000000 1.0
C      1  0.5037590000000  0.5832310000000  0.4712610000000 1.0
C      1  0.4953720000000  0.5038730000000  0.4561310000000 1.0
C      1  0.4953720000000  0.5357330000000  0.5244930000000 1.0
C      1  0.4953730000000  0.4606000000000  0.5179040000000 1.0
C      1  0.4442250000000  0.5112880000000  0.5307500000000 1.0
C      1  0.4442250000000  0.4674030000000  0.4936050000000 1.0
C      1  0.4442250000000  0.5215130000000  0.4741720000000 1.0
C      1  0.5083490000000  0.5573730000000  0.5427860000000 1.0
C      1  0.5083510000000  0.4339370000000  0.5274970000000 1.0
C      1  0.5083500000000  0.5088960000000  0.4282430000000 1.0
C      1  0.5249570000000  0.4664510000000  0.5677460000000 1.0
C      1  0.5249570000000  0.4577830000000  0.4362770000000 1.0
C      1  0.5249560000000  0.5759720000000  0.4945040000000 1.0
C      1  0.4663180000000  0.4943640000000  0.5383200000000 1.0
C      1  0.4663180000000  0.4693090000000  0.4751630000000 1.0
C      1  0.4663170000000  0.5365320000000  0.4850440000000 1.0
C      1  0.5312270000000  0.5497760000000  0.5588810000000 1.0
C      1  0.5312280000000  0.4237980000000  0.5128700000000 1.0
C      1  0.5312270000000  0.5266330000000  0.4267760000000 1.0
C      1  0.5796180000000  0.4815490000000  0.4552200000000 1.0
C      1  0.5796170000000  0.5476850000000  0.5056140000000 1.0
C      1  0.5796180000000  0.4709750000000  0.5376930000000 1.0
C      1  0.5029930000000  0.5074260000000  0.5226120000000 1.0
C      1  0.5029940000000  0.4763820000000  0.4943290000000 1.0
C      1  0.5029930000000  0.5163980000000  0.4815850000000 1.0
C      1  0.4265640000000  0.4903440000000  0.5708610000000 1.0
C      1  0.4265650000000  0.4431370000000  0.4554130000000 1.0
C      1  0.4265630000000  0.5667220000000  0.4722540000000 1.0
C      1  0.5623500000000  0.5522470000000  0.4676000000000 1.0
C      1  0.5623510000000  0.5016140000000  0.5606510000000 1.0
C      1  0.5623510000000  0.4463470000000  0.4702760000000 1.0
C      1  0.5008040000000  0.5656330000000  0.4462250000000 1.0
C      1  0.5008050000000  0.5134320000000  0.5829320000000 1.0
C      1  0.5008060000000  0.4211410000000  0.4693700000000 1.0
C      1  0.4551440000000  0.4945180000000  0.5788010000000 1.0
C      1  0.4551450000000  0.4341740000000  0.4550560000000 1.0
C      1  0.4551430000000  0.5715120000000  0.4646700000000 1.0
C      1  0.5484690000000  0.5870760000000  0.5102310000000 1.0
C      1  0.5484700000000  0.4472800000000  0.5694980000000 1.0
C      1  0.5484700000000  0.4658510000000  0.4187980000000 1.0
C      1  0.4704620000000  0.4222040000000  0.4788050000000 1.0
C      1  0.4704610000000  0.5569310000000  0.4424280000000 1.0
C      1  0.4704610000000  0.5210700000000  0.5772940000000 1.0
C      1  0.4750190000000  0.5853750000000  0.4824010000000 1.0
C      1  0.4750210000000  0.4722310000000  0.5819410000000 1.0
C      1  0.4750210000000  0.4425980000000  0.4341850000000 1.0
C      1  0.4840250000000  0.5197590000000  0.4143040000000 1.0
C      1  0.4840240000000  0.5640130000000  0.5591640000000 1.0
C      1  0.4840260000000  0.4164340000000  0.5250590000000 1.0
C      1  0.5526980000000  0.5000690000000  0.4995090000000 1.0
END
