TITL C-862503-991-835 -12415.0934935317 125000 -696.105512187104 0 0 119 (C1) n - 1
REM
REM in /home/nfs/bkarasulu/CARBON/AIRSS/Generating-Clusters/TERSOFF/Higher-Symm/FIRE-HFTN
REM
REM
REM
REM
REM
REM ./C.cell (b20cbc046b6831c77cfcea5457e17084)
REM AIRSS Version 0.9.1 bugfix July 2018 build 013d7b7c2542+ Fri, 06 Jul 2018 19:26:36 +0100
REM compiler GCC version 9.2.1 20190827 (Red Hat 9.2.1-1)
REM options -cpp -mtune=generic -march=x86-64 -g -O0 -fpre-include=/usr/include/finclude/math-vector-fortran.h
REM seed 487957189 553173819 1061678050 -469121056 -1226600969 601486672 -967896842 -1567841211 2098368893 -1121345481 924897462 1226936794 1080517093 140223497 -815842752 1977583776 1174273530 -823010214 -1673702280 -1484051393 1564173273 227264376 -158819653 524540681 332617951 -2102914993 1912672165 -2055580761 -1631727942 524837945 1215480886 -558129256 -995104391
REM
CELL 1.54180   50.00000   50.00000   50.00000   90.00000   90.00000   90.00000
LATT -1
SFAC C  
C      1  0.5839040000000  0.4642950000000  0.4852360000000 1.0
C      1  0.4442490000000  0.4642000000000  0.4347100000000 1.0
C      1  0.4710550000000  0.4628960000000  0.5806490000000 1.0
C      1  0.5387750000000  0.4787540000000  0.5049930000000 1.0
C      1  0.4840170000000  0.4791260000000  0.4637090000000 1.0
C      1  0.4755610000000  0.4772680000000  0.5315060000000 1.0
C      1  0.5601020000000  0.5118140000000  0.5345560000000 1.0
C      1  0.4981940000000  0.5127190000000  0.4304120000000 1.0
C      1  0.4391330000000  0.5103320000000  0.5357970000000 1.0
C      1  0.5217040000000  0.5674700000000  0.5660480000000 1.0
C      1  0.5452070000000  0.5640520000000  0.4507340000000 1.0
C      1  0.4386730000000  0.5641350000000  0.4904590000000 1.0
C      1  0.5480920000000  0.5522010000000  0.5042890000000 1.0
C      1  0.4780250000000  0.5546790000000  0.4524120000000 1.0
C      1  0.4718130000000  0.5510710000000  0.5326480000000 1.0
C      1  0.5732660000000  0.4319990000000  0.5505100000000 1.0
C      1  0.5069120000000  0.4324620000000  0.4116020000000 1.0
C      1  0.4190880000000  0.4308760000000  0.5382490000000 1.0
C      1  0.4493130000000  0.5864920000000  0.4724930000000 1.0
C      1  0.4993870000000  0.5869350000000  0.5571910000000 1.0
C      1  0.5509180000000  0.5866430000000  0.4702630000000 1.0
C      1  0.5994700000000  0.4809290000000  0.5497460000000 1.0
C      1  0.4929310000000  0.4810430000000  0.3890360000000 1.0
C      1  0.4078160000000  0.4804580000000  0.5650540000000 1.0
C      1  0.5003300000000  0.5720790000000  0.4214160000000 1.0
C      1  0.4344710000000  0.5691080000000  0.5392820000000 1.0
C      1  0.5676470000000  0.5706430000000  0.5378140000000 1.0
C      1  0.5343400000000  0.4425510000000  0.4081720000000 1.0
C      1  0.4022190000000  0.4404420000000  0.5160980000000 1.0
C      1  0.5627990000000  0.4413780000000  0.5763190000000 1.0
C      1  0.5271060000000  0.3853360000000  0.4903260000000 1.0
C      1  0.4789020000000  0.3846080000000  0.4807640000000 1.0
C      1  0.4948380000000  0.3847160000000  0.5274820000000 1.0
C      1  0.4992540000000  0.4723400000000  0.5857310000000 1.0
C      1  0.5740860000000  0.4722800000000  0.4579180000000 1.0
C      1  0.4254440000000  0.4714340000000  0.4571820000000 1.0
C      1  0.4474310000000  0.5939800000000  0.5276720000000 1.0
C      1  0.5509840000000  0.5948870000000  0.5316260000000 1.0
C      1  0.5024070000000  0.5960290000000  0.4394850000000 1.0
C      1  0.5009590000000  0.5962140000000  0.4695150000000 1.0
C      1  0.4743510000000  0.5964870000000  0.5139150000000 1.0
C      1  0.5258850000000  0.5958820000000  0.5150570000000 1.0
C      1  0.5671730000000  0.5686670000000  0.4870460000000 1.0
C      1  0.4526070000000  0.5708240000000  0.4475740000000 1.0
C      1  0.4772450000000  0.5680110000000  0.5601960000000 1.0
C      1  0.5367880000000  0.4237380000000  0.4601270000000 1.0
C      1  0.4465180000000  0.4215690000000  0.4880190000000 1.0
C      1  0.5157700000000  0.4227470000000  0.5521440000000 1.0
C      1  0.4999700000000  0.5964300000000  0.5292590000000 1.0
C      1  0.5265020000000  0.5960360000000  0.4847940000000 1.0
C      1  0.4746400000000  0.5969290000000  0.4844390000000 1.0
C      1  0.5911270000000  0.5653080000000  0.5213810000000 1.0
C      1  0.4750270000000  0.5669260000000  0.4079190000000 1.0
C      1  0.4361310000000  0.5646450000000  0.5680840000000 1.0
C      1  0.5251420000000  0.5179130000000  0.5719880000000 1.0
C      1  0.5491730000000  0.5166710000000  0.4421410000000 1.0
C      1  0.4240030000000  0.5155400000000  0.4877330000000 1.0
C      1  0.5449060000000  0.4066230000000  0.4829130000000 1.0
C      1  0.4626870000000  0.4053870000000  0.4692630000000 1.0
C      1  0.4921160000000  0.4055160000000  0.5471950000000 1.0
C      1  0.5597070000000  0.4360860000000  0.5241660000000 1.0
C      1  0.4903330000000  0.4362130000000  0.4362990000000 1.0
C      1  0.4487060000000  0.4348050000000  0.5399890000000 1.0
C      1  0.5766120000000  0.4860010000000  0.5326430000000 1.0
C      1  0.4889790000000  0.4863740000000  0.4172700000000 1.0
C      1  0.4332960000000  0.4849670000000  0.5519690000000 1.0
C      1  0.5298160000000  0.4387010000000  0.5313500000000 1.0
C      1  0.5113890000000  0.4391040000000  0.4586310000000 1.0
C      1  0.4575130000000  0.4373270000000  0.5105630000000 1.0
C      1  0.5675930000000  0.5313320000000  0.5139140000000 1.0
C      1  0.4767210000000  0.5327280000000  0.4322430000000 1.0
C      1  0.4540750000000  0.5312700000000  0.5499690000000 1.0
C      1  0.4644360000000  0.5542670000000  0.5022070000000 1.0
C      1  0.5263670000000  0.5546730000000  0.5401460000000 1.0
C      1  0.5209820000000  0.5510680000000  0.4602480000000 1.0
C      1  0.5311180000000  0.4807250000000  0.4775970000000 1.0
C      1  0.4641860000000  0.4792140000000  0.4841530000000 1.0
C      1  0.5030020000000  0.4803690000000  0.5386220000000 1.0
C      1  0.5623960000000  0.5529700000000  0.5616450000000 1.0
C      1  0.5232760000000  0.5536230000000  0.4164720000000 1.0
C      1  0.4157660000000  0.5516180000000  0.5233570000000 1.0
C      1  0.5151650000000  0.5452020000000  0.4913520000000 1.0
C      1  0.4850210000000  0.5497790000000  0.4818830000000 1.0
C      1  0.5051950000000  0.5471850000000  0.5222220000000 1.0
C      1  0.4320650000000  0.5465660000000  0.4439730000000 1.0
C      1  0.4814690000000  0.5485840000000  0.5837610000000 1.0
C      1  0.5847090000000  0.5470020000000  0.4722960000000 1.0
C      1  0.5114150000000  0.5435240000000  0.5827430000000 1.0
C      1  0.5660590000000  0.5419560000000  0.4485300000000 1.0
C      1  0.4261340000000  0.5421550000000  0.4736130000000 1.0
C      1  0.5246230000000  0.5252210000000  0.4257300000000 1.0
C      1  0.4206530000000  0.5226980000000  0.5169840000000 1.0
C      1  0.5523320000000  0.5247990000000  0.5597890000000 1.0
C      1  0.5100330000000  0.4908610000000  0.5656650000000 1.0
C      1  0.5509250000000  0.4901230000000  0.4578350000000 1.0
C      1  0.4368740000000  0.4888970000000  0.4776920000000 1.0
C      1  0.4694170000000  0.4152710000000  0.4422650000000 1.0
C      1  0.4649520000000  0.4141810000000  0.5548060000000 1.0
C      1  0.5648690000000  0.4156920000000  0.5025900000000 1.0
C      1  0.4617830000000  0.5280540000000  0.5777900000000 1.0
C      1  0.5884750000000  0.5265640000000  0.4937390000000 1.0
C      1  0.4480350000000  0.5265120000000  0.4283620000000 1.0
C      1  0.5367300000000  0.5034330000000  0.5196200000000 1.0
C      1  0.4947840000000  0.5050690000000  0.4581780000000 1.0
C      1  0.4630150000000  0.5014170000000  0.5218430000000 1.0
C      1  0.5571320000000  0.4353980000000  0.4252850000000 1.0
C      1  0.4063400000000  0.4337980000000  0.4877500000000 1.0
C      1  0.5359790000000  0.4354480000000  0.5867010000000 1.0
C      1  0.4566790000000  0.4642300000000  0.5533720000000 1.0
C      1  0.5670590000000  0.4654850000000  0.5110010000000 1.0
C      1  0.4750660000000  0.4656270000000  0.4363650000000 1.0
C      1  0.4042240000000  0.4528910000000  0.4654280000000 1.0
C      1  0.5182710000000  0.4549410000000  0.5997770000000 1.0
C      1  0.5775200000000  0.4542630000000  0.4350100000000 1.0
C      1  0.4697110000000  0.4627480000000  0.5069170000000 1.0
C      1  0.5210500000000  0.4646260000000  0.5230910000000 1.0
C      1  0.5085760000000  0.4651800000000  0.4699800000000 1.0
C      1  0.5001500000000  0.3914030000000  0.4995690000000 1.0
C      1  0.4996360000000  0.4218470000000  0.4996850000000 1.0
END
