TITL C-862130-1496-998 -0.000455994626744271 125000 -184.143215986362 0 0 36 (Ci) n - 1
REM
REM in /home/nfs/bkarasulu/CARBON/AIRSS/Generating-Clusters/TERSOFF/Higher-Symm/FIRE-HFTN
REM
REM
REM
REM
REM
REM ./C.cell (b20cbc046b6831c77cfcea5457e17084)
REM AIRSS Version 0.9.1 bugfix July 2018 build 013d7b7c2542+ Fri, 06 Jul 2018 19:26:36 +0100
REM compiler GCC version 9.2.1 20190827 (Red Hat 9.2.1-1)
REM options -cpp -mtune=generic -march=x86-64 -g -O0 -fpre-include=/usr/include/finclude/math-vector-fortran.h
REM seed 484564855 -1831381742 1010975416 -2064262338 -1181636834 -1445079341 1478188168 -1195414970 640680616 421415518 1007653773 1502135453 1319379469 -711377411 -900629065 1942886200 -636304893 -1194393573 547521606 138925045 -846487986 46688525 -631805582 1407167144 641787946 136183423 -8306466 357425056 -798583678 -2138608423 -142937308 1290664149 373187429
REM
CELL 1.54180   50.00000   50.00000   50.00000   90.00000   90.00000   90.00000
LATT -1
SFAC C  
C      1  0.4706360000000  0.5250910000000  0.5432770000000 1.0
C      1  0.5140540000000  0.5466950000000  0.4789360000000 1.0
C      1  0.5484440000000  0.4736560000000  0.5095050000000 1.0
C      1  0.5218200000000  0.4841600000000  0.5499930000000 1.0
C      1  0.4796130000000  0.4834510000000  0.4471120000000 1.0
C      1  0.5271080000000  0.5071320000000  0.4540310000000 1.0
C      1  0.4768230000000  0.4620340000000  0.4712900000000 1.0
C      1  0.5207790000000  0.4620810000000  0.5244150000000 1.0
C      1  0.4904160000000  0.5421930000000  0.5266280000000 1.0
C      1  0.4467200000000  0.5238350000000  0.5212160000000 1.0
C      1  0.5392060000000  0.5255760000000  0.4764800000000 1.0
C      1  0.4577640000000  0.4771900000000  0.4906130000000 1.0
C      1  0.4781800000000  0.5158400000000  0.4500070000000 1.0
C      1  0.5231770000000  0.5379660000000  0.5287100000000 1.0
C      1  0.5532800000000  0.4761650000000  0.4787840000000 1.0
C      1  0.5293640000000  0.4749090000000  0.4567230000000 1.0
C      1  0.4728920000000  0.4928680000000  0.5459690000000 1.0
C      1  0.5203870000000  0.5165490000000  0.5528880000000 1.0
C      1  0.4859460000000  0.4533050000000  0.5210640000000 1.0
C      1  0.5095840000000  0.4578070000000  0.4733720000000 1.0
C      1  0.4792210000000  0.5379190000000  0.4755850000000 1.0
C      1  0.4515560000000  0.5263440000000  0.4904950000000 1.0
C      1  0.5422360000000  0.5228100000000  0.5093870000000 1.0
C      1  0.4607940000000  0.4744240000000  0.5235200000000 1.0
C      1  0.5196840000000  0.4456290000000  0.4972830000000 1.0
C      1  0.4368700000000  0.4957150000000  0.5245920000000 1.0
C      1  0.5055120000000  0.5180620000000  0.4387150000000 1.0
C      1  0.4803160000000  0.5543710000000  0.5027170000000 1.0
C      1  0.5556930000000  0.4996800000000  0.5197180000000 1.0
C      1  0.4443070000000  0.5003200000000  0.4802820000000 1.0
C      1  0.5631300000000  0.5042850000000  0.4754080000000 1.0
C      1  0.5059720000000  0.4758560000000  0.4356210000000 1.0
C      1  0.4944880000000  0.4819380000000  0.5612850000000 1.0
C      1  0.4940280000000  0.5241440000000  0.5643790000000 1.0
C      1  0.5219560000000  0.5593070000000  0.5048490000000 1.0
C      1  0.4780440000000  0.4406930000000  0.4951510000000 1.0
END
