TITL C-862502-1143-997 43.1919470249712 125000 -584.011865248209 0 0 102 (C1) n - 1
REM
REM in /home/nfs/bkarasulu/CARBON/AIRSS/Generating-Clusters/TERSOFF/Higher-Symm/FIRE-HFTN
REM
REM
REM
REM
REM
REM ./C.cell (b20cbc046b6831c77cfcea5457e17084)
REM AIRSS Version 0.9.1 bugfix July 2018 build 013d7b7c2542+ Fri, 06 Jul 2018 19:26:36 +0100
REM compiler GCC version 9.2.1 20190827 (Red Hat 9.2.1-1)
REM options -cpp -mtune=generic -march=x86-64 -g -O0 -fpre-include=/usr/include/finclude/math-vector-fortran.h
REM seed -600486106 1168137046 1674834674 -959741704 -903502716 -2052021682 -1373062950 558568772 -64930750 -728594685 -775940638 903762400 -1378412551 42869651 -1730544469 1599116152 -1608479255 -1694066587 552439513 -294142369 -330537906 -670944151 -460049202 -313898207 -555975544 944690085 160090495 1334258472 1770837981 1397244616 951249818 1793016368 1542797198
REM
CELL 1.54180   50.00000   50.00000   50.00000   90.00000   90.00000   90.00000
LATT -1
SFAC C  
C      1  0.4590560000000  0.5712260000000  0.5465060000000 1.0
C      1  0.4581410000000  0.5768380000000  0.4567690000000 1.0
C      1  0.5072460000000  0.5294340000000  0.4326890000000 1.0
C      1  0.5076700000000  0.5277280000000  0.5683880000000 1.0
C      1  0.5364460000000  0.5624920000000  0.4543520000000 1.0
C      1  0.5368030000000  0.5609950000000  0.5464690000000 1.0
C      1  0.4501750000000  0.5104000000000  0.4154400000000 1.0
C      1  0.4506640000000  0.5069840000000  0.5908650000000 1.0
C      1  0.4511640000000  0.4747130000000  0.4529050000000 1.0
C      1  0.4585010000000  0.4754160000000  0.5521750000000 1.0
C      1  0.5189390000000  0.4831730000000  0.5407760000000 1.0
C      1  0.5147950000000  0.4859690000000  0.4637930000000 1.0
C      1  0.4658410000000  0.5300060000000  0.5987320000000 1.0
C      1  0.4656230000000  0.5307280000000  0.4026850000000 1.0
C      1  0.5703890000000  0.4507050000000  0.5271200000000 1.0
C      1  0.5680320000000  0.4514080000000  0.4747300000000 1.0
C      1  0.4964400000000  0.5055620000000  0.4502930000000 1.0
C      1  0.4990500000000  0.5015930000000  0.5531610000000 1.0
C      1  0.5869440000000  0.4748170000000  0.5253700000000 1.0
C      1  0.5847840000000  0.4753700000000  0.4754550000000 1.0
C      1  0.5824680000000  0.4979980000000  0.5444060000000 1.0
C      1  0.5794830000000  0.4986990000000  0.4567310000000 1.0
C      1  0.5073970000000  0.4805070000000  0.4023420000000 1.0
C      1  0.5100170000000  0.4793500000000  0.6018360000000 1.0
C      1  0.4615660000000  0.4861330000000  0.4262190000000 1.0
C      1  0.4624310000000  0.4827390000000  0.5804790000000 1.0
C      1  0.5539850000000  0.4461040000000  0.5512670000000 1.0
C      1  0.5491360000000  0.4473640000000  0.4524190000000 1.0
C      1  0.4829950000000  0.4689240000000  0.5965410000000 1.0
C      1  0.4807840000000  0.4710230000000  0.4098480000000 1.0
C      1  0.5358920000000  0.5113810000000  0.5707900000000 1.0
C      1  0.5346960000000  0.5129280000000  0.4309840000000 1.0
C      1  0.4907100000000  0.4341610000000  0.5371420000000 1.0
C      1  0.4961480000000  0.4400710000000  0.4537730000000 1.0
C      1  0.4422060000000  0.5417900000000  0.5429030000000 1.0
C      1  0.4400170000000  0.5469560000000  0.4554240000000 1.0
C      1  0.4210590000000  0.4884920000000  0.4508430000000 1.0
C      1  0.4308380000000  0.4809160000000  0.5378330000000 1.0
C      1  0.5099090000000  0.5520650000000  0.5508600000000 1.0
C      1  0.5094340000000  0.5546070000000  0.4486730000000 1.0
C      1  0.5167020000000  0.4236450000000  0.5245270000000 1.0
C      1  0.5149770000000  0.4194050000000  0.4756110000000 1.0
C      1  0.4670200000000  0.5379990000000  0.4697020000000 1.0
C      1  0.4678390000000  0.5359350000000  0.5256840000000 1.0
C      1  0.4937580000000  0.5339400000000  0.4069300000000 1.0
C      1  0.4941400000000  0.5331350000000  0.5940750000000 1.0
C      1  0.5566330000000  0.5149850000000  0.5456430000000 1.0
C      1  0.5537210000000  0.5155700000000  0.4565540000000 1.0
C      1  0.4155640000000  0.5363850000000  0.4715660000000 1.0
C      1  0.4183700000000  0.5323800000000  0.5260120000000 1.0
C      1  0.4879310000000  0.5608630000000  0.4687080000000 1.0
C      1  0.4881640000000  0.5590060000000  0.5308680000000 1.0
C      1  0.5292370000000  0.4845410000000  0.4212420000000 1.0
C      1  0.5308380000000  0.4829970000000  0.5814230000000 1.0
C      1  0.5410210000000  0.4967530000000  0.5284380000000 1.0
C      1  0.5372500000000  0.5000110000000  0.4756860000000 1.0
C      1  0.4093480000000  0.5071990000000  0.4713040000000 1.0
C      1  0.4149630000000  0.5032380000000  0.5216300000000 1.0
C      1  0.5534510000000  0.5438450000000  0.4682870000000 1.0
C      1  0.5551430000000  0.5431060000000  0.5331080000000 1.0
C      1  0.4821060000000  0.4633490000000  0.5379150000000 1.0
C      1  0.4659420000000  0.4459170000000  0.4563460000000 1.0
C      1  0.5278080000000  0.4661720000000  0.4448160000000 1.0
C      1  0.5307680000000  0.4622800000000  0.5590470000000 1.0
C      1  0.6159680000000  0.5037560000000  0.4993630000000 1.0
C      1  0.4632350000000  0.5032710000000  0.4968130000000 1.0
C      1  0.4390240000000  0.5583980000000  0.4990400000000 1.0
C      1  0.5922960000000  0.5767140000000  0.5003490000000 1.0
C      1  0.4994090000000  0.4713120000000  0.5004950000000 1.0
C      1  0.5504030000000  0.4902040000000  0.5010120000000 1.0
C      1  0.3869430000000  0.4701770000000  0.4963030000000 1.0
C      1  0.5986870000000  0.5262540000000  0.4996060000000 1.0
C      1  0.5064010000000  0.5957910000000  0.4983170000000 1.0
C      1  0.5075750000000  0.5186760000000  0.5157670000000 1.0
C      1  0.4998580000000  0.5669340000000  0.4986060000000 1.0
C      1  0.4504910000000  0.4147610000000  0.5163310000000 1.0
C      1  0.5638680000000  0.4353360000000  0.5011020000000 1.0
C      1  0.5273730000000  0.4662710000000  0.4988780000000 1.0
C      1  0.4720890000000  0.3998750000000  0.5017420000000 1.0
C      1  0.4109570000000  0.5493440000000  0.4999980000000 1.0
C      1  0.5485480000000  0.3875670000000  0.5031590000000 1.0
C      1  0.5638050000000  0.5740610000000  0.5008320000000 1.0
C      1  0.4461930000000  0.4827200000000  0.4839890000000 1.0
C      1  0.4580520000000  0.5327170000000  0.4973930000000 1.0
C      1  0.5504460000000  0.5462670000000  0.5005410000000 1.0
C      1  0.5702840000000  0.4064430000000  0.5011420000000 1.0
C      1  0.4901980000000  0.4976860000000  0.5037130000000 1.0
C      1  0.5686540000000  0.5209910000000  0.5000650000000 1.0
C      1  0.4348670000000  0.4604240000000  0.5005580000000 1.0
C      1  0.4577960000000  0.6066110000000  0.4925380000000 1.0
C      1  0.4805770000000  0.4480800000000  0.4988370000000 1.0
C      1  0.3995470000000  0.4961060000000  0.4969250000000 1.0
C      1  0.6007490000000  0.4797760000000  0.4998310000000 1.0
C      1  0.4469360000000  0.5849550000000  0.5087650000000 1.0
C      1  0.5191060000000  0.5428220000000  0.5027770000000 1.0
C      1  0.5212840000000  0.3983420000000  0.5031780000000 1.0
C      1  0.4855400000000  0.6146780000000  0.4928570000000 1.0
C      1  0.6091000000000  0.5534720000000  0.4996860000000 1.0
C      1  0.4545030000000  0.4443670000000  0.5126290000000 1.0
C      1  0.4076580000000  0.4508670000000  0.4976350000000 1.0
C      1  0.5337100000000  0.4383080000000  0.4999420000000 1.0
C      1  0.4888280000000  0.4219930000000  0.4909610000000 1.0
END
