TITL C-862501-1041-245 -0.00402716970170006 125000 -669.686820787605 0 0 116 (C2) n - 1
REM
REM in /home/nfs/bkarasulu/CARBON/AIRSS/Generating-Clusters/TERSOFF/Higher-Symm/FIRE-HFTN
REM
REM
REM
REM
REM
REM ./C.cell (b20cbc046b6831c77cfcea5457e17084)
REM AIRSS Version 0.9.1 bugfix July 2018 build 013d7b7c2542+ Fri, 06 Jul 2018 19:26:36 +0100
REM compiler GCC version 9.2.1 20190827 (Red Hat 9.2.1-1)
REM options -cpp -mtune=generic -march=x86-64 -g -O0 -fpre-include=/usr/include/finclude/math-vector-fortran.h
REM seed 1069464176 1448309951 1851294389 -1709240846 1872717885 -864713810 -535296400 1422004590 227653803 -224213994 514838395 671826423 2038998877 1044015500 1701011395 -1141786678 -332820895 1175889965 2078125241 1593328841 -1055024887 1445170141 -1518351327 1973148855 1015723253 889096203 -1989319553 623014020 -1371880982 -1010191631 85119948 -488628475 -2039198409
REM
CELL 1.54180   50.00000   50.00000   50.00000   90.00000   90.00000   90.00000
LATT -1
SFAC C  
C      1  0.4680970000000  0.4623810000000  0.4959050000000 1.0
C      1  0.5319030000000  0.4623810000000  0.5040950000000 1.0
C      1  0.5275540000000  0.5886360000000  0.5218150000000 1.0
C      1  0.4724460000000  0.5886360000000  0.4781850000000 1.0
C      1  0.4640740000000  0.4268120000000  0.4593220000000 1.0
C      1  0.5359260000000  0.4268120000000  0.5406780000000 1.0
C      1  0.5275550000000  0.5324290000000  0.5351770000000 1.0
C      1  0.4724450000000  0.5324290000000  0.4648230000000 1.0
C      1  0.4749180000000  0.4963560000000  0.6096970000000 1.0
C      1  0.5250820000000  0.4963550000000  0.3903030000000 1.0
C      1  0.5471690000000  0.4825310000000  0.4036070000000 1.0
C      1  0.4528310000000  0.4825310000000  0.5963930000000 1.0
C      1  0.4827620000000  0.4751920000000  0.5197600000000 1.0
C      1  0.5172380000000  0.4751920000000  0.4802400000000 1.0
C      1  0.5703520000000  0.5024660000000  0.4747450000000 1.0
C      1  0.4296480000000  0.5024660000000  0.5252550000000 1.0
C      1  0.5158470000000  0.5710470000000  0.4975400000000 1.0
C      1  0.4841530000000  0.5710470000000  0.5024600000000 1.0
C      1  0.4343750000000  0.5589860000000  0.5379140000000 1.0
C      1  0.5656250000000  0.5589860000000  0.4620860000000 1.0
C      1  0.4194940000000  0.5045460000000  0.4642170000000 1.0
C      1  0.5805060000000  0.5045460000000  0.5357830000000 1.0
C      1  0.4175090000000  0.4531110000000  0.4945110000000 1.0
C      1  0.5824910000000  0.4531110000000  0.5054890000000 1.0
C      1  0.5035880000000  0.5987580000000  0.5371380000000 1.0
C      1  0.4964120000000  0.5987580000000  0.4628620000000 1.0
C      1  0.4861090000000  0.5007690000000  0.5042500000000 1.0
C      1  0.5138910000000  0.5007690000000  0.4957500000000 1.0
C      1  0.5661860000000  0.5249280000000  0.4254050000000 1.0
C      1  0.4338140000000  0.5249280000000  0.5745950000000 1.0
C      1  0.4399920000000  0.4703800000000  0.4848520000000 1.0
C      1  0.5600080000000  0.4703800000000  0.5151480000000 1.0
C      1  0.4169630000000  0.5389180000000  0.5522800000000 1.0
C      1  0.5830370000000  0.5389180000000  0.4477200000000 1.0
C      1  0.5379680000000  0.5386430000000  0.4322270000000 1.0
C      1  0.4620320000000  0.5386430000000  0.5677730000000 1.0
C      1  0.4955530000000  0.4200890000000  0.6055280000000 1.0
C      1  0.5044470000000  0.4200890000000  0.3944720000000 1.0
C      1  0.4402120000000  0.4692750000000  0.4547040000000 1.0
C      1  0.5597880000000  0.4692750000000  0.5452960000000 1.0
C      1  0.4928840000000  0.4341670000000  0.4618830000000 1.0
C      1  0.5071160000000  0.4341670000000  0.5381170000000 1.0
C      1  0.4350160000000  0.4507100000000  0.5409230000000 1.0
C      1  0.5649840000000  0.4507100000000  0.4590770000000 1.0
C      1  0.4370440000000  0.4963160000000  0.4414890000000 1.0
C      1  0.5629560000000  0.4963160000000  0.5585110000000 1.0
C      1  0.4068800000000  0.5191070000000  0.5339310000000 1.0
C      1  0.5931200000000  0.5191070000000  0.4660690000000 1.0
C      1  0.5633820000000  0.4940220000000  0.4250030000000 1.0
C      1  0.4366180000000  0.4940220000000  0.5749970000000 1.0
C      1  0.4800190000000  0.4886280000000  0.5475720000000 1.0
C      1  0.5199810000000  0.4886280000000  0.4524280000000 1.0
C      1  0.4608000000000  0.4355730000000  0.5375420000000 1.0
C      1  0.5392000000000  0.4355730000000  0.4624580000000 1.0
C      1  0.4880170000000  0.4662540000000  0.5673720000000 1.0
C      1  0.5119830000000  0.4662540000000  0.4326280000000 1.0
C      1  0.4836890000000  0.4372710000000  0.5582160000000 1.0
C      1  0.5163110000000  0.4372710000000  0.4417840000000 1.0
C      1  0.4601170000000  0.5643090000000  0.5509560000000 1.0
C      1  0.5398830000000  0.5643090000000  0.4490440000000 1.0
C      1  0.5339080000000  0.4525560000000  0.5828830000000 1.0
C      1  0.4660920000000  0.4525560000000  0.4171170000000 1.0
C      1  0.4649090000000  0.5069750000000  0.4838230000000 1.0
C      1  0.5350910000000  0.5069750000000  0.5161770000000 1.0
C      1  0.5009210000000  0.5191580000000  0.4577690000000 1.0
C      1  0.4990790000000  0.5191580000000  0.5422310000000 1.0
C      1  0.5076790000000  0.4572990000000  0.5212920000000 1.0
C      1  0.4923210000000  0.4572990000000  0.4787080000000 1.0
C      1  0.5656250000000  0.5037040000000  0.5069690000000 1.0
C      1  0.4343750000000  0.5037040000000  0.4930310000000 1.0
C      1  0.5514310000000  0.5791830000000  0.5383810000000 1.0
C      1  0.4485690000000  0.5791830000000  0.4616190000000 1.0
C      1  0.5175020000000  0.4173670000000  0.4201610000000 1.0
C      1  0.4824980000000  0.4173670000000  0.5798390000000 1.0
C      1  0.4859830000000  0.5382160000000  0.5851740000000 1.0
C      1  0.5140170000000  0.5382160000000  0.4148260000000 1.0
C      1  0.5716300000000  0.5378070000000  0.5117840000000 1.0
C      1  0.4283700000000  0.5378070000000  0.4882160000000 1.0
C      1  0.5124630000000  0.4717970000000  0.5824780000000 1.0
C      1  0.4875370000000  0.4717970000000  0.4175220000000 1.0
C      1  0.4574690000000  0.5143010000000  0.5416080000000 1.0
C      1  0.5425310000000  0.5143010000000  0.4583920000000 1.0
C      1  0.4818460000000  0.5002160000000  0.4159160000000 1.0
C      1  0.5181540000000  0.5002160000000  0.5840840000000 1.0
C      1  0.5335450000000  0.4193450000000  0.4879850000000 1.0
C      1  0.4664550000000  0.4193450000000  0.5120150000000 1.0
C      1  0.5630750000000  0.5593580000000  0.4915750000000 1.0
C      1  0.4369250000000  0.5593580000000  0.5084250000000 1.0
C      1  0.4903740000000  0.4026310000000  0.5109190000000 1.0
C      1  0.5096260000000  0.4026310000000  0.4890810000000 1.0
C      1  0.5645610000000  0.5521730000000  0.5371920000000 1.0
C      1  0.4354390000000  0.5521730000000  0.4628080000000 1.0
C      1  0.5487400000000  0.4226000000000  0.5135420000000 1.0
C      1  0.4512600000000  0.4226000000000  0.4864580000000 1.0
C      1  0.4512530000000  0.4461280000000  0.4409820000000 1.0
C      1  0.5487470000000  0.4461280000000  0.5590180000000 1.0
C      1  0.5054170000000  0.5134340000000  0.4039090000000 1.0
C      1  0.4945830000000  0.5134340000000  0.5960910000000 1.0
C      1  0.4339670000000  0.4800920000000  0.5476900000000 1.0
C      1  0.5660330000000  0.4800920000000  0.4523100000000 1.0
C      1  0.4682260000000  0.5462140000000  0.4983280000000 1.0
C      1  0.5317740000000  0.5462140000000  0.5016720000000 1.0
C      1  0.5228650000000  0.5252790000000  0.4804080000000 1.0
C      1  0.4771350000000  0.5252790000000  0.5195920000000 1.0
C      1  0.4848910000000  0.5738640000000  0.5344790000000 1.0
C      1  0.5151090000000  0.5738640000000  0.4655210000000 1.0
C      1  0.4889370000000  0.5589480000000  0.4517590000000 1.0
C      1  0.5110630000000  0.5589480000000  0.5482410000000 1.0
C      1  0.5702060000000  0.5864090000000  0.5015200000000 1.0
C      1  0.4297940000000  0.5864090000000  0.4984800000000 1.0
C      1  0.4934300000000  0.5563570000000  0.4232770000000 1.0
C      1  0.5065700000000  0.5563570000000  0.5767230000000 1.0
C      1  0.5848040000000  0.4435090000000  0.4787360000000 1.0
C      1  0.4151960000000  0.4435090000000  0.5212640000000 1.0
C      1  0.5380300000000  0.5124680000000  0.5634000000000 1.0
C      1  0.4619700000000  0.5124680000000  0.4366000000000 1.0
END
