TITL C-862506-1665-242 -0.0187159345397548 125000 -521.378946968647 0 0 95 (C2) n - 1
REM
REM in /home/nfs/bkarasulu/CARBON/AIRSS/Generating-Clusters/TERSOFF/Higher-Symm/FIRE-HFTN
REM
REM
REM
REM
REM
REM ./C.cell (b20cbc046b6831c77cfcea5457e17084)
REM AIRSS Version 0.9.1 bugfix July 2018 build 013d7b7c2542+ Fri, 06 Jul 2018 19:26:36 +0100
REM compiler GCC version 9.2.1 20190827 (Red Hat 9.2.1-1)
REM options -cpp -mtune=generic -march=x86-64 -g -O0 -fpre-include=/usr/include/finclude/math-vector-fortran.h
REM seed 538391579 107733734 1044010123 120131790 -1247235179 -909963133 35379846 -542866105 816953894 -674831957 -1825514015 813170590 -1869622071 83013350 -625701671 -1127757893 1028448053 952986726 704100230 -466568410 -1907591660 528462999 -1316728498 -1260699245 1373511592 1449243395 -507691781 1192758153 -2057354361 854030845 -441918595 -1382798751 -988207982
REM
CELL 1.54180   50.00000   50.00000   50.00000   90.00000   90.00000   90.00000
LATT -1
SFAC C  
C      1  0.5225290000000  0.4824500000000  0.4142290000000 1.0
C      1  0.4777590000000  0.5179000000000  0.4142290000000 1.0
C      1  0.4619830000000  0.5220670000000  0.4847070000000 1.0
C      1  0.5383050000000  0.4782820000000  0.4847070000000 1.0
C      1  0.4579510000000  0.4406500000000  0.4717830000000 1.0
C      1  0.5423370000000  0.5597000000000  0.4717820000000 1.0
C      1  0.4920600000000  0.5563830000000  0.4890680000000 1.0
C      1  0.5082280000000  0.4439670000000  0.4890680000000 1.0
C      1  0.5109170000000  0.5793070000000  0.5459120000000 1.0
C      1  0.4893710000000  0.4210420000000  0.5459120000000 1.0
C      1  0.5435470000000  0.4271090000000  0.5468210000000 1.0
C      1  0.4567420000000  0.5732400000000  0.5468210000000 1.0
C      1  0.5372930000000  0.5338940000000  0.5675500000000 1.0
C      1  0.4629950000000  0.4664560000000  0.5675500000000 1.0
C      1  0.4875170000000  0.5087200000000  0.5845000000000 1.0
C      1  0.5127720000000  0.4916300000000  0.5845000000000 1.0
C      1  0.5585730000000  0.5390090000000  0.5479290000000 1.0
C      1  0.4417160000000  0.4613400000000  0.5479290000000 1.0
C      1  0.4922920000000  0.4511110000000  0.4368610000000 1.0
C      1  0.5079960000000  0.5492390000000  0.4368610000000 1.0
C      1  0.5517740000000  0.4564300000000  0.5179390000000 1.0
C      1  0.4485140000000  0.5439190000000  0.5179390000000 1.0
C      1  0.5722270000000  0.4699450000000  0.5321950000000 1.0
C      1  0.4280610000000  0.5304040000000  0.5321950000000 1.0
C      1  0.5826520000000  0.4927310000000  0.4842640000000 1.0
C      1  0.4176360000000  0.5076190000000  0.4842650000000 1.0
C      1  0.5007170000000  0.5738030000000  0.4515660000000 1.0
C      1  0.4995710000000  0.4265470000000  0.4515660000000 1.0
C      1  0.4770520000000  0.5350150000000  0.5217100000000 1.0
C      1  0.5232360000000  0.4653350000000  0.5217100000000 1.0
C      1  0.4331820000000  0.4414090000000  0.5056760000000 1.0
C      1  0.5671070000000  0.5589410000000  0.5056750000000 1.0
C      1  0.4522430000000  0.5488720000000  0.4492110000000 1.0
C      1  0.5480450000000  0.4514780000000  0.4492110000000 1.0
C      1  0.5154880000000  0.5948680000000  0.4946160000000 1.0
C      1  0.4848000000000  0.4054810000000  0.4946160000000 1.0
C      1  0.5868060000000  0.4913970000000  0.5141050000000 1.0
C      1  0.4134830000000  0.5089520000000  0.5141060000000 1.0
C      1  0.4677640000000  0.4964540000000  0.5654370000000 1.0
C      1  0.5325250000000  0.5038950000000  0.5654370000000 1.0
C      1  0.5547600000000  0.5153240000000  0.4507400000000 1.0
C      1  0.4455280000000  0.4850260000000  0.4507410000000 1.0
C      1  0.4552590000000  0.5781350000000  0.4917460000000 1.0
C      1  0.5450300000000  0.4222150000000  0.4917460000000 1.0
C      1  0.5058540000000  0.5275140000000  0.4804240000000 1.0
C      1  0.4944340000000  0.4728360000000  0.4804240000000 1.0
C      1  0.5392310000000  0.4549120000000  0.5614520000000 1.0
C      1  0.4610570000000  0.5454370000000  0.5614520000000 1.0
C      1  0.4564830000000  0.4540680000000  0.5217410000000 1.0
C      1  0.5438050000000  0.5462820000000  0.5217410000000 1.0
C      1  0.4887030000000  0.4508870000000  0.5606550000000 1.0
C      1  0.5115860000000  0.5494630000000  0.5606550000000 1.0
C      1  0.4662410000000  0.5098180000000  0.4552870000000 1.0
C      1  0.5340470000000  0.4905320000000  0.4552860000000 1.0
C      1  0.4256000000000  0.5349130000000  0.4681250000000 1.0
C      1  0.5746880000000  0.4654370000000  0.4681240000000 1.0
C      1  0.5818480000000  0.5453190000000  0.4836200000000 1.0
C      1  0.4184410000000  0.4550310000000  0.4836210000000 1.0
C      1  0.4254700000000  0.4815930000000  0.4718570000000 1.0
C      1  0.5748180000000  0.5187570000000  0.4718560000000 1.0
C      1  0.4738670000000  0.5051510000000  0.5114030000000 1.0
C      1  0.5264220000000  0.4951980000000  0.5114030000000 1.0
C      1  0.5396440000000  0.5378250000000  0.4315170000000 1.0
C      1  0.4606440000000  0.4625250000000  0.4315170000000 1.0
C      1  0.5282920000000  0.4320100000000  0.4652190000000 1.0
C      1  0.4719960000000  0.5683400000000  0.4652190000000 1.0
C      1  0.5189890000000  0.5093610000000  0.4297780000000 1.0
C      1  0.4812990000000  0.4909890000000  0.4297780000000 1.0
C      1  0.5035550000000  0.4769840000000  0.4512970000000 1.0
C      1  0.4967330000000  0.5233660000000  0.4512970000000 1.0
C      1  0.5701990000000  0.5116110000000  0.5361580000000 1.0
C      1  0.4300890000000  0.4887390000000  0.5361580000000 1.0
C      1  0.4583420000000  0.5393920000000  0.4215320000000 1.0
C      1  0.5419460000000  0.4609570000000  0.4215310000000 1.0
C      1  0.4655800000000  0.4669840000000  0.4828530000000 1.0
C      1  0.5347080000000  0.5333660000000  0.4828530000000 1.0
C      1  0.4915240000000  0.4591420000000  0.5286860000000 1.0
C      1  0.5087650000000  0.5412070000000  0.5286860000000 1.0
C      1  0.4996350000000  0.5799930000000  0.5159030000000 1.0
C      1  0.5006540000000  0.4203570000000  0.5159030000000 1.0
C      1  0.5486840000000  0.5176390000000  0.5078150000000 1.0
C      1  0.4516040000000  0.4827110000000  0.5078160000000 1.0
C      1  0.5571760000000  0.4504590000000  0.4901610000000 1.0
C      1  0.4431130000000  0.5498900000000  0.4901610000000 1.0
C      1  0.5310060000000  0.4188730000000  0.5188530000000 1.0
C      1  0.4692820000000  0.5814770000000  0.5188540000000 1.0
C      1  0.5228480000000  0.5817170000000  0.4696570000000 1.0
C      1  0.4774400000000  0.4186330000000  0.4696570000000 1.0
C      1  0.4872370000000  0.5385390000000  0.5745050000000 1.0
C      1  0.5130520000000  0.4618110000000  0.5745050000000 1.0
C      1  0.4410260000000  0.5160550000000  0.5575270000000 1.0
C      1  0.5592630000000  0.4842950000000  0.5575270000000 1.0
C      1  0.4854370000000  0.4987470000000  0.5408640000000 1.0
C      1  0.5148510000000  0.5016030000000  0.5408640000000 1.0
C      1  0.5001440000000  0.5001750000000  0.4955490000000 1.0
END
