TITL C-862132-7359-481 668.717702688061 125000 -1123.34222856304 0 0 190 (C1) n - 1
REM
REM in /home/nfs/bkarasulu/CARBON/AIRSS/Generating-Clusters/TERSOFF/Higher-Symm/FIRE-HFTN
REM
REM
REM
REM
REM
REM ./C.cell (b20cbc046b6831c77cfcea5457e17084)
REM AIRSS Version 0.9.1 bugfix July 2018 build 013d7b7c2542+ Fri, 06 Jul 2018 19:26:36 +0100
REM compiler GCC version 9.2.1 20190827 (Red Hat 9.2.1-1)
REM options -cpp -mtune=generic -march=x86-64 -g -O0 -fpre-include=/usr/include/finclude/math-vector-fortran.h
REM seed 365460938 951526786 -1034934380 -858280656 -1536294348 1366986381 941684823 655004277 492988634 -937678675 618007299 -1761216913 616610423 872099308 -1922566718 1585507101 1478773808 -251240014 1397539866 338824542 1685084394 490781584 474733306 -527973557 -1692160121 102326504 -1994454883 1776808842 838397367 1172771888 1686038981 -107332525 776209605
REM
CELL 1.54180   50.00000   50.00000   50.00000   90.00000   90.00000   90.00000
LATT -1
SFAC C  
C      1  0.4894250000000  0.4067220000000  0.5796210000000 1.0
C      1  0.5579150000000  0.4345900000000  0.4373080000000 1.0
C      1  0.4694030000000  0.3825870000000  0.5400760000000 1.0
C      1  0.5872490000000  0.5769560000000  0.5013380000000 1.0
C      1  0.3906620000000  0.4289750000000  0.4743730000000 1.0
C      1  0.5932270000000  0.4999020000000  0.5513330000000 1.0
C      1  0.5166370000000  0.4165870000000  0.5759830000000 1.0
C      1  0.5765720000000  0.5867360000000  0.4613050000000 1.0
C      1  0.4643640000000  0.4898480000000  0.4821170000000 1.0
C      1  0.5151760000000  0.4325350000000  0.5291750000000 1.0
C      1  0.4284210000000  0.4845140000000  0.5897830000000 1.0
C      1  0.5489670000000  0.4785070000000  0.4401220000000 1.0
C      1  0.5177870000000  0.5666450000000  0.4959200000000 1.0
C      1  0.5460970000000  0.4568630000000  0.4155840000000 1.0
C      1  0.4645230000000  0.5133780000000  0.6099430000000 1.0
C      1  0.5749540000000  0.4541120000000  0.5674750000000 1.0
C      1  0.4934240000000  0.5966630000000  0.5293590000000 1.0
C      1  0.4427300000000  0.3714910000000  0.5375940000000 1.0
C      1  0.5299840000000  0.6069250000000  0.4511640000000 1.0
C      1  0.4912600000000  0.5270530000000  0.4960250000000 1.0
C      1  0.6133930000000  0.4844770000000  0.5336610000000 1.0
C      1  0.4447540000000  0.4475830000000  0.4695540000000 1.0
C      1  0.4804150000000  0.4859120000000  0.4307120000000 1.0
C      1  0.5788920000000  0.4381230000000  0.4904380000000 1.0
C      1  0.5814920000000  0.5139230000000  0.4233350000000 1.0
C      1  0.6016240000000  0.5293760000000  0.5909420000000 1.0
C      1  0.4913380000000  0.5425850000000  0.4711880000000 1.0
C      1  0.5456670000000  0.5467210000000  0.4283340000000 1.0
C      1  0.5409280000000  0.5369240000000  0.4555510000000 1.0
C      1  0.5584840000000  0.4800640000000  0.4702020000000 1.0
C      1  0.4715390000000  0.4846870000000  0.5419490000000 1.0
C      1  0.4633290000000  0.5336840000000  0.4274900000000 1.0
C      1  0.4832500000000  0.6191080000000  0.5130050000000 1.0
C      1  0.5162850000000  0.4250810000000  0.4696110000000 1.0
C      1  0.5289920000000  0.5284780000000  0.3904350000000 1.0
C      1  0.4433220000000  0.4764950000000  0.5407200000000 1.0
C      1  0.5656410000000  0.5429340000000  0.5505380000000 1.0
C      1  0.5818590000000  0.5163630000000  0.6072580000000 1.0
C      1  0.4852290000000  0.5897640000000  0.5579260000000 1.0
C      1  0.4376200000000  0.6114330000000  0.4910260000000 1.0
C      1  0.4456200000000  0.4084200000000  0.4271480000000 1.0
C      1  0.4803320000000  0.4001920000000  0.5184670000000 1.0
C      1  0.4106460000000  0.4106900000000  0.5455590000000 1.0
C      1  0.5388590000000  0.4884330000000  0.6029310000000 1.0
C      1  0.5496440000000  0.5972420000000  0.4702850000000 1.0
C      1  0.4985230000000  0.5255520000000  0.5564880000000 1.0
C      1  0.4320510000000  0.4661410000000  0.5156030000000 1.0
C      1  0.5262180000000  0.5668370000000  0.4177050000000 1.0
C      1  0.4298570000000  0.6023900000000  0.5178590000000 1.0
C      1  0.4845910000000  0.4877120000000  0.4601210000000 1.0
C      1  0.4458880000000  0.6026180000000  0.5873220000000 1.0
C      1  0.3995090000000  0.5374500000000  0.4786850000000 1.0
C      1  0.6181540000000  0.5432580000000  0.5387700000000 1.0
C      1  0.5895900000000  0.5542920000000  0.4845250000000 1.0
C      1  0.5254980000000  0.4275990000000  0.4115580000000 1.0
C      1  0.5347880000000  0.6037580000000  0.5289410000000 1.0
C      1  0.4859220000000  0.4597130000000  0.5526130000000 1.0
C      1  0.4855470000000  0.4341450000000  0.5289770000000 1.0
C      1  0.4852400000000  0.3903160000000  0.4666590000000 1.0
C      1  0.5613440000000  0.5367040000000  0.4783830000000 1.0
C      1  0.5732000000000  0.5050560000000  0.4806410000000 1.0
C      1  0.3891300000000  0.5208080000000  0.4557110000000 1.0
C      1  0.4419240000000  0.4995610000000  0.4046000000000 1.0
C      1  0.5510550000000  0.5208650000000  0.5393460000000 1.0
C      1  0.4723000000000  0.4455300000000  0.4017250000000 1.0
C      1  0.5078900000000  0.4461200000000  0.4292890000000 1.0
C      1  0.5692240000000  0.5001430000000  0.5336310000000 1.0
C      1  0.4736360000000  0.5116170000000  0.5538260000000 1.0
C      1  0.6128270000000  0.4689190000000  0.4759250000000 1.0
C      1  0.5964470000000  0.5352460000000  0.5598970000000 1.0
C      1  0.4822700000000  0.3826210000000  0.5657740000000 1.0
C      1  0.4235740000000  0.5581530000000  0.5823200000000 1.0
C      1  0.4435180000000  0.5565170000000  0.4641820000000 1.0
C      1  0.4804720000000  0.5750740000000  0.4052500000000 1.0
C      1  0.5485260000000  0.4889780000000  0.3994580000000 1.0
C      1  0.3858190000000  0.5810220000000  0.5022640000000 1.0
C      1  0.5651660000000  0.3896260000000  0.4816910000000 1.0
C      1  0.4229600000000  0.6011770000000  0.4688750000000 1.0
C      1  0.4517410000000  0.5919490000000  0.5326770000000 1.0
C      1  0.5261230000000  0.4445070000000  0.5809580000000 1.0
C      1  0.4031780000000  0.5913370000000  0.5239510000000 1.0
C      1  0.5784460000000  0.4867020000000  0.4338910000000 1.0
C      1  0.5138680000000  0.5625400000000  0.5438480000000 1.0
C      1  0.5645900000000  0.4804470000000  0.5135690000000 1.0
C      1  0.4144780000000  0.4138500000000  0.4304840000000 1.0
C      1  0.4673850000000  0.6161490000000  0.4877770000000 1.0
C      1  0.3809990000000  0.5523580000000  0.4963270000000 1.0
C      1  0.4407280000000  0.5765520000000  0.5978270000000 1.0
C      1  0.5597970000000  0.5696560000000  0.5418370000000 1.0
C      1  0.4005570000000  0.4086240000000  0.4951450000000 1.0
C      1  0.6052990000000  0.4567220000000  0.5254560000000 1.0
C      1  0.5923710000000  0.5324680000000  0.4427420000000 1.0
C      1  0.5118770000000  0.5606570000000  0.5952990000000 1.0
C      1  0.4830790000000  0.4677560000000  0.6014690000000 1.0
C      1  0.5411890000000  0.3919370000000  0.4629410000000 1.0
C      1  0.6283610000000  0.5002370000000  0.5134420000000 1.0
C      1  0.4055360000000  0.5042600000000  0.4364750000000 1.0
C      1  0.5302600000000  0.4855670000000  0.5485960000000 1.0
C      1  0.4059250000000  0.4232160000000  0.5199940000000 1.0
C      1  0.4975490000000  0.5672410000000  0.5182830000000 1.0
C      1  0.5136900000000  0.3958150000000  0.4775050000000 1.0
C      1  0.5142190000000  0.5878860000000  0.4345310000000 1.0
C      1  0.4400970000000  0.3780910000000  0.4820640000000 1.0
C      1  0.4705320000000  0.6085470000000  0.5743730000000 1.0
C      1  0.4586150000000  0.4223140000000  0.4720080000000 1.0
C      1  0.4509590000000  0.5908440000000  0.4306270000000 1.0
C      1  0.5390120000000  0.5921570000000  0.4990720000000 1.0
C      1  0.5551590000000  0.4426820000000  0.5850180000000 1.0
C      1  0.5207010000000  0.5167440000000  0.4560680000000 1.0
C      1  0.5489160000000  0.3991350000000  0.5406140000000 1.0
C      1  0.4477070000000  0.5432440000000  0.5285430000000 1.0
C      1  0.4476280000000  0.3776840000000  0.4308300000000 1.0
C      1  0.3945740000000  0.5902140000000  0.5522840000000 1.0
C      1  0.6235120000000  0.5285590000000  0.5134970000000 1.0
C      1  0.4189120000000  0.3831830000000  0.5491360000000 1.0
C      1  0.5118270000000  0.5050410000000  0.3863660000000 1.0
C      1  0.4121430000000  0.3826540000000  0.4893880000000 1.0
C      1  0.4661030000000  0.5128490000000  0.4983210000000 1.0
C      1  0.4486470000000  0.4383340000000  0.4186860000000 1.0
C      1  0.4910220000000  0.5743230000000  0.6126250000000 1.0
C      1  0.5138310000000  0.4651680000000  0.5623200000000 1.0
C      1  0.5208240000000  0.5147920000000  0.5391120000000 1.0
C      1  0.4728520000000  0.4132770000000  0.4470550000000 1.0
C      1  0.4408370000000  0.4663950000000  0.5701220000000 1.0
C      1  0.5444000000000  0.4054650000000  0.4330460000000 1.0
C      1  0.4279500000000  0.5412730000000  0.4827530000000 1.0
C      1  0.4820060000000  0.6175380000000  0.4602520000000 1.0
C      1  0.4090950000000  0.4703530000000  0.4415130000000 1.0
C      1  0.4956800000000  0.4249510000000  0.3951540000000 1.0
C      1  0.5325300000000  0.3812260000000  0.5234650000000 1.0
C      1  0.5751010000000  0.4116370000000  0.4999680000000 1.0
C      1  0.4639560000000  0.5669980000000  0.5258830000000 1.0
C      1  0.5818760000000  0.5624400000000  0.4425650000000 1.0
C      1  0.3579850000000  0.5388520000000  0.5078930000000 1.0
C      1  0.4453500000000  0.3642660000000  0.4566200000000 1.0
C      1  0.4203590000000  0.5170580000000  0.4134490000000 1.0
C      1  0.4680310000000  0.4253730000000  0.5853890000000 1.0
C      1  0.4424980000000  0.5284730000000  0.5046100000000 1.0
C      1  0.3974470000000  0.4764230000000  0.4702630000000 1.0
C      1  0.4062540000000  0.4525650000000  0.5149990000000 1.0
C      1  0.4531260000000  0.5645770000000  0.3978770000000 1.0
C      1  0.5457050000000  0.5507440000000  0.5004160000000 1.0
C      1  0.6003010000000  0.5172880000000  0.4679300000000 1.0
C      1  0.4685180000000  0.4539730000000  0.5784130000000 1.0
C      1  0.5668720000000  0.4949360000000  0.5954880000000 1.0
C      1  0.5803730000000  0.4822380000000  0.5727100000000 1.0
C      1  0.5095990000000  0.5587730000000  0.3927620000000 1.0
C      1  0.4022930000000  0.4352660000000  0.4470780000000 1.0
C      1  0.5354010000000  0.5821440000000  0.5520610000000 1.0
C      1  0.5998210000000  0.4670270000000  0.4469210000000 1.0
C      1  0.4341700000000  0.5318960000000  0.5757000000000 1.0
C      1  0.5286770000000  0.4173570000000  0.5490210000000 1.0
C      1  0.5234810000000  0.4930550000000  0.4413580000000 1.0
C      1  0.5616760000000  0.5744220000000  0.5135530000000 1.0
C      1  0.4877320000000  0.4966090000000  0.6039770000000 1.0
C      1  0.5157730000000  0.5171600000000  0.5088210000000 1.0
C      1  0.4821080000000  0.5939660000000  0.4329970000000 1.0
C      1  0.6134730000000  0.5371520000000  0.4873230000000 1.0
C      1  0.5099660000000  0.3908630000000  0.5067810000000 1.0
C      1  0.5888430000000  0.5665990000000  0.5763110000000 1.0
C      1  0.5102980000000  0.6266960000000  0.4602560000000 1.0
C      1  0.4854300000000  0.5407610000000  0.3815690000000 1.0
C      1  0.4625900000000  0.5659690000000  0.6146480000000 1.0
C      1  0.4839730000000  0.5126290000000  0.3891850000000 1.0
C      1  0.4690790000000  0.5067240000000  0.4144520000000 1.0
C      1  0.5733180000000  0.4119000000000  0.5298330000000 1.0
C      1  0.5865980000000  0.4397180000000  0.5433150000000 1.0
C      1  0.5160150000000  0.5076400000000  0.6034350000000 1.0
C      1  0.4903040000000  0.4637650000000  0.4163630000000 1.0
C      1  0.5646630000000  0.5718380000000  0.5933320000000 1.0
C      1  0.5216600000000  0.5359930000000  0.6099410000000 1.0
C      1  0.5371030000000  0.5770490000000  0.5828400000000 1.0
C      1  0.4342790000000  0.5813010000000  0.4519840000000 1.0
C      1  0.5877860000000  0.4394920000000  0.4407230000000 1.0
C      1  0.4676370000000  0.5448160000000  0.4542520000000 1.0
C      1  0.4374150000000  0.5445900000000  0.4154220000000 1.0
C      1  0.5555950000000  0.5234060000000  0.4077080000000 1.0
C      1  0.4505140000000  0.5281470000000  0.5524300000000 1.0
C      1  0.4476000000000  0.4674910000000  0.4897670000000 1.0
C      1  0.4380800000000  0.4565530000000  0.4417500000000 1.0
C      1  0.6308720000000  0.4891500000000  0.4859670000000 1.0
C      1  0.4969300000000  0.5570000000000  0.5685160000000 1.0
C      1  0.4966390000000  0.4326520000000  0.4510170000000 1.0
C      1  0.5561110000000  0.4534180000000  0.4825940000000 1.0
C      1  0.3979860000000  0.5670810000000  0.5703120000000 1.0
C      1  0.3909590000000  0.4553290000000  0.4890470000000 1.0
C      1  0.4386790000000  0.5114500000000  0.5959760000000 1.0
C      1  0.4623700000000  0.3976730000000  0.4915110000000 1.0
C      1  0.6023180000000  0.4514920000000  0.4966000000000 1.0
C      1  0.5425320000000  0.4368820000000  0.4643080000000 1.0
END
