TITL C-862131-2149-565 519.851406471344 125000 -494.621724181679 0 0 85 (C1) n - 1
REM
REM in /home/nfs/bkarasulu/CARBON/AIRSS/Generating-Clusters/TERSOFF/Higher-Symm/FIRE-HFTN
REM
REM
REM
REM
REM
REM ./C.cell (b20cbc046b6831c77cfcea5457e17084)
REM AIRSS Version 0.9.1 bugfix July 2018 build 013d7b7c2542+ Fri, 06 Jul 2018 19:26:36 +0100
REM compiler GCC version 9.2.1 20190827 (Red Hat 9.2.1-1)
REM options -cpp -mtune=generic -march=x86-64 -g -O0 -fpre-include=/usr/include/finclude/math-vector-fortran.h
REM seed -1023841094 -78814435 -838087461 -1336204016 546086913 1574357810 -1184010237 -1761887770 1255563277 706976033 2091690962 -1084278050 399027387 -1274428510 -220556969 1342713314 -1881891998 -317319577 799967119 -2109717956 1914653478 1824285414 -340737154 -1804444186 2091756278 1559072537 -1319152901 203271884 1173070916 1401148366 -2015856488 681516068 383211473
REM
CELL 1.54180   50.00000   50.00000   50.00000   90.00000   90.00000   90.00000
LATT -1
SFAC C  
C      1  0.4298090000000  0.4424940000000  0.4799690000000 1.0
C      1  0.5681650000000  0.4758080000000  0.5781230000000 1.0
C      1  0.5363150000000  0.4895430000000  0.5430610000000 1.0
C      1  0.5600480000000  0.5079250000000  0.5404120000000 1.0
C      1  0.4858630000000  0.5714540000000  0.5552790000000 1.0
C      1  0.5458360000000  0.5381940000000  0.5658140000000 1.0
C      1  0.4663020000000  0.5024180000000  0.4491470000000 1.0
C      1  0.5225090000000  0.4125870000000  0.4921470000000 1.0
C      1  0.4789030000000  0.5357880000000  0.3973600000000 1.0
C      1  0.4726640000000  0.4791730000000  0.5710520000000 1.0
C      1  0.4248290000000  0.5268920000000  0.4422800000000 1.0
C      1  0.4482360000000  0.5186840000000  0.5105420000000 1.0
C      1  0.5201960000000  0.4769550000000  0.5880750000000 1.0
C      1  0.4938630000000  0.4566940000000  0.4938050000000 1.0
C      1  0.5352750000000  0.4752970000000  0.5168330000000 1.0
C      1  0.4802540000000  0.4874260000000  0.4112580000000 1.0
C      1  0.4428400000000  0.5216220000000  0.5920170000000 1.0
C      1  0.4318320000000  0.4950600000000  0.5930370000000 1.0
C      1  0.4500920000000  0.5712110000000  0.5192550000000 1.0
C      1  0.5662800000000  0.5352950000000  0.5039090000000 1.0
C      1  0.4490650000000  0.4603880000000  0.4657570000000 1.0
C      1  0.5573560000000  0.4758570000000  0.4735050000000 1.0
C      1  0.4251740000000  0.5142890000000  0.4928220000000 1.0
C      1  0.4175280000000  0.4483430000000  0.5063130000000 1.0
C      1  0.5211530000000  0.5373180000000  0.5500530000000 1.0
C      1  0.5834010000000  0.4830980000000  0.5142900000000 1.0
C      1  0.5619140000000  0.5415600000000  0.4755990000000 1.0
C      1  0.4582560000000  0.4687310000000  0.5205780000000 1.0
C      1  0.5219610000000  0.4325380000000  0.4447600000000 1.0
C      1  0.5248670000000  0.5148060000000  0.4089650000000 1.0
C      1  0.5249990000000  0.5045420000000  0.5985120000000 1.0
C      1  0.5489910000000  0.5199410000000  0.5891900000000 1.0
C      1  0.5278510000000  0.5633370000000  0.4291200000000 1.0
C      1  0.4962770000000  0.4468290000000  0.4413140000000 1.0
C      1  0.4937190000000  0.4401460000000  0.5398910000000 1.0
C      1  0.4810300000000  0.5063390000000  0.5623930000000 1.0
C      1  0.5056490000000  0.5883280000000  0.4677410000000 1.0
C      1  0.5963680000000  0.5060350000000  0.5023110000000 1.0
C      1  0.4653400000000  0.5493470000000  0.4188610000000 1.0
C      1  0.4700020000000  0.5904750000000  0.5072650000000 1.0
C      1  0.4948350000000  0.5121240000000  0.4019190000000 1.0
C      1  0.5398000000000  0.4649930000000  0.4125730000000 1.0
C      1  0.4416910000000  0.4869530000000  0.4544020000000 1.0
C      1  0.5692630000000  0.5505600000000  0.5534360000000 1.0
C      1  0.5651160000000  0.4388720000000  0.5040250000000 1.0
C      1  0.4202170000000  0.5329490000000  0.4705410000000 1.0
C      1  0.4625610000000  0.4213840000000  0.5068860000000 1.0
C      1  0.5243760000000  0.4103280000000  0.4632940000000 1.0
C      1  0.5725890000000  0.5549500000000  0.5246420000000 1.0
C      1  0.4773180000000  0.4456580000000  0.5156970000000 1.0
C      1  0.4956580000000  0.5778450000000  0.4940830000000 1.0
C      1  0.4366230000000  0.5454420000000  0.4228670000000 1.0
C      1  0.4954220000000  0.5010420000000  0.5171030000000 1.0
C      1  0.5460320000000  0.4457400000000  0.4336520000000 1.0
C      1  0.4820260000000  0.5499480000000  0.4914040000000 1.0
C      1  0.5156660000000  0.5740140000000  0.5156850000000 1.0
C      1  0.4432320000000  0.4741960000000  0.5763270000000 1.0
C      1  0.4667440000000  0.4964820000000  0.5168760000000 1.0
C      1  0.4814290000000  0.5547540000000  0.4420890000000 1.0
C      1  0.5163830000000  0.4892810000000  0.4480960000000 1.0
C      1  0.5446780000000  0.4190810000000  0.5097370000000 1.0
C      1  0.5383460000000  0.4973960000000  0.4651700000000 1.0
C      1  0.4318110000000  0.4621690000000  0.5274980000000 1.0
C      1  0.4629720000000  0.5553140000000  0.5606830000000 1.0
C      1  0.5037240000000  0.5732910000000  0.4422560000000 1.0
C      1  0.5475670000000  0.5243230000000  0.4566640000000 1.0
C      1  0.5647620000000  0.4558850000000  0.4535100000000 1.0
C      1  0.5727860000000  0.5023560000000  0.5890840000000 1.0
C      1  0.4073960000000  0.4917210000000  0.4972470000000 1.0
C      1  0.5603340000000  0.4684050000000  0.5023370000000 1.0
C      1  0.5237340000000  0.4875500000000  0.4205410000000 1.0
C      1  0.5139050000000  0.4194910000000  0.5418040000000 1.0
C      1  0.4608920000000  0.5449720000000  0.5103590000000 1.0
C      1  0.4637720000000  0.5290380000000  0.5729280000000 1.0
C      1  0.5077080000000  0.5102240000000  0.5445710000000 1.0
C      1  0.5090080000000  0.5621800000000  0.5412880000000 1.0
C      1  0.4790140000000  0.5389330000000  0.4654280000000 1.0
C      1  0.5103200000000  0.4796430000000  0.5029400000000 1.0
C      1  0.4811350000000  0.4578690000000  0.4666270000000 1.0
C      1  0.4262120000000  0.4609450000000  0.5559990000000 1.0
C      1  0.4919130000000  0.4604440000000  0.4149120000000 1.0
C      1  0.5408140000000  0.4720240000000  0.5673770000000 1.0
C      1  0.4935460000000  0.4655910000000  0.5856580000000 1.0
C      1  0.5363420000000  0.5352130000000  0.4299680000000 1.0
C      1  0.4893170000000  0.4856610000000  0.4571940000000 1.0
END
