TITL C-862501-1041-517 0.021895950470833 125000 -591.749545930109 0 0 100 (C2) n - 1
REM
REM in /home/nfs/bkarasulu/CARBON/AIRSS/Generating-Clusters/TERSOFF/Higher-Symm/FIRE-HFTN
REM
REM
REM
REM
REM
REM ./C.cell (b20cbc046b6831c77cfcea5457e17084)
REM AIRSS Version 0.9.1 bugfix July 2018 build 013d7b7c2542+ Fri, 06 Jul 2018 19:26:36 +0100
REM compiler GCC version 9.2.1 20190827 (Red Hat 9.2.1-1)
REM options -cpp -mtune=generic -march=x86-64 -g -O0 -fpre-include=/usr/include/finclude/math-vector-fortran.h
REM seed 293081813 -1088423553 286109810 -17410597 -57809284 -68176049 1086214728 -1215691155 586487520 1584371211 -1075930875 900201455 -1594713574 -1744769093 580736990 -1795036040 -698100714 435656416 -1838451644 -1869124637 1120880665 191397462 -1835885964 852367948 2038131353 1076978437 356878873 -933056406 183640599 816235681 -292736979 1530901396 -1394801883
REM
CELL 1.54180   50.00000   50.00000   50.00000   90.00000   90.00000   90.00000
LATT -1
SFAC C  
C      1  0.5780530000000  0.4884390000000  0.4964100000000 1.0
C      1  0.5654770000000  0.4877920000000  0.5416330000000 1.0
C      1  0.5257770000000  0.4839950000000  0.5694530000000 1.0
C      1  0.4815210000000  0.4892930000000  0.5679910000000 1.0
C      1  0.4424850000000  0.4841300000000  0.5470150000000 1.0
C      1  0.4219470000000  0.4884390000000  0.5035900000000 1.0
C      1  0.4345230000000  0.4877920000000  0.4583670000000 1.0
C      1  0.4742230000000  0.4839950000000  0.4305470000000 1.0
C      1  0.5184790000000  0.4892930000000  0.4320090000000 1.0
C      1  0.5575150000000  0.4841300000000  0.4529850000000 1.0
C      1  0.5204400000000  0.4284320000000  0.5459820000000 1.0
C      1  0.4901300000000  0.4340610000000  0.5385240000000 1.0
C      1  0.4601020000000  0.4285700000000  0.5299630000000 1.0
C      1  0.4472420000000  0.4315370000000  0.5021860000000 1.0
C      1  0.4546790000000  0.4305710000000  0.4718650000000 1.0
C      1  0.4795600000000  0.4284320000000  0.4540180000000 1.0
C      1  0.5098700000000  0.4340610000000  0.4614760000000 1.0
C      1  0.5398980000000  0.4285700000000  0.4700370000000 1.0
C      1  0.5527580000000  0.4315370000000  0.4978140000000 1.0
C      1  0.5453210000000  0.4305710000000  0.5281350000000 1.0
C      1  0.5473490000000  0.5214830000000  0.4958860000000 1.0
C      1  0.5387340000000  0.5190580000000  0.5245730000000 1.0
C      1  0.5162210000000  0.5323920000000  0.5347950000000 1.0
C      1  0.4908410000000  0.5202220000000  0.5348850000000 1.0
C      1  0.4686020000000  0.5334230000000  0.5237980000000 1.0
C      1  0.4526510000000  0.5214830000000  0.5041140000000 1.0
C      1  0.4612660000000  0.5190580000000  0.4754270000000 1.0
C      1  0.4837790000000  0.5323920000000  0.4652050000000 1.0
C      1  0.5091590000000  0.5202220000000  0.4651150000000 1.0
C      1  0.5313980000000  0.5334230000000  0.4762020000000 1.0
C      1  0.5029360000000  0.5691870000000  0.5500590000000 1.0
C      1  0.4731430000000  0.5717580000000  0.5401500000000 1.0
C      1  0.4505490000000  0.5708240000000  0.5177230000000 1.0
C      1  0.4484420000000  0.5696020000000  0.4871520000000 1.0
C      1  0.4685180000000  0.5713930000000  0.4631830000000 1.0
C      1  0.4970640000000  0.5691870000000  0.4499410000000 1.0
C      1  0.5268570000000  0.5717580000000  0.4598500000000 1.0
C      1  0.5494510000000  0.5708240000000  0.4822770000000 1.0
C      1  0.5515580000000  0.5696020000000  0.5128480000000 1.0
C      1  0.5314820000000  0.5713930000000  0.5368170000000 1.0
C      1  0.5450230000000  0.5298980000000  0.4313830000000 1.0
C      1  0.5798110000000  0.5295720000000  0.4701090000000 1.0
C      1  0.5847870000000  0.5305890000000  0.5226200000000 1.0
C      1  0.5527710000000  0.5296820000000  0.5638390000000 1.0
C      1  0.5044520000000  0.5292680000000  0.5831630000000 1.0
C      1  0.4549770000000  0.5298980000000  0.5686170000000 1.0
C      1  0.4201890000000  0.5295720000000  0.5298910000000 1.0
C      1  0.4152130000000  0.5305890000000  0.4773800000000 1.0
C      1  0.4472290000000  0.5296820000000  0.4361610000000 1.0
C      1  0.4955480000000  0.5292680000000  0.4168370000000 1.0
C      1  0.5216920000000  0.5151120000000  0.4195800000000 1.0
C      1  0.5648410000000  0.5136360000000  0.4481580000000 1.0
C      1  0.5889050000000  0.5155400000000  0.4959350000000 1.0
C      1  0.5739900000000  0.5153090000000  0.5470590000000 1.0
C      1  0.5297090000000  0.5134430000000  0.5770530000000 1.0
C      1  0.4783080000000  0.5151120000000  0.5804200000000 1.0
C      1  0.4351590000000  0.5136360000000  0.5518420000000 1.0
C      1  0.4110950000000  0.5155400000000  0.5040650000000 1.0
C      1  0.4260100000000  0.5153090000000  0.4529410000000 1.0
C      1  0.4702910000000  0.5134430000000  0.4229470000000 1.0
C      1  0.5424660000000  0.5590650000000  0.4362560000000 1.0
C      1  0.5744600000000  0.5585250000000  0.4711020000000 1.0
C      1  0.5780580000000  0.5590290000000  0.5211420000000 1.0
C      1  0.5487610000000  0.5589290000000  0.5595750000000 1.0
C      1  0.5047040000000  0.5577750000000  0.5773090000000 1.0
C      1  0.4575340000000  0.5590650000000  0.5637440000000 1.0
C      1  0.4255400000000  0.5585250000000  0.5288980000000 1.0
C      1  0.4219420000000  0.5590290000000  0.4788580000000 1.0
C      1  0.4512390000000  0.5589290000000  0.4404250000000 1.0
C      1  0.4952960000000  0.5577750000000  0.4226910000000 1.0
C      1  0.5789080000000  0.4637660000000  0.5502720000000 1.0
C      1  0.5304000000000  0.4606540000000  0.5860360000000 1.0
C      1  0.4783450000000  0.4640860000000  0.5813330000000 1.0
C      1  0.4310100000000  0.4606120000000  0.5595860000000 1.0
C      1  0.4065980000000  0.4640840000000  0.5049370000000 1.0
C      1  0.4210920000000  0.4637660000000  0.4497280000000 1.0
C      1  0.4696000000000  0.4606540000000  0.4139640000000 1.0
C      1  0.5216550000000  0.4640860000000  0.4186670000000 1.0
C      1  0.5689900000000  0.4606120000000  0.4404140000000 1.0
C      1  0.5934020000000  0.4640840000000  0.4950630000000 1.0
C      1  0.5165280000000  0.4785100000000  0.5418810000000 1.0
C      1  0.4892320000000  0.4907460000000  0.5393370000000 1.0
C      1  0.4642660000000  0.4789250000000  0.5276020000000 1.0
C      1  0.4515070000000  0.4892660000000  0.5033720000000 1.0
C      1  0.4600470000000  0.4875520000000  0.4733700000000 1.0
C      1  0.4834720000000  0.4785100000000  0.4581190000000 1.0
C      1  0.5107680000000  0.4907460000000  0.4606630000000 1.0
C      1  0.5357340000000  0.4789250000000  0.4723980000000 1.0
C      1  0.5484930000000  0.4892660000000  0.4966280000000 1.0
C      1  0.5399530000000  0.4875520000000  0.5266300000000 1.0
C      1  0.5818930000000  0.4374830000000  0.4950050000000 1.0
C      1  0.5694500000000  0.4369280000000  0.5445570000000 1.0
C      1  0.5265900000000  0.4337730000000  0.5749410000000 1.0
C      1  0.4822210000000  0.4382820000000  0.5686630000000 1.0
C      1  0.4404270000000  0.4338030000000  0.5521600000000 1.0
C      1  0.4181070000000  0.4374830000000  0.5049950000000 1.0
C      1  0.4305500000000  0.4369280000000  0.4554430000000 1.0
C      1  0.4734100000000  0.4337730000000  0.4250590000000 1.0
C      1  0.5177790000000  0.4382820000000  0.4313370000000 1.0
C      1  0.5595730000000  0.4338030000000  0.4478400000000 1.0
END
