TITL C-862128-1543-1146 0.00723730661754916 125000 -789.667564137256 0 0 150 (C1) n - 1
REM
REM in /home/nfs/bkarasulu/CARBON/AIRSS/Generating-Clusters/TERSOFF/Higher-Symm/FIRE-HFTN
REM
REM
REM
REM
REM
REM ./C.cell (b20cbc046b6831c77cfcea5457e17084)
REM AIRSS Version 0.9.1 bugfix July 2018 build 013d7b7c2542+ Fri, 06 Jul 2018 19:26:36 +0100
REM compiler GCC version 9.2.1 20190827 (Red Hat 9.2.1-1)
REM options -cpp -mtune=generic -march=x86-64 -g -O0 -fpre-include=/usr/include/finclude/math-vector-fortran.h
REM seed -705614233 -1065693509 -1275847021 119113202 71584250 -923070474 508055506 237116976 -835520001 127741677 -369716027 450204387 -1488473007 -871624827 -319236094 1260562389 -1993613406 -784176094 -272459570 503559474 1554826224 742364534 -316927964 -1299021006 642847018 580180006 -1296959637 1550848824 1557760610 -1650471376 -1938982531 270202788 -1746511581
REM
CELL 1.54180   50.00000   50.00000   50.00000   90.00000   90.00000   90.00000
LATT -1
SFAC C  
C      1  0.5098490000000  0.5284530000000  0.4393980000000 1.0
C      1  0.4750970000000  0.4944550000000  0.4352180000000 1.0
C      1  0.5219250000000  0.4755660000000  0.4405150000000 1.0
C      1  0.4527380000000  0.4939200000000  0.4135730000000 1.0
C      1  0.5294670000000  0.4637070000000  0.4138650000000 1.0
C      1  0.5159170000000  0.5419950000000  0.4146980000000 1.0
C      1  0.4436030000000  0.5506400000000  0.4332360000000 1.0
C      1  0.4848760000000  0.4239160000000  0.4326390000000 1.0
C      1  0.5719070000000  0.5230900000000  0.4306650000000 1.0
C      1  0.4573830000000  0.4243110000000  0.4878330000000 1.0
C      1  0.5867290000000  0.5002840000000  0.4888110000000 1.0
C      1  0.4568300000000  0.5759900000000  0.4883280000000 1.0
C      1  0.4928610000000  0.4315370000000  0.5786970000000 1.0
C      1  0.5618710000000  0.5285270000000  0.5782340000000 1.0
C      1  0.4441760000000  0.5396160000000  0.5787040000000 1.0
C      1  0.4165490000000  0.4547310000000  0.5392240000000 1.0
C      1  0.5807950000000  0.4505180000000  0.5400480000000 1.0
C      1  0.5021210000000  0.5960810000000  0.5406280000000 1.0
C      1  0.5130270000000  0.4772150000000  0.4866730000000 1.0
C      1  0.5142000000000  0.5232300000000  0.4864970000000 1.0
C      1  0.4761670000000  0.4991250000000  0.4868110000000 1.0
C      1  0.5081640000000  0.4066480000000  0.4767010000000 1.0
C      1  0.5760530000000  0.5525090000000  0.4758500000000 1.0
C      1  0.4179830000000  0.5398690000000  0.4768910000000 1.0
C      1  0.5582300000000  0.5045870000000  0.4994290000000 1.0
C      1  0.4668310000000  0.5487070000000  0.4987920000000 1.0
C      1  0.4756040000000  0.4464490000000  0.4988700000000 1.0
C      1  0.4935970000000  0.4853080000000  0.4111510000000 1.0
C      1  0.5093290000000  0.5026220000000  0.3949130000000 1.0
C      1  0.4938250000000  0.5249210000000  0.3833800000000 1.0
C      1  0.4844240000000  0.6022700000000  0.5181310000000 1.0
C      1  0.4204160000000  0.4360700000000  0.5170410000000 1.0
C      1  0.5953820000000  0.4626140000000  0.5179370000000 1.0
C      1  0.5092450000000  0.5715350000000  0.4211130000000 1.0
C      1  0.4329780000000  0.4724630000000  0.4242140000000 1.0
C      1  0.5583740000000  0.4555700000000  0.4222400000000 1.0
C      1  0.5585880000000  0.5013490000000  0.5892060000000 1.0
C      1  0.4692740000000  0.5503510000000  0.5900850000000 1.0
C      1  0.4711380000000  0.4487440000000  0.5889620000000 1.0
C      1  0.5450370000000  0.5667750000000  0.5528380000000 1.0
C      1  0.4200340000000  0.5061810000000  0.5523560000000 1.0
C      1  0.5345780000000  0.4269700000000  0.5529230000000 1.0
C      1  0.5401490000000  0.4192100000000  0.4801570000000 1.0
C      1  0.5494760000000  0.5739110000000  0.4795430000000 1.0
C      1  0.4103860000000  0.5059400000000  0.4788820000000 1.0
C      1  0.5093390000000  0.4303050000000  0.4539470000000 1.0
C      1  0.5554160000000  0.5423360000000  0.4525480000000 1.0
C      1  0.4378140000000  0.5256580000000  0.4540880000000 1.0
C      1  0.4700190000000  0.5018720000000  0.5964790000000 1.0
C      1  0.5134650000000  0.4727450000000  0.5973740000000 1.0
C      1  0.5167300000000  0.5252910000000  0.5972070000000 1.0
C      1  0.4142170000000  0.5398090000000  0.5122890000000 1.0
C      1  0.5087550000000  0.4035740000000  0.5123860000000 1.0
C      1  0.5770900000000  0.5549260000000  0.5118260000000 1.0
C      1  0.5037350000000  0.5502020000000  0.5294290000000 1.0
C      1  0.4568060000000  0.4803570000000  0.5279530000000 1.0
C      1  0.5365640000000  0.4718260000000  0.5293220000000 1.0
C      1  0.5254810000000  0.5763060000000  0.5314370000000 1.0
C      1  0.4224280000000  0.4850850000000  0.5304590000000 1.0
C      1  0.5517510000000  0.4400950000000  0.5313150000000 1.0
C      1  0.4537210000000  0.5879100000000  0.5160960000000 1.0
C      1  0.4478700000000  0.4159860000000  0.5155690000000 1.0
C      1  0.5989280000000  0.4965980000000  0.5163760000000 1.0
C      1  0.4594240000000  0.5208490000000  0.5387530000000 1.0
C      1  0.5016760000000  0.4509340000000  0.5397940000000 1.0
C      1  0.5374380000000  0.5247710000000  0.5389070000000 1.0
C      1  0.5340940000000  0.4726310000000  0.5596110000000 1.0
C      1  0.5048310000000  0.5438190000000  0.5590970000000 1.0
C      1  0.4592620000000  0.4830590000000  0.5583250000000 1.0
C      1  0.4839360000000  0.4586110000000  0.4023830000000 1.0
C      1  0.5400980000000  0.5047210000000  0.3990500000000 1.0
C      1  0.4709680000000  0.5368510000000  0.3979570000000 1.0
C      1  0.5668400000000  0.5894550000000  0.5144260000000 1.0
C      1  0.3898250000000  0.5132690000000  0.5146950000000 1.0
C      1  0.5441110000000  0.3968890000000  0.5154420000000 1.0
C      1  0.5585910000000  0.4919870000000  0.4245170000000 1.0
C      1  0.4763540000000  0.5561100000000  0.4246220000000 1.0
C      1  0.4616480000000  0.4498270000000  0.4267910000000 1.0
C      1  0.5058210000000  0.6062730000000  0.4903340000000 1.0
C      1  0.4072360000000  0.4518700000000  0.4893980000000 1.0
C      1  0.5890180000000  0.4426810000000  0.4905000000000 1.0
C      1  0.4935250000000  0.5172570000000  0.5626230000000 1.0
C      1  0.4882500000000  0.4846410000000  0.5606820000000 1.0
C      1  0.5181380000000  0.4966890000000  0.5631910000000 1.0
C      1  0.5622800000000  0.4830880000000  0.5667240000000 1.0
C      1  0.4824740000000  0.5633100000000  0.5674390000000 1.0
C      1  0.4532710000000  0.4539550000000  0.5665190000000 1.0
C      1  0.5063530000000  0.4772720000000  0.5169660000000 1.0
C      1  0.5109170000000  0.5222220000000  0.5174110000000 1.0
C      1  0.4835050000000  0.5022510000000  0.5194920000000 1.0
C      1  0.4312840000000  0.4990680000000  0.5004300000000 1.0
C      1  0.5356060000000  0.4403830000000  0.5015530000000 1.0
C      1  0.5333910000000  0.5608020000000  0.5017240000000 1.0
C      1  0.4792180000000  0.5924380000000  0.4744440000000 1.0
C      1  0.4324190000000  0.4361430000000  0.4737450000000 1.0
C      1  0.5897870000000  0.4726310000000  0.4747390000000 1.0
C      1  0.5512600000000  0.4599210000000  0.4856030000000 1.0
C      1  0.5088990000000  0.5648590000000  0.4855020000000 1.0
C      1  0.4410920000000  0.4761300000000  0.4846340000000 1.0
C      1  0.4112770000000  0.5333860000000  0.5446680000000 1.0
C      1  0.5155330000000  0.4056120000000  0.5449570000000 1.0
C      1  0.5729080000000  0.5608290000000  0.5445510000000 1.0
C      1  0.5315670000000  0.5969970000000  0.4707720000000 1.0
C      1  0.4018310000000  0.4780240000000  0.4698420000000 1.0
C      1  0.5687260000000  0.4246150000000  0.4710350000000 1.0
C      1  0.4692860000000  0.4502830000000  0.5341400000000 1.0
C      1  0.5554390000000  0.4981330000000  0.5340760000000 1.0
C      1  0.4716700000000  0.5515600000000  0.5345740000000 1.0
C      1  0.4314750000000  0.5684780000000  0.4741850000000 1.0
C      1  0.4761540000000  0.4053470000000  0.4739810000000 1.0
C      1  0.5936970000000  0.5258010000000  0.4745330000000 1.0
C      1  0.4670630000000  0.5147450000000  0.4583370000000 1.0
C      1  0.5041440000000  0.4605900000000  0.4594850000000 1.0
C      1  0.5316330000000  0.5227700000000  0.4585700000000 1.0
C      1  0.4254590000000  0.4468500000000  0.5654510000000 1.0
C      1  0.5826970000000  0.4630850000000  0.5656930000000 1.0
C      1  0.4902480000000  0.5909350000000  0.5662980000000 1.0
C      1  0.5705660000000  0.4202880000000  0.5127450000000 1.0
C      1  0.5344470000000  0.6012550000000  0.5124320000000 1.0
C      1  0.3962900000000  0.4789060000000  0.5114430000000 1.0
C      1  0.5420040000000  0.4867760000000  0.4812610000000 1.0
C      1  0.4905710000000  0.5434280000000  0.4803020000000 1.0
C      1  0.4687060000000  0.4701340000000  0.4807190000000 1.0
C      1  0.4441810000000  0.5258190000000  0.5103320000000 1.0
C      1  0.5061690000000  0.4358540000000  0.5105650000000 1.0
C      1  0.5500720000000  0.5358030000000  0.5106560000000 1.0
C      1  0.5436800000000  0.5684140000000  0.4317500000000 1.0
C      1  0.4187210000000  0.5034710000000  0.4361240000000 1.0
C      1  0.5382890000000  0.4277040000000  0.4335170000000 1.0
C      1  0.4846490000000  0.5375450000000  0.4512550000000 1.0
C      1  0.4757850000000  0.4673580000000  0.4509960000000 1.0
C      1  0.5409370000000  0.4951840000000  0.4522580000000 1.0
C      1  0.4311350000000  0.5670680000000  0.5294190000000 1.0
C      1  0.4766120000000  0.4058180000000  0.5292530000000 1.0
C      1  0.5921950000000  0.5268240000000  0.5292810000000 1.0
C      1  0.5852020000000  0.5361280000000  0.5601480000000 1.0
C      1  0.4262960000000  0.5562890000000  0.5604780000000 1.0
C      1  0.4877810000000  0.4076590000000  0.5603600000000 1.0
C      1  0.4234750000000  0.5314390000000  0.4150990000000 1.0
C      1  0.5115630000000  0.4189200000000  0.4136380000000 1.0
C      1  0.5631460000000  0.5481340000000  0.4117180000000 1.0
C      1  0.4859530000000  0.5275900000000  0.6025090000000 1.0
C      1  0.4830670000000  0.4743230000000  0.6010090000000 1.0
C      1  0.5311910000000  0.4982900000000  0.6029330000000 1.0
C      1  0.5340270000000  0.5423520000000  0.5704740000000 1.0
C      1  0.4462620000000  0.5087160000000  0.5702840000000 1.0
C      1  0.5193310000000  0.4481420000000  0.5715660000000 1.0
C      1  0.5396510000000  0.5345260000000  0.3995690000000 1.0
C      1  0.4466290000000  0.5193750000000  0.4004200000000 1.0
C      1  0.5104620000000  0.4453980000000  0.4003210000000 1.0
END
