TITL C-862127-1500-1081 -6.7337479601113e-07 125000 -23.1555288512075 0 0 7 (D(inf)h) n - 1
REM
REM in /home/nfs/bkarasulu/CARBON/AIRSS/Generating-Clusters/TERSOFF/Higher-Symm/FIRE-HFTN
REM
REM
REM
REM
REM
REM ./C.cell (b20cbc046b6831c77cfcea5457e17084)
REM AIRSS Version 0.9.1 bugfix July 2018 build 013d7b7c2542+ Fri, 06 Jul 2018 19:26:36 +0100
REM compiler GCC version 9.2.1 20190827 (Red Hat 9.2.1-1)
REM options -cpp -mtune=generic -march=x86-64 -g -O0 -fpre-include=/usr/include/finclude/math-vector-fortran.h
REM seed 597916648 782225978 2137290917 2083489939 2089008016 487671049 -1730277161 -11056343 -1533269176 14294482 -1070350564 -1571233236 2091574936 1308615127 1160037122 -201847265 1222754324 -948783259 -1026427770 -1546864098 1949271545 -2077098659 -43860687 -737043771 -1566493705 1912350259 -1926770132 1303322813 1009097595 -901924217 -250587771 1752713255 -1234283354
REM
CELL 1.54180   50.00000   50.00000   50.00000   90.00000   90.00000   90.00000
LATT -1
SFAC C  
C      1  0.4996030000000  0.5003170000000  0.4690110000000 1.0
C      1  0.4996030000000  0.5003170000000  0.4380230000000 1.0
C      1  0.4996030000000  0.5003170000000  0.5919100000000 1.0
C      1  0.4996030000000  0.5003170000000  0.5619770000000 1.0
C      1  0.4996030000000  0.5003170000000  0.5309890000000 1.0
C      1  0.4996030000000  0.5003170000000  0.4080900000000 1.0
C      1  0.4996030000000  0.5003170000000  0.5000000000000 1.0
END
