TITL C-862127-1500-1209 0.00283960680765355 125000 -248.561470606849 0 0 44 (C1) n - 1
REM
REM in /home/nfs/bkarasulu/CARBON/AIRSS/Generating-Clusters/TERSOFF/Higher-Symm/FIRE-HFTN
REM
REM
REM
REM
REM
REM ./C.cell (b20cbc046b6831c77cfcea5457e17084)
REM AIRSS Version 0.9.1 bugfix July 2018 build 013d7b7c2542+ Fri, 06 Jul 2018 19:26:36 +0100
REM compiler GCC version 9.2.1 20190827 (Red Hat 9.2.1-1)
REM options -cpp -mtune=generic -march=x86-64 -g -O0 -fpre-include=/usr/include/finclude/math-vector-fortran.h
REM seed -1880067898 -165608373 849032779 548447584 530994422 -1338655725 794368112 1267747520 729262327 -670665118 -505027291 1485621795 1442294604 1377004136 1808827167 -677327787 -1083682701 -1676120041 1676361450 -640115484 683357926 -308028643 1949205839 -1289442641 -1889671742 679297194 -762810849 -1934296117 -1713817812 558514909 1960805436 -1518834407 -679457678
REM
CELL 1.54180   50.00000   50.00000   50.00000   90.00000   90.00000   90.00000
LATT -1
SFAC C  
C      1  0.4747910000000  0.5280760000000  0.4407500000000 1.0
C      1  0.5415150000000  0.5251020000000  0.4605580000000 1.0
C      1  0.5296050000000  0.4691750000000  0.5466810000000 1.0
C      1  0.5341280000000  0.5402820000000  0.5079420000000 1.0
C      1  0.4801630000000  0.4922180000000  0.5391150000000 1.0
C      1  0.4641000000000  0.4992530000000  0.5631580000000 1.0
C      1  0.5186530000000  0.4968780000000  0.5136390000000 1.0
C      1  0.5291490000000  0.4715260000000  0.4458250000000 1.0
C      1  0.4746170000000  0.5671740000000  0.5035090000000 1.0
C      1  0.4898830000000  0.4419870000000  0.5310010000000 1.0
C      1  0.4858480000000  0.5769150000000  0.5286710000000 1.0
C      1  0.4805640000000  0.4443920000000  0.4753910000000 1.0
C      1  0.4577820000000  0.4802540000000  0.4377050000000 1.0
C      1  0.5683550000000  0.5147290000000  0.4636810000000 1.0
C      1  0.4492630000000  0.4647640000000  0.5071640000000 1.0
C      1  0.5290500000000  0.4481100000000  0.4676480000000 1.0
C      1  0.5062290000000  0.4714190000000  0.5049560000000 1.0
C      1  0.4462240000000  0.5649740000000  0.5013010000000 1.0
C      1  0.4873320000000  0.5492980000000  0.4569330000000 1.0
C      1  0.5191770000000  0.4442980000000  0.5342480000000 1.0
C      1  0.5105710000000  0.4950090000000  0.5450890000000 1.0
C      1  0.4342710000000  0.4894380000000  0.5063250000000 1.0
C      1  0.5495020000000  0.4955190000000  0.5128560000000 1.0
C      1  0.5372340000000  0.4292560000000  0.5159930000000 1.0
C      1  0.4539730000000  0.4528380000000  0.4806580000000 1.0
C      1  0.4337170000000  0.5395540000000  0.5022630000000 1.0
C      1  0.5176290000000  0.5130840000000  0.4720380000000 1.0
C      1  0.5032780000000  0.4623750000000  0.4775890000000 1.0
C      1  0.5171780000000  0.5178120000000  0.5631300000000 1.0
C      1  0.5576810000000  0.5230640000000  0.5088030000000 1.0
C      1  0.4715950000000  0.4648710000000  0.5277350000000 1.0
C      1  0.5467370000000  0.4390790000000  0.4896200000000 1.0
C      1  0.5083250000000  0.5647310000000  0.5422520000000 1.0
C      1  0.5038540000000  0.5441010000000  0.5626390000000 1.0
C      1  0.5045020000000  0.4901220000000  0.4582320000000 1.0
C      1  0.4902460000000  0.5486900000000  0.4861930000000 1.0
C      1  0.5318030000000  0.5619420000000  0.5263110000000 1.0
C      1  0.4766530000000  0.5132860000000  0.5165700000000 1.0
C      1  0.4421440000000  0.4657160000000  0.4574840000000 1.0
C      1  0.5528610000000  0.4819970000000  0.4329450000000 1.0
C      1  0.4795480000000  0.4990760000000  0.4440270000000 1.0
C      1  0.5561680000000  0.4782810000000  0.5360930000000 1.0
C      1  0.4480880000000  0.5146940000000  0.5062560000000 1.0
C      1  0.5060110000000  0.5246450000000  0.4990280000000 1.0
END
