TITL C-862505-1648-18 -0.000580738891206915 125000 -706.575758631947 0 0 154 (T23) n - 1
REM
REM in /home/nfs/bkarasulu/CARBON/AIRSS/Generating-Clusters/TERSOFF/Higher-Symm/FIRE-HFTN
REM
REM
REM
REM
REM
REM ./C.cell (b20cbc046b6831c77cfcea5457e17084)
REM AIRSS Version 0.9.1 bugfix July 2018 build 013d7b7c2542+ Fri, 06 Jul 2018 19:26:36 +0100
REM compiler GCC version 9.2.1 20190827 (Red Hat 9.2.1-1)
REM options -cpp -mtune=generic -march=x86-64 -g -O0 -fpre-include=/usr/include/finclude/math-vector-fortran.h
REM seed 939904391 -872140932 -782199029 -79041200 1390066828 -1183162475 -1632978042 302101879 1708665683 1017317725 184042954 -2012875050 -1559533796 -1660601987 -1108425264 769539998 -2009530524 1171927662 -288209091 -2108481816 129369346 -886032519 313748526 -24261010 1778980669 -228783633 -676220979 -1966609370 -1085843715 557173911 -1445996620 1406968302 1645912950
REM
CELL 1.54180   50.00000   50.00000   50.00000   90.00000   90.00000   90.00000
LATT -1
SFAC C  
C      1  0.5600220000000  0.5349740000000  0.4203110000000 1.0
C      1  0.4202180000000  0.5597680000000  0.5353220000000 1.0
C      1  0.5352280000000  0.4199630000000  0.5601150000000 1.0
C      1  0.4405010000000  0.5349740000000  0.5803990000000 1.0
C      1  0.5600220000000  0.4650400000000  0.5803990000000 1.0
C      1  0.4405010000000  0.4650410000000  0.4203110000000 1.0
C      1  0.5803060000000  0.5597680000000  0.4653880000000 1.0
C      1  0.4202170000000  0.4402470000000  0.4653880000000 1.0
C      1  0.5803060000000  0.4402470000000  0.5353220000000 1.0
C      1  0.4652950000000  0.4199630000000  0.4405950000000 1.0
C      1  0.5352280000000  0.5800510000000  0.4405950000000 1.0
C      1  0.4652950000000  0.5800510000000  0.5601150000000 1.0
C      1  0.4615960000000  0.4450940000000  0.4913580000000 1.0
C      1  0.4912650000000  0.4613420000000  0.4454410000000 1.0
C      1  0.4453480000000  0.4910110000000  0.4616890000000 1.0
C      1  0.5389270000000  0.4450940000000  0.5093520000000 1.0
C      1  0.4615960000000  0.5549210000000  0.5093520000000 1.0
C      1  0.5389270000000  0.5549210000000  0.4913580000000 1.0
C      1  0.5092580000000  0.4613420000000  0.5552690000000 1.0
C      1  0.4912650000000  0.5386730000000  0.5552690000000 1.0
C      1  0.5092580000000  0.5386730000000  0.4454410000000 1.0
C      1  0.5551750000000  0.4910110000000  0.5390210000000 1.0
C      1  0.4453480000000  0.5090040000000  0.5390210000000 1.0
C      1  0.5551750000000  0.5090040000000  0.4616890000000 1.0
C      1  0.5035950000000  0.5618030000000  0.4853430000000 1.0
C      1  0.4852490000000  0.5033410000000  0.5621500000000 1.0
C      1  0.5620570000000  0.4849950000000  0.5036880000000 1.0
C      1  0.4969280000000  0.5618030000000  0.5153670000000 1.0
C      1  0.5035950000000  0.4382120000000  0.5153670000000 1.0
C      1  0.4969280000000  0.4382120000000  0.4853430000000 1.0
C      1  0.5152740000000  0.5033410000000  0.4385590000000 1.0
C      1  0.4852490000000  0.4966740000000  0.4385590000000 1.0
C      1  0.5152740000000  0.4966740000000  0.5621500000000 1.0
C      1  0.4384660000000  0.4849950000000  0.4970210000000 1.0
C      1  0.5620570000000  0.5150200000000  0.4970210000000 1.0
C      1  0.4384660000000  0.5150200000000  0.5036880000000 1.0
C      1  0.5262590000000  0.5537930000000  0.5313560000000 1.0
C      1  0.5312620000000  0.5260050000000  0.5541400000000 1.0
C      1  0.5540470000000  0.5310080000000  0.5263530000000 1.0
C      1  0.4742640000000  0.5537930000000  0.4693540000000 1.0
C      1  0.5262590000000  0.4462220000000  0.4693540000000 1.0
C      1  0.4742640000000  0.4462220000000  0.5313560000000 1.0
C      1  0.4692610000000  0.5260050000000  0.4465690000000 1.0
C      1  0.5312620000000  0.4740100000000  0.4465690000000 1.0
C      1  0.4692610000000  0.4740100000000  0.5541400000000 1.0
C      1  0.4464760000000  0.5310080000000  0.4743570000000 1.0
C      1  0.5540470000000  0.4690060000000  0.4743570000000 1.0
C      1  0.4464760000000  0.4690070000000  0.5263530000000 1.0
C      1  0.5240980000000  0.4035810000000  0.5347170000000 1.0
C      1  0.5346240000000  0.5238440000000  0.4039280000000 1.0
C      1  0.4038350000000  0.5343700000000  0.5241910000000 1.0
C      1  0.4764250000000  0.4035810000000  0.4659930000000 1.0
C      1  0.5240980000000  0.5964340000000  0.4659930000000 1.0
C      1  0.4764250000000  0.5964340000000  0.5347170000000 1.0
C      1  0.4658990000000  0.5238440000000  0.5967820000000 1.0
C      1  0.5346240000000  0.4761710000000  0.5967820000000 1.0
C      1  0.4658990000000  0.4761710000000  0.4039280000000 1.0
C      1  0.5966880000000  0.5343700000000  0.4765190000000 1.0
C      1  0.4038350000000  0.4656450000000  0.4765190000000 1.0
C      1  0.5966880000000  0.4656450000000  0.5241910000000 1.0
C      1  0.4784130000000  0.5270380000000  0.5011170000000 1.0
C      1  0.5010240000000  0.4781590000000  0.5273850000000 1.0
C      1  0.5272920000000  0.5007700000000  0.4785070000000 1.0
C      1  0.5221100000000  0.5270380000000  0.4995920000000 1.0
C      1  0.4784130000000  0.4729770000000  0.4995920000000 1.0
C      1  0.5221100000000  0.4729770000000  0.5011170000000 1.0
C      1  0.4994990000000  0.4781590000000  0.4733240000000 1.0
C      1  0.5010240000000  0.5218560000000  0.4733240000000 1.0
C      1  0.4994990000000  0.5218560000000  0.5273850000000 1.0
C      1  0.4732310000000  0.5007700000000  0.5222030000000 1.0
C      1  0.5272920000000  0.4992450000000  0.5222030000000 1.0
C      1  0.4732310000000  0.4992450000000  0.4785070000000 1.0
C      1  0.3999860000000  0.5358930000000  0.4935200000000 1.0
C      1  0.4934270000000  0.3997320000000  0.5362400000000 1.0
C      1  0.5361470000000  0.4931730000000  0.4000800000000 1.0
C      1  0.6005370000000  0.5358930000000  0.5071890000000 1.0
C      1  0.3999860000000  0.4641220000000  0.5071890000000 1.0
C      1  0.6005370000000  0.4641220000000  0.4935210000000 1.0
C      1  0.5070960000000  0.3997320000000  0.4644690000000 1.0
C      1  0.4934270000000  0.6002830000000  0.4644690000000 1.0
C      1  0.5070960000000  0.6002830000000  0.5362400000000 1.0
C      1  0.4643760000000  0.4931730000000  0.6006300000000 1.0
C      1  0.5361470000000  0.5068420000000  0.6006300000000 1.0
C      1  0.4643760000000  0.5068420000000  0.4000800000000 1.0
C      1  0.5060230000000  0.5339470000000  0.4114960000000 1.0
C      1  0.4114030000000  0.5057690000000  0.5342940000000 1.0
C      1  0.5342010000000  0.4111480000000  0.5061160000000 1.0
C      1  0.4945000000000  0.5339470000000  0.5892140000000 1.0
C      1  0.5060230000000  0.4660680000000  0.5892140000000 1.0
C      1  0.4945000000000  0.4660680000000  0.4114960000000 1.0
C      1  0.5891210000000  0.5057690000000  0.4664160000000 1.0
C      1  0.4114030000000  0.4942460000000  0.4664160000000 1.0
C      1  0.5891200000000  0.4942460000000  0.5342940000000 1.0
C      1  0.4663220000000  0.4111480000000  0.4945930000000 1.0
C      1  0.5342010000000  0.5888660000000  0.4945930000000 1.0
C      1  0.4663220000000  0.5888660000000  0.5061160000000 1.0
C      1  0.4162980000000  0.4748430000000  0.5312090000000 1.0
C      1  0.5311160000000  0.4160440000000  0.4751900000000 1.0
C      1  0.4750970000000  0.5308620000000  0.4163920000000 1.0
C      1  0.5842250000000  0.4748430000000  0.4695010000000 1.0
C      1  0.4162990000000  0.5251720000000  0.4695010000000 1.0
C      1  0.5842250000000  0.5251720000000  0.5312090000000 1.0
C      1  0.4694070000000  0.4160440000000  0.5255190000000 1.0
C      1  0.5311160000000  0.5839700000000  0.5255190000000 1.0
C      1  0.4694070000000  0.5839700000000  0.4751900000000 1.0
C      1  0.5254260000000  0.5308620000000  0.5843180000000 1.0
C      1  0.4750970000000  0.4691530000000  0.5843180000000 1.0
C      1  0.5254260000000  0.4691530000000  0.4163920000000 1.0
C      1  0.4275940000000  0.5584760000000  0.4993970000000 1.0
C      1  0.4993030000000  0.4273400000000  0.5588240000000 1.0
C      1  0.5587300000000  0.4990490000000  0.4276870000000 1.0
C      1  0.5729290000000  0.5584760000000  0.5013130000000 1.0
C      1  0.4275940000000  0.4415390000000  0.5013130000000 1.0
C      1  0.5729290000000  0.4415390000000  0.4993970000000 1.0
C      1  0.5012200000000  0.4273400000000  0.4418860000000 1.0
C      1  0.4993040000000  0.5726750000000  0.4418860000000 1.0
C      1  0.5012200000000  0.5726750000000  0.5588240000000 1.0
C      1  0.4417930000000  0.4990490000000  0.5730230000000 1.0
C      1  0.5587300000000  0.5009650000000  0.5730230000000 1.0
C      1  0.4417930000000  0.5009660000000  0.4276870000000 1.0
C      1  0.4301140000000  0.4291520000000  0.5323720000000 1.0
C      1  0.5322780000000  0.4298600000000  0.4294990000000 1.0
C      1  0.4294060000000  0.5320240000000  0.4302070000000 1.0
C      1  0.5704090000000  0.4291520000000  0.4683380000000 1.0
C      1  0.4301140000000  0.5708630000000  0.4683380000000 1.0
C      1  0.5704090000000  0.5708630000000  0.5323720000000 1.0
C      1  0.4682450000000  0.4298600000000  0.5712100000000 1.0
C      1  0.5322780000000  0.5701550000000  0.5712100000000 1.0
C      1  0.4682450000000  0.5701550000000  0.4294990000000 1.0
C      1  0.5711170000000  0.5320240000000  0.5705020000000 1.0
C      1  0.4294060000000  0.4679910000000  0.5705020000000 1.0
C      1  0.5711170000000  0.4679900000000  0.4302070000000 1.0
C      1  0.5627030000000  0.4168790000000  0.5445490000000 1.0
C      1  0.5444560000000  0.5624490000000  0.4172260000000 1.0
C      1  0.4171330000000  0.5442020000000  0.5627960000000 1.0
C      1  0.4378200000000  0.4168790000000  0.4561610000000 1.0
C      1  0.5627030000000  0.5831360000000  0.4561610000000 1.0
C      1  0.4378200000000  0.5831360000000  0.5445490000000 1.0
C      1  0.4560670000000  0.5624490000000  0.5834830000000 1.0
C      1  0.5444560000000  0.4375660000000  0.5834830000000 1.0
C      1  0.4560670000000  0.4375660000000  0.4172260000000 1.0
C      1  0.5833900000000  0.5442020000000  0.4379130000000 1.0
C      1  0.4171330000000  0.4558130000000  0.4379130000000 1.0
C      1  0.5833900000000  0.4558130000000  0.5627960000000 1.0
C      1  0.5002620000000  0.6008520000000  0.5003550000000 1.0
C      1  0.5002610000000  0.3991630000000  0.5003550000000 1.0
C      1  0.5002620000000  0.5000070000000  0.6011990000000 1.0
C      1  0.6011060000000  0.5000070000000  0.5003550000000 1.0
C      1  0.5002620000000  0.5000070000000  0.3995100000000 1.0
C      1  0.3994170000000  0.5000070000000  0.5003550000000 1.0
C      1  0.4423470000000  0.5579220000000  0.4424400000000 1.0
C      1  0.4423470000000  0.4420920000000  0.5582700000000 1.0
C      1  0.5581760000000  0.4420920000000  0.4424400000000 1.0
C      1  0.5581770000000  0.5579220000000  0.5582700000000 1.0
END
