TITL C-862131-2149-88 0.25791890892453 125000 -758.560256831194 0 0 131 (C3) n - 1
REM
REM in /home/nfs/bkarasulu/CARBON/AIRSS/Generating-Clusters/TERSOFF/Higher-Symm/FIRE-HFTN
REM
REM
REM
REM
REM
REM ./C.cell (b20cbc046b6831c77cfcea5457e17084)
REM AIRSS Version 0.9.1 bugfix July 2018 build 013d7b7c2542+ Fri, 06 Jul 2018 19:26:36 +0100
REM compiler GCC version 9.2.1 20190827 (Red Hat 9.2.1-1)
REM options -cpp -mtune=generic -march=x86-64 -g -O0 -fpre-include=/usr/include/finclude/math-vector-fortran.h
REM seed -776266041 597188088 -25778534 -1941631332 371505693 -540543914 -1249054792 384565506 571608756 129284296 58092721 1281098648 265114025 1442356150 -545685891 1766936941 -2090506642 -663549009 -1519297097 181110553 -2096982548 1366040747 -238713011 -1405186482 96747075 878833903 1259352822 1133145978 173149608 -249358063 -1123958009 -548545732 -208149514
REM
CELL 1.54180   50.00000   50.00000   50.00000   90.00000   90.00000   90.00000
LATT -1
SFAC C  
C      1  0.5738860000000  0.5470090000000  0.4871740000000 1.0
C      1  0.5038490000000  0.4126480000000  0.4871740000000 1.0
C      1  0.4225070000000  0.5404820000000  0.4871730000000 1.0
C      1  0.5819020000000  0.4953050000000  0.4385700000000 1.0
C      1  0.4550640000000  0.4315580000000  0.4385690000000 1.0
C      1  0.4632760000000  0.5732760000000  0.4385690000000 1.0
C      1  0.4343830000000  0.4269830000000  0.4623070000000 1.0
C      1  0.4696540000000  0.5934730000000  0.4623070000000 1.0
C      1  0.5962040000000  0.4796830000000  0.4623080000000 1.0
C      1  0.5836720000000  0.4531070000000  0.4705990000000 1.0
C      1  0.4176340000000  0.4511240000000  0.4705980000000 1.0
C      1  0.4989360000000  0.5959080000000  0.4705980000000 1.0
C      1  0.4013450000000  0.5433690000000  0.4677010000000 1.0
C      1  0.5869670000000  0.5638930000000  0.4677020000000 1.0
C      1  0.5119300000000  0.3928770000000  0.4677020000000 1.0
C      1  0.4256570000000  0.4849510000000  0.4327600000000 1.0
C      1  0.5242200000000  0.5720470000000  0.4327600000000 1.0
C      1  0.5503650000000  0.4431410000000  0.4327600000000 1.0
C      1  0.5085980000000  0.5599720000000  0.4105950000000 1.0
C      1  0.5477190000000  0.4627070000000  0.4105950000000 1.0
C      1  0.4439250000000  0.4774590000000  0.4105950000000 1.0
C      1  0.4703160000000  0.4148520000000  0.5239240000000 1.0
C      1  0.4411820000000  0.5684210000000  0.5239230000000 1.0
C      1  0.5887430000000  0.5168670000000  0.5239240000000 1.0
C      1  0.5017850000000  0.4431680000000  0.4357290000000 1.0
C      1  0.4499700000000  0.5270090000000  0.4357280000000 1.0
C      1  0.5484870000000  0.5299620000000  0.4357290000000 1.0
C      1  0.3668790000000  0.4746180000000  0.5568700000000 1.0
C      1  0.5446570000000  0.6281180000000  0.5568680000000 1.0
C      1  0.5887040000000  0.3974060000000  0.5568700000000 1.0
C      1  0.5260370000000  0.4272960000000  0.4338340000000 1.0
C      1  0.4240990000000  0.5139420000000  0.4338330000000 1.0
C      1  0.5501060000000  0.5589000000000  0.4338340000000 1.0
C      1  0.4058790000000  0.5309000000000  0.5331080000000 1.0
C      1  0.5739000000000  0.5662000000000  0.5331090000000 1.0
C      1  0.5204610000000  0.4030400000000  0.5331090000000 1.0
C      1  0.4971440000000  0.4057730000000  0.5143150000000 1.0
C      1  0.4199050000000  0.5497260000000  0.5143140000000 1.0
C      1  0.5831920000000  0.5446400000000  0.5143150000000 1.0
C      1  0.4958690000000  0.4668670000000  0.4155580000000 1.0
C      1  0.4734530000000  0.5202830000000  0.4155580000000 1.0
C      1  0.5309210000000  0.5129880000000  0.4155580000000 1.0
C      1  0.4610330000000  0.5592700000000  0.5442510000000 1.0
C      1  0.5708930000000  0.5042500000000  0.5442520000000 1.0
C      1  0.4683140000000  0.4366190000000  0.5442510000000 1.0
C      1  0.4449330000000  0.4064070000000  0.5103100000000 1.0
C      1  0.4465600000000  0.5946250000000  0.5103090000000 1.0
C      1  0.6087480000000  0.4991070000000  0.5103100000000 1.0
C      1  0.4934870000000  0.4803890000000  0.5971570000000 1.0
C      1  0.4863530000000  0.5155850000000  0.5971570000000 1.0
C      1  0.5204000000000  0.5041660000000  0.5971570000000 1.0
C      1  0.5486930000000  0.5756190000000  0.5885170000000 1.0
C      1  0.5412210000000  0.4201600000000  0.5885170000000 1.0
C      1  0.4103260000000  0.5043610000000  0.5885160000000 1.0
C      1  0.5238660000000  0.5174680000000  0.5239120000000 1.0
C      1  0.5032750000000  0.4707360000000  0.5239120000000 1.0
C      1  0.4731000000000  0.5119350000000  0.5239120000000 1.0
C      1  0.4974440000000  0.5299970000000  0.5212860000000 1.0
C      1  0.5273360000000  0.4873550000000  0.5212870000000 1.0
C      1  0.4754610000000  0.4827880000000  0.5212860000000 1.0
C      1  0.5571920000000  0.4547380000000  0.4588250000000 1.0
C      1  0.4322860000000  0.4732410000000  0.4588250000000 1.0
C      1  0.5107630000000  0.5721610000000  0.4588250000000 1.0
C      1  0.5818890000000  0.4411470000000  0.4981860000000 1.0
C      1  0.4081670000000  0.4586480000000  0.4981860000000 1.0
C      1  0.5101850000000  0.6003450000000  0.4981860000000 1.0
C      1  0.4904390000000  0.5572530000000  0.5313660000000 1.0
C      1  0.5544430000000  0.4797930000000  0.5313670000000 1.0
C      1  0.4553580000000  0.4630940000000  0.5313660000000 1.0
C      1  0.5576800000000  0.6151400000000  0.5345140000000 1.0
C      1  0.5709540000000  0.3926160000000  0.5345140000000 1.0
C      1  0.3716060000000  0.4923830000000  0.5345130000000 1.0
C      1  0.4746150000000  0.4534800000000  0.4754400000000 1.0
C      1  0.4724860000000  0.5453830000000  0.4754390000000 1.0
C      1  0.5531410000000  0.5012760000000  0.4754400000000 1.0
C      1  0.4797170000000  0.4306460000000  0.5951620000000 1.0
C      1  0.4501590000000  0.5523820000000  0.5951610000000 1.0
C      1  0.5703640000000  0.5171110000000  0.5951620000000 1.0
C      1  0.5207020000000  0.4613850000000  0.3982400000000 1.0
C      1  0.4562880000000  0.5015180000000  0.3982390000000 1.0
C      1  0.5232520000000  0.5372350000000  0.3982390000000 1.0
C      1  0.5013780000000  0.4504730000000  0.5972750000000 1.0
C      1  0.4564990000000  0.5237090000000  0.5972750000000 1.0
C      1  0.5423630000000  0.5259580000000  0.5972750000000 1.0
C      1  0.5314690000000  0.4947740000000  0.5703480000000 1.0
C      1  0.4798190000000  0.4754990000000  0.5703480000000 1.0
C      1  0.4889520000000  0.5298670000000  0.5703480000000 1.0
C      1  0.5816360000000  0.5026860000000  0.5722200000000 1.0
C      1  0.4615880000000  0.4280970000000  0.5722190000000 1.0
C      1  0.4570160000000  0.5693560000000  0.5722190000000 1.0
C      1  0.4588430000000  0.4769760000000  0.4696830000000 1.0
C      1  0.5007200000000  0.5472950000000  0.4696830000000 1.0
C      1  0.5406790000000  0.4758690000000  0.4696830000000 1.0
C      1  0.5493550000000  0.4103180000000  0.5263850000000 1.0
C      1  0.3977360000000  0.5022380000000  0.5263840000000 1.0
C      1  0.5531510000000  0.5875840000000  0.5263850000000 1.0
C      1  0.4803850000000  0.5540210000000  0.4166550000000 1.0
C      1  0.5566720000000  0.4901160000000  0.4166550000000 1.0
C      1  0.4631850000000  0.4560020000000  0.4166550000000 1.0
C      1  0.4538970000000  0.5491900000000  0.4536400000000 1.0
C      1  0.5657320000000  0.5154700000000  0.4536400000000 1.0
C      1  0.4806130000000  0.4354780000000  0.4536400000000 1.0
C      1  0.5271470000000  0.4452230000000  0.5845290000000 1.0
C      1  0.4390680000000  0.5040170000000  0.5845290000000 1.0
C      1  0.5340250000000  0.5508990000000  0.5845290000000 1.0
C      1  0.5257180000000  0.4001040000000  0.4435930000000 1.0
C      1  0.4007100000000  0.5278150000000  0.4435920000000 1.0
C      1  0.5738150000000  0.5722200000000  0.4435920000000 1.0
C      1  0.5410720000000  0.5151540000000  0.5496110000000 1.0
C      1  0.4926680000000  0.4569930000000  0.5496110000000 1.0
C      1  0.4665010000000  0.5279930000000  0.5496110000000 1.0
C      1  0.4472260000000  0.5998760000000  0.4810620000000 1.0
C      1  0.6129620000000  0.4959050000000  0.4810630000000 1.0
C      1  0.4400530000000  0.4043590000000  0.4810620000000 1.0
C      1  0.5282200000000  0.5803220000000  0.5114940000000 1.0
C      1  0.5555310000000  0.4355390000000  0.5114940000000 1.0
C      1  0.4164900000000  0.4842780000000  0.5114940000000 1.0
C      1  0.5266730000000  0.5532570000000  0.5021220000000 1.0
C      1  0.5328660000000  0.4504110000000  0.5021220000000 1.0
C      1  0.4407020000000  0.4964710000000  0.5021220000000 1.0
C      1  0.5131870000000  0.4395820000000  0.4845200000000 1.0
C      1  0.4411640000000  0.5189280000000  0.4845190000000 1.0
C      1  0.5458910000000  0.5416290000000  0.4845200000000 1.0
C      1  0.4729190000000  0.5006580000000  0.4640050000000 1.0
C      1  0.5141910000000  0.5232640000000  0.4640050000000 1.0
C      1  0.5131320000000  0.4762180000000  0.4640050000000 1.0
C      1  0.5102890000000  0.5498070000000  0.5676190000000 1.0
C      1  0.5380700000000  0.4663250000000  0.5676190000000 1.0
C      1  0.4518820000000  0.4840070000000  0.5676190000000 1.0
C      1  0.5000810000000  0.5000460000000  0.4542820000000 1.0
C      1  0.5000810000000  0.5000460000000  0.4240810000000 1.0
END
