TITL C-862501-1041-603 2.50260989730196 125000 -275.523852579059 0 0 56 (C1) n - 1
REM
REM in /home/nfs/bkarasulu/CARBON/AIRSS/Generating-Clusters/TERSOFF/Higher-Symm/FIRE-HFTN
REM
REM
REM
REM
REM
REM ./C.cell (b20cbc046b6831c77cfcea5457e17084)
REM AIRSS Version 0.9.1 bugfix July 2018 build 013d7b7c2542+ Fri, 06 Jul 2018 19:26:36 +0100
REM compiler GCC version 9.2.1 20190827 (Red Hat 9.2.1-1)
REM options -cpp -mtune=generic -march=x86-64 -g -O0 -fpre-include=/usr/include/finclude/math-vector-fortran.h
REM seed -1014415775 957843837 1572040228 -911267378 -1743566598 -543961159 231525973 723063603 -356811348 862855683 107249714 467403245 958492125 1593193423 -792933695 52512326 155071164 -2112997442 -930050901 -523649345 1453313052 -865739121 -148509667 -1102386527 -1053693677 368337345 1745226241 -540281130 1055251494 879790213 298032717 -358225153 -319916309
REM
CELL 1.54180   50.00000   50.00000   50.00000   90.00000   90.00000   90.00000
LATT -1
SFAC C  
C      1  0.5405530000000  0.5386160000000  0.5502040000000 1.0
C      1  0.5359470000000  0.4606070000000  0.5482860000000 1.0
C      1  0.4610640000000  0.4623500000000  0.5500200000000 1.0
C      1  0.4619000000000  0.5403260000000  0.5518760000000 1.0
C      1  0.5378570000000  0.4627810000000  0.4489020000000 1.0
C      1  0.5385220000000  0.5414680000000  0.4479040000000 1.0
C      1  0.4604180000000  0.5362890000000  0.4508110000000 1.0
C      1  0.4647860000000  0.4611260000000  0.4512670000000 1.0
C      1  0.4996980000000  0.4382210000000  0.4672160000000 1.0
C      1  0.4435610000000  0.4983270000000  0.4704150000000 1.0
C      1  0.4979760000000  0.5585800000000  0.4686300000000 1.0
C      1  0.5622940000000  0.5029650000000  0.4642480000000 1.0
C      1  0.5026450000000  0.5593790000000  0.5321590000000 1.0
C      1  0.4386570000000  0.5022660000000  0.5349140000000 1.0
C      1  0.4977400000000  0.4415060000000  0.5303900000000 1.0
C      1  0.5563510000000  0.4984340000000  0.5293530000000 1.0
C      1  0.5631800000000  0.5170840000000  0.5070560000000 1.0
C      1  0.5171110000000  0.4348500000000  0.5084110000000 1.0
C      1  0.4316700000000  0.4809230000000  0.5131180000000 1.0
C      1  0.4817040000000  0.5657050000000  0.5106310000000 1.0
C      1  0.5674350000000  0.4807790000000  0.4863720000000 1.0
C      1  0.5182490000000  0.5651880000000  0.4899410000000 1.0
C      1  0.4367300000000  0.5171470000000  0.4924760000000 1.0
C      1  0.4794950000000  0.4328530000000  0.4895550000000 1.0
C      1  0.5070720000000  0.4751060000000  0.4853210000000 1.0
C      1  0.4844110000000  0.4985810000000  0.4798600000000 1.0
C      1  0.5072190000000  0.5196220000000  0.4810190000000 1.0
C      1  0.5295070000000  0.4986620000000  0.4896270000000 1.0
C      1  0.4906240000000  0.5246200000000  0.5122110000000 1.0
C      1  0.4723530000000  0.4974750000000  0.5107220000000 1.0
C      1  0.4993690000000  0.4811600000000  0.5169430000000 1.0
C      1  0.5163380000000  0.5066710000000  0.5198250000000 1.0
C      1  0.4683700000000  0.5538930000000  0.4724500000000 1.0
C      1  0.5571450000000  0.5331360000000  0.4687170000000 1.0
C      1  0.5304910000000  0.4439640000000  0.4696620000000 1.0
C      1  0.4470550000000  0.4688030000000  0.4727980000000 1.0
C      1  0.4677750000000  0.4442650000000  0.5282350000000 1.0
C      1  0.5530010000000  0.4689060000000  0.5264450000000 1.0
C      1  0.5325860000000  0.5561240000000  0.5283610000000 1.0
C      1  0.4429800000000  0.5324790000000  0.5310710000000 1.0
C      1  0.5327200000000  0.5106280000000  0.5464650000000 1.0
C      1  0.5072590000000  0.4673350000000  0.5460580000000 1.0
C      1  0.4672160000000  0.4909400000000  0.5457820000000 1.0
C      1  0.4898670000000  0.5332570000000  0.5457680000000 1.0
C      1  0.5332970000000  0.4913890000000  0.4539930000000 1.0
C      1  0.5104380000000  0.5343840000000  0.4526190000000 1.0
C      1  0.4678410000000  0.5076890000000  0.4526200000000 1.0
C      1  0.4940030000000  0.4680130000000  0.4527230000000 1.0
C      1  0.4554170000000  0.5447140000000  0.5015970000000 1.0
C      1  0.5452010000000  0.5449950000000  0.4987050000000 1.0
C      1  0.5441930000000  0.4557480000000  0.4978470000000 1.0
C      1  0.4536950000000  0.4552470000000  0.5007890000000 1.0
C      1  0.4996860000000  0.5008390000000  0.5584410000000 1.0
C      1  0.5014240000000  0.5014240000000  0.4403290000000 1.0
C      1  0.4995530000000  0.5009150000000  0.5884560000000 1.0
C      1  0.5019220000000  0.5015090000000  0.4103570000000 1.0
END
