TITL C-862128-1543-304 9.2422902983374 125000 -345.83645165025 0 0 62 (Ci) n - 1
REM
REM in /home/nfs/bkarasulu/CARBON/AIRSS/Generating-Clusters/TERSOFF/Higher-Symm/FIRE-HFTN
REM
REM
REM
REM
REM
REM ./C.cell (b20cbc046b6831c77cfcea5457e17084)
REM AIRSS Version 0.9.1 bugfix July 2018 build 013d7b7c2542+ Fri, 06 Jul 2018 19:26:36 +0100
REM compiler GCC version 9.2.1 20190827 (Red Hat 9.2.1-1)
REM options -cpp -mtune=generic -march=x86-64 -g -O0 -fpre-include=/usr/include/finclude/math-vector-fortran.h
REM seed 991921909 -1663087084 1135785027 -805529997 824685499 -889906850 -1454545166 -1435116573 1457469025 1687196351 -1585285817 1813917518 -1782308388 -1253463738 1151621135 -1922811802 -347724849 1942473428 264387885 -907067507 1135635866 1626399172 -81512585 1223759403 -1564046427 1845383521 1272081897 1796670025 107622897 83354818 -177243603 1446622919 1381865187
REM
CELL 1.54180   50.00000   50.00000   50.00000   90.00000   90.00000   90.00000
LATT -1
SFAC C  
C      1  0.5465810000000  0.4102790000000  0.4875930000000 1.0
C      1  0.4534190000000  0.5897210000000  0.5124070000000 1.0
C      1  0.5249180000000  0.5045470000000  0.5663960000000 1.0
C      1  0.4750820000000  0.4954530000000  0.4336040000000 1.0
C      1  0.4677990000000  0.4433590000000  0.5079190000000 1.0
C      1  0.5322010000000  0.5566410000000  0.4920810000000 1.0
C      1  0.5172050000000  0.4418110000000  0.4308220000000 1.0
C      1  0.4827950000000  0.5581890000000  0.5691780000000 1.0
C      1  0.4439090000000  0.4573200000000  0.4980730000000 1.0
C      1  0.5560910000000  0.5426800000000  0.5019270000000 1.0
C      1  0.4500280000000  0.5149430000000  0.5441520000000 1.0
C      1  0.5499720000000  0.4850570000000  0.4558480000000 1.0
C      1  0.5348730000000  0.5432530000000  0.4426770000000 1.0
C      1  0.4651270000000  0.4567470000000  0.5573230000000 1.0
C      1  0.4758450000000  0.5077120000000  0.5584380000000 1.0
C      1  0.5241550000000  0.4922880000000  0.4415620000000 1.0
C      1  0.4416740000000  0.5444900000000  0.4603510000000 1.0
C      1  0.5583260000000  0.4555100000000  0.5396490000000 1.0
C      1  0.4448460000000  0.5016530000000  0.5187950000000 1.0
C      1  0.5551540000000  0.4983470000000  0.4812050000000 1.0
C      1  0.4445340000000  0.5447710000000  0.4911320000000 1.0
C      1  0.5554660000000  0.4552290000000  0.5088680000000 1.0
C      1  0.5034140000000  0.5002320000000  0.4641840000000 1.0
C      1  0.4965860000000  0.4997680000000  0.5358160000000 1.0
C      1  0.5103040000000  0.4298530000000  0.4565170000000 1.0
C      1  0.4896960000000  0.5701470000000  0.5434830000000 1.0
C      1  0.4687030000000  0.4816800000000  0.5718860000000 1.0
C      1  0.5312970000000  0.5183200000000  0.4281140000000 1.0
C      1  0.5688180000000  0.4828530000000  0.5025860000000 1.0
C      1  0.4311820000000  0.5171470000000  0.4974140000000 1.0
C      1  0.4854000000000  0.5298380000000  0.5755980000000 1.0
C      1  0.5146000000000  0.4701620000000  0.4244020000000 1.0
C      1  0.4365110000000  0.5661820000000  0.5102720000000 1.0
C      1  0.5634890000000  0.4338180000000  0.4897280000000 1.0
C      1  0.4915990000000  0.5405140000000  0.4653720000000 1.0
C      1  0.5084010000000  0.4594860000000  0.5346280000000 1.0
C      1  0.4643650000000  0.4707910000000  0.4503710000000 1.0
C      1  0.5356350000000  0.5292090000000  0.5496290000000 1.0
C      1  0.4264960000000  0.4980360000000  0.4720990000000 1.0
C      1  0.5735040000000  0.5019640000000  0.5279010000000 1.0
C      1  0.4808700000000  0.4498020000000  0.5337510000000 1.0
C      1  0.5191300000000  0.5501980000000  0.4662490000000 1.0
C      1  0.5250320000000  0.4575150000000  0.5097130000000 1.0
C      1  0.4749680000000  0.5424850000000  0.4902870000000 1.0
C      1  0.5575440000000  0.5280180000000  0.5286510000000 1.0
C      1  0.4424560000000  0.4719820000000  0.4713490000000 1.0
C      1  0.4229130000000  0.5574380000000  0.5345500000000 1.0
C      1  0.5770870000000  0.4425620000000  0.4654500000000 1.0
C      1  0.4328560000000  0.4746080000000  0.5188950000000 1.0
C      1  0.5671440000000  0.5253920000000  0.4811050000000 1.0
C      1  0.4477820000000  0.5147710000000  0.4589230000000 1.0
C      1  0.5522180000000  0.4852290000000  0.5410770000000 1.0
C      1  0.4742740000000  0.5034530000000  0.4748240000000 1.0
C      1  0.5257260000000  0.4965470000000  0.5251760000000 1.0
C      1  0.4332990000000  0.5372000000000  0.5525200000000 1.0
C      1  0.5667010000000  0.4628000000000  0.4474800000000 1.0
C      1  0.5173340000000  0.4734410000000  0.5610740000000 1.0
C      1  0.4826660000000  0.5265590000000  0.4389260000000 1.0
C      1  0.5245060000000  0.4075480000000  0.4688860000000 1.0
C      1  0.4754940000000  0.5924520000000  0.5311140000000 1.0
C      1  0.5295670000000  0.5032410000000  0.4968740000000 1.0
C      1  0.4704330000000  0.4967590000000  0.5031260000000 1.0
END
