TITL C-862500-986-391 0.0231272137603818 125000 -675.551681017735 0 0 139 (C1) n - 1
REM
REM in /home/nfs/bkarasulu/CARBON/AIRSS/Generating-Clusters/TERSOFF/Higher-Symm/FIRE-HFTN
REM
REM
REM
REM
REM
REM ./C.cell (b20cbc046b6831c77cfcea5457e17084)
REM AIRSS Version 0.9.1 bugfix July 2018 build 013d7b7c2542+ Fri, 06 Jul 2018 19:26:36 +0100
REM compiler GCC version 9.2.1 20190827 (Red Hat 9.2.1-1)
REM options -cpp -mtune=generic -march=x86-64 -g -O0 -fpre-include=/usr/include/finclude/math-vector-fortran.h
REM seed -1823405887 1218705249 98750849 783566755 -743065542 870793408 -480929038 -516050281 -672105843 1036714519 1574267681 1615439041 1689792196 -1542038954 1335810879 991105976 -704369622 1520326639 2078014136 -499642261 -1744971638 -1474055177 -1229513713 -1177564064 -2135822542 -1723093325 172095932 56087999 280410200 -198009385 -765025564 1726636174 -1829811015
REM
CELL 1.54180   50.00000   50.00000   50.00000   90.00000   90.00000   90.00000
LATT -1
SFAC C  
C      1  0.4571580000000  0.4710620000000  0.4696120000000 1.0
C      1  0.4569150000000  0.4883380000000  0.5396710000000 1.0
C      1  0.4582540000000  0.5408050000000  0.4912610000000 1.0
C      1  0.5422570000000  0.4719420000000  0.4688080000000 1.0
C      1  0.5418430000000  0.4884100000000  0.5388970000000 1.0
C      1  0.5420810000000  0.5413270000000  0.4911640000000 1.0
C      1  0.4296630000000  0.4418990000000  0.4573270000000 1.0
C      1  0.4290900000000  0.4924930000000  0.5707140000000 1.0
C      1  0.4295700000000  0.5648380000000  0.4724330000000 1.0
C      1  0.5687070000000  0.4419210000000  0.4563160000000 1.0
C      1  0.5689980000000  0.4921360000000  0.5705700000000 1.0
C      1  0.5714220000000  0.5645530000000  0.4723040000000 1.0
C      1  0.4836540000000  0.5493050000000  0.5064070000000 1.0
C      1  0.4834620000000  0.4789340000000  0.4552000000000 1.0
C      1  0.4831980000000  0.4710250000000  0.5409700000000 1.0
C      1  0.5159520000000  0.5502600000000  0.5050720000000 1.0
C      1  0.5163860000000  0.4809780000000  0.4549770000000 1.0
C      1  0.5160530000000  0.4705530000000  0.5397730000000 1.0
C      1  0.5898760000000  0.5212160000000  0.4456200000000 1.0
C      1  0.5891340000000  0.4394130000000  0.5075200000000 1.0
C      1  0.5900720000000  0.5364040000000  0.5454410000000 1.0
C      1  0.4102320000000  0.5219730000000  0.4456030000000 1.0
C      1  0.4092000000000  0.4403370000000  0.5082540000000 1.0
C      1  0.4093210000000  0.5369010000000  0.5452410000000 1.0
C      1  0.5563890000000  0.4767200000000  0.5078770000000 1.0
C      1  0.5564090000000  0.5195210000000  0.5149500000000 1.0
C      1  0.5562330000000  0.5028490000000  0.4822290000000 1.0
C      1  0.4426570000000  0.4770580000000  0.5083900000000 1.0
C      1  0.4431120000000  0.5191230000000  0.5148650000000 1.0
C      1  0.4436140000000  0.5025690000000  0.4820830000000 1.0
C      1  0.5209080000000  0.5070960000000  0.4767860000000 1.0
C      1  0.5204960000000  0.4731330000000  0.5062790000000 1.0
C      1  0.5206630000000  0.5189040000000  0.5193220000000 1.0
C      1  0.4790170000000  0.5060970000000  0.4765670000000 1.0
C      1  0.4785510000000  0.4734950000000  0.5070400000000 1.0
C      1  0.4787620000000  0.5182770000000  0.5200110000000 1.0
C      1  0.4806650000000  0.4368450000000  0.4400820000000 1.0
C      1  0.4807150000000  0.4791640000000  0.5829560000000 1.0
C      1  0.4824480000000  0.5828020000000  0.4755510000000 1.0
C      1  0.5170570000000  0.4367690000000  0.4400900000000 1.0
C      1  0.5171930000000  0.4792840000000  0.5824980000000 1.0
C      1  0.5189450000000  0.5830640000000  0.4757500000000 1.0
C      1  0.4485050000000  0.4231560000000  0.5461460000000 1.0
C      1  0.4483880000000  0.5789720000000  0.5442630000000 1.0
C      1  0.4494180000000  0.4998530000000  0.4125910000000 1.0
C      1  0.5506060000000  0.4222470000000  0.5455180000000 1.0
C      1  0.5509340000000  0.5789700000000  0.5434270000000 1.0
C      1  0.5504860000000  0.5005790000000  0.4117840000000 1.0
C      1  0.5655350000000  0.4773070000000  0.4244260000000 1.0
C      1  0.5657290000000  0.4460700000000  0.5565850000000 1.0
C      1  0.5668650000000  0.5770340000000  0.5178630000000 1.0
C      1  0.4333760000000  0.4773050000000  0.4249890000000 1.0
C      1  0.4326880000000  0.4464120000000  0.5571690000000 1.0
C      1  0.4334270000000  0.5771990000000  0.5179660000000 1.0
C      1  0.5466730000000  0.5130030000000  0.5633310000000 1.0
C      1  0.5473510000000  0.5491470000000  0.4587790000000 1.0
C      1  0.5451410000000  0.4389870000000  0.4774870000000 1.0
C      1  0.4517870000000  0.5129730000000  0.5640510000000 1.0
C      1  0.4535630000000  0.5489670000000  0.4589430000000 1.0
C      1  0.4528140000000  0.4382720000000  0.4784990000000 1.0
C      1  0.5707000000000  0.5340720000000  0.5694900000000 1.0
C      1  0.5704920000000  0.5437380000000  0.4358540000000 1.0
C      1  0.5691730000000  0.4204120000000  0.4923160000000 1.0
C      1  0.4281370000000  0.5344600000000  0.5696940000000 1.0
C      1  0.4301390000000  0.5441820000000  0.4358940000000 1.0
C      1  0.4289570000000  0.4210300000000  0.4937270000000 1.0
C      1  0.5870270000000  0.4543760000000  0.5346720000000 1.0
C      1  0.5883290000000  0.5543190000000  0.5205510000000 1.0
C      1  0.5877400000000  0.4905530000000  0.4427470000000 1.0
C      1  0.4112640000000  0.4547780000000  0.5354910000000 1.0
C      1  0.4117160000000  0.5546790000000  0.5202980000000 1.0
C      1  0.4115480000000  0.4912020000000  0.4430790000000 1.0
C      1  0.4747160000000  0.5058250000000  0.5984890000000 1.0
C      1  0.4761230000000  0.5814910000000  0.4449840000000 1.0
C      1  0.4744530000000  0.4103690000000  0.4557940000000 1.0
C      1  0.5240790000000  0.5057050000000  0.5979550000000 1.0
C      1  0.5246590000000  0.5816360000000  0.4449390000000 1.0
C      1  0.5235920000000  0.4103940000000  0.4555670000000 1.0
C      1  0.5470360000000  0.4434150000000  0.5191430000000 1.0
C      1  0.5464700000000  0.5462230000000  0.5377160000000 1.0
C      1  0.5497000000000  0.5091680000000  0.4466120000000 1.0
C      1  0.4519690000000  0.4438660000000  0.5200110000000 1.0
C      1  0.4527280000000  0.5457360000000  0.5378740000000 1.0
C      1  0.4501600000000  0.5091320000000  0.4465320000000 1.0
C      1  0.5799730000000  0.5059580000000  0.5389550000000 1.0
C      1  0.5803020000000  0.5291000000000  0.4750670000000 1.0
C      1  0.5799810000000  0.4608070000000  0.4851190000000 1.0
C      1  0.4190350000000  0.5064230000000  0.5388130000000 1.0
C      1  0.4201760000000  0.5294530000000  0.4749730000000 1.0
C      1  0.4187620000000  0.4614930000000  0.4857180000000 1.0
C      1  0.5497760000000  0.4509170000000  0.4333070000000 1.0
C      1  0.5505920000000  0.4676060000000  0.5742300000000 1.0
C      1  0.5522140000000  0.5819930000000  0.4901870000000 1.0
C      1  0.4477650000000  0.4508340000000  0.4340870000000 1.0
C      1  0.4471510000000  0.4678940000000  0.5749450000000 1.0
C      1  0.4493790000000  0.5817780000000  0.4905040000000 1.0
C      1  0.4829590000000  0.4767280000000  0.4223120000000 1.0
C      1  0.4828440000000  0.4434970000000  0.5587360000000 1.0
C      1  0.4835230000000  0.5779100000000  0.5215220000000 1.0
C      1  0.5158790000000  0.4795150000000  0.4224800000000 1.0
C      1  0.5159220000000  0.4428770000000  0.5566570000000 1.0
C      1  0.5164820000000  0.5795540000000  0.5196890000000 1.0
C      1  0.5257890000000  0.5299270000000  0.4287560000000 1.0
C      1  0.5240540000000  0.4204460000000  0.5083840000000 1.0
C      1  0.5243020000000  0.5482000000000  0.5638840000000 1.0
C      1  0.4744580000000  0.5294370000000  0.4286040000000 1.0
C      1  0.4747310000000  0.4205670000000  0.5092720000000 1.0
C      1  0.4748640000000  0.5476510000000  0.5642240000000 1.0
C      1  0.5975890000000  0.4764650000000  0.4665280000000 1.0
C      1  0.5967450000000  0.4820900000000  0.5330130000000 1.0
C      1  0.5982920000000  0.5409370000000  0.4965900000000 1.0
C      1  0.4014920000000  0.4775950000000  0.4671370000000 1.0
C      1  0.4017630000000  0.4825510000000  0.5338420000000 1.0
C      1  0.4020170000000  0.5413300000000  0.4962570000000 1.0
C      1  0.4850130000000  0.5328180000000  0.5905340000000 1.0
C      1  0.4855760000000  0.5596230000000  0.4267790000000 1.0
C      1  0.4845740000000  0.4042520000000  0.4834380000000 1.0
C      1  0.5141240000000  0.5329060000000  0.5903280000000 1.0
C      1  0.5147940000000  0.5597890000000  0.4269260000000 1.0
C      1  0.5137970000000  0.4041500000000  0.4831500000000 1.0
C      1  0.4904230000000  0.4527020000000  0.4025880000000 1.0
C      1  0.4900680000000  0.4388720000000  0.5894940000000 1.0
C      1  0.4779650000000  0.6074420000000  0.5089960000000 1.0
C      1  0.5215100000000  0.4543820000000  0.4024590000000 1.0
C      1  0.5211990000000  0.4381700000000  0.5885300000000 1.0
C      1  0.5091000000000  0.6082210000000  0.5077490000000 1.0
C      1  0.5175170000000  0.5079600000000  0.4073710000000 1.0
C      1  0.5170300000000  0.4150980000000  0.5393060000000 1.0
C      1  0.5171910000000  0.5782560000000  0.5531790000000 1.0
C      1  0.4823860000000  0.5064810000000  0.4073720000000 1.0
C      1  0.4820370000000  0.4152880000000  0.5406790000000 1.0
C      1  0.4820310000000  0.5772490000000  0.5540700000000 1.0
C      1  0.5156090000000  0.5321250000000  0.4599430000000 1.0
C      1  0.5148610000000  0.4470790000000  0.4920730000000 1.0
C      1  0.5154820000000  0.5202420000000  0.5491700000000 1.0
C      1  0.4842420000000  0.5309480000000  0.4598120000000 1.0
C      1  0.4837010000000  0.4473390000000  0.4927320000000 1.0
C      1  0.4838430000000  0.5193130000000  0.5499500000000 1.0
C      1  0.4997720000000  0.4995690000000  0.5012440000000 1.0
END
