TITL C-862506-1665-721 -4.74251666636787e-06 125000 -474.96270819943 0 0 84 (T23) n - 1
REM
REM in /home/nfs/bkarasulu/CARBON/AIRSS/Generating-Clusters/TERSOFF/Higher-Symm/FIRE-HFTN
REM
REM
REM
REM
REM
REM ./C.cell (b20cbc046b6831c77cfcea5457e17084)
REM AIRSS Version 0.9.1 bugfix July 2018 build 013d7b7c2542+ Fri, 06 Jul 2018 19:26:36 +0100
REM compiler GCC version 9.2.1 20190827 (Red Hat 9.2.1-1)
REM options -cpp -mtune=generic -march=x86-64 -g -O0 -fpre-include=/usr/include/finclude/math-vector-fortran.h
REM seed -2079284619 -375576203 -995326015 -441549617 -660000062 2047936842 1932891787 -1866176837 396854130 1821885492 2070094311 -2087626651 -677640853 233460805 2118568408 609192680 -596027685 -1994311701 -1762902800 2132803571 116842038 1233965065 -717995729 1104051652 -1917831891 2137742690 1713745686 -86346415 1202055184 1397834508 1603552270 -1422546377 -1874600478
REM
CELL 1.54180   50.00000   50.00000   50.00000   90.00000   90.00000   90.00000
LATT -1
SFAC C  
C      1  0.5352770000000  0.4656300000000  0.5715430000000 1.0
C      1  0.4656300000000  0.5715430000000  0.5352770000000 1.0
C      1  0.5715430000000  0.5352770000000  0.4656300000000 1.0
C      1  0.5352770000000  0.5343700000000  0.4284570000000 1.0
C      1  0.4647230000000  0.4656300000000  0.4284570000000 1.0
C      1  0.4647230000000  0.5343700000000  0.5715430000000 1.0
C      1  0.4656300000000  0.4284570000000  0.4647230000000 1.0
C      1  0.5343700000000  0.5715430000000  0.4647230000000 1.0
C      1  0.5343700000000  0.4284570000000  0.5352770000000 1.0
C      1  0.5715430000000  0.4647230000000  0.5343700000000 1.0
C      1  0.4284570000000  0.5352770000000  0.5343700000000 1.0
C      1  0.4284570000000  0.4647230000000  0.4656300000000 1.0
C      1  0.5251460000000  0.4399860000000  0.5608060000000 1.0
C      1  0.4399860000000  0.5608060000000  0.5251460000000 1.0
C      1  0.5608060000000  0.5251460000000  0.4399860000000 1.0
C      1  0.5251460000000  0.5600140000000  0.4391940000000 1.0
C      1  0.4748540000000  0.4399860000000  0.4391940000000 1.0
C      1  0.4748540000000  0.5600140000000  0.5608060000000 1.0
C      1  0.4399860000000  0.4391940000000  0.4748540000000 1.0
C      1  0.5600140000000  0.5608060000000  0.4748540000000 1.0
C      1  0.5600140000000  0.4391940000000  0.5251460000000 1.0
C      1  0.5608060000000  0.4748540000000  0.5600140000000 1.0
C      1  0.4391940000000  0.5251460000000  0.5600140000000 1.0
C      1  0.4391940000000  0.4748540000000  0.4399860000000 1.0
C      1  0.4927260000000  0.4653050000000  0.4852890000000 1.0
C      1  0.4653050000000  0.4852890000000  0.4927260000000 1.0
C      1  0.4852890000000  0.4927260000000  0.4653050000000 1.0
C      1  0.4927260000000  0.5346950000000  0.5147110000000 1.0
C      1  0.5072740000000  0.4653050000000  0.5147110000000 1.0
C      1  0.5072740000000  0.5346950000000  0.4852890000000 1.0
C      1  0.4653050000000  0.5147110000000  0.5072740000000 1.0
C      1  0.5346950000000  0.4852890000000  0.5072740000000 1.0
C      1  0.5346950000000  0.5147110000000  0.4927260000000 1.0
C      1  0.4852890000000  0.5072740000000  0.5346950000000 1.0
C      1  0.5147110000000  0.4927260000000  0.5346950000000 1.0
C      1  0.5147110000000  0.5072740000000  0.4653050000000 1.0
C      1  0.4902490000000  0.4544480000000  0.5425140000000 1.0
C      1  0.4544480000000  0.5425140000000  0.4902490000000 1.0
C      1  0.5425140000000  0.4902490000000  0.4544480000000 1.0
C      1  0.4902490000000  0.5455520000000  0.4574860000000 1.0
C      1  0.5097510000000  0.4544480000000  0.4574860000000 1.0
C      1  0.5097510000000  0.5455520000000  0.5425140000000 1.0
C      1  0.4544480000000  0.4574860000000  0.5097510000000 1.0
C      1  0.5455520000000  0.5425140000000  0.5097510000000 1.0
C      1  0.5455520000000  0.4574860000000  0.4902490000000 1.0
C      1  0.5425140000000  0.5097510000000  0.5455520000000 1.0
C      1  0.4574860000000  0.4902490000000  0.5455520000000 1.0
C      1  0.4574860000000  0.5097510000000  0.4544480000000 1.0
C      1  0.4726320000000  0.4390820000000  0.5246430000000 1.0
C      1  0.4390820000000  0.5246430000000  0.4726320000000 1.0
C      1  0.5246430000000  0.4726320000000  0.4390820000000 1.0
C      1  0.4726320000000  0.5609180000000  0.4753570000000 1.0
C      1  0.5273680000000  0.4390820000000  0.4753570000000 1.0
C      1  0.5273680000000  0.5609180000000  0.5246430000000 1.0
C      1  0.4390820000000  0.4753570000000  0.5273680000000 1.0
C      1  0.5609180000000  0.5246430000000  0.5273680000000 1.0
C      1  0.5609180000000  0.4753570000000  0.4726320000000 1.0
C      1  0.5246430000000  0.5273680000000  0.5609180000000 1.0
C      1  0.4753570000000  0.4726320000000  0.5609180000000 1.0
C      1  0.4753570000000  0.5273680000000  0.4390820000000 1.0
C      1  0.4863790000000  0.5159470000000  0.4150670000000 1.0
C      1  0.5159470000000  0.4150670000000  0.4863790000000 1.0
C      1  0.4150670000000  0.4863790000000  0.5159470000000 1.0
C      1  0.4863790000000  0.4840530000000  0.5849330000000 1.0
C      1  0.5136210000000  0.5159470000000  0.5849330000000 1.0
C      1  0.5136210000000  0.4840530000000  0.4150670000000 1.0
C      1  0.5159470000000  0.5849330000000  0.5136210000000 1.0
C      1  0.4840530000000  0.4150670000000  0.5136210000000 1.0
C      1  0.4840530000000  0.5849330000000  0.4863790000000 1.0
C      1  0.4150670000000  0.5136210000000  0.4840530000000 1.0
C      1  0.5849330000000  0.4863790000000  0.4840530000000 1.0
C      1  0.5849330000000  0.5136210000000  0.5159470000000 1.0
C      1  0.5884530000000  0.5179820000000  0.4832000000000 1.0
C      1  0.5179820000000  0.4832000000000  0.5884530000000 1.0
C      1  0.4832000000000  0.5884530000000  0.5179820000000 1.0
C      1  0.5884530000000  0.4820180000000  0.5168000000000 1.0
C      1  0.4115470000000  0.5179820000000  0.5168000000000 1.0
C      1  0.4115470000000  0.4820180000000  0.4832000000000 1.0
C      1  0.5179820000000  0.5168000000000  0.4115470000000 1.0
C      1  0.4820180000000  0.4832000000000  0.4115470000000 1.0
C      1  0.4820180000000  0.5168000000000  0.5884530000000 1.0
C      1  0.4832000000000  0.4115470000000  0.4820180000000 1.0
C      1  0.5168000000000  0.5884530000000  0.4820180000000 1.0
C      1  0.5168000000000  0.4115470000000  0.5179820000000 1.0
END
