TITL C-862127-1500-573 1.05955896359958 125000 -776.930207143587 0 0 149 (C1) n - 1
REM
REM in /home/nfs/bkarasulu/CARBON/AIRSS/Generating-Clusters/TERSOFF/Higher-Symm/FIRE-HFTN
REM
REM
REM
REM
REM
REM ./C.cell (b20cbc046b6831c77cfcea5457e17084)
REM AIRSS Version 0.9.1 bugfix July 2018 build 013d7b7c2542+ Fri, 06 Jul 2018 19:26:36 +0100
REM compiler GCC version 9.2.1 20190827 (Red Hat 9.2.1-1)
REM options -cpp -mtune=generic -march=x86-64 -g -O0 -fpre-include=/usr/include/finclude/math-vector-fortran.h
REM seed -1923750840 1529784895 1560399132 1135703608 716927290 -1853719594 185890162 21368450 -367401471 770981919 -2003526448 -939333012 178015495 -1089678327 -1754334140 1479808767 -327361123 -163810288 370664911 -1301470697 408486386 -253516706 -380835713 590788661 -1039460980 -852618409 -1554253770 1155679273 1052853908 -793470567 686514651 -1737471254 -1967622019
REM
CELL 1.54180   50.00000   50.00000   50.00000   90.00000   90.00000   90.00000
LATT -1
SFAC C  
C      1  0.4268730000000  0.5257620000000  0.5087670000000 1.0
C      1  0.5694620000000  0.5217520000000  0.4934030000000 1.0
C      1  0.4319620000000  0.4786200000000  0.4955300000000 1.0
C      1  0.5706560000000  0.4756890000000  0.5089520000000 1.0
C      1  0.5070560000000  0.5247610000000  0.4228260000000 1.0
C      1  0.4941460000000  0.5229730000000  0.5739330000000 1.0
C      1  0.4926040000000  0.4760720000000  0.4233190000000 1.0
C      1  0.5082030000000  0.4723450000000  0.5803930000000 1.0
C      1  0.4632580000000  0.5487470000000  0.5024640000000 1.0
C      1  0.5334460000000  0.5451490000000  0.4986700000000 1.0
C      1  0.4700070000000  0.4567960000000  0.4999780000000 1.0
C      1  0.5324230000000  0.4522150000000  0.5012910000000 1.0
C      1  0.5007820000000  0.5491780000000  0.4588020000000 1.0
C      1  0.4995690000000  0.5450820000000  0.5368820000000 1.0
C      1  0.4991660000000  0.4513510000000  0.4588040000000 1.0
C      1  0.5033910000000  0.4486500000000  0.5445480000000 1.0
C      1  0.5073650000000  0.5816520000000  0.4651380000000 1.0
C      1  0.4930850000000  0.5791320000000  0.5315090000000 1.0
C      1  0.5091240000000  0.4169890000000  0.5362790000000 1.0
C      1  0.4935140000000  0.4188490000000  0.4649240000000 1.0
C      1  0.4678570000000  0.5816720000000  0.5087370000000 1.0
C      1  0.5303570000000  0.5785140000000  0.4903130000000 1.0
C      1  0.5298500000000  0.4186980000000  0.5089730000000 1.0
C      1  0.4731860000000  0.4231380000000  0.4917450000000 1.0
C      1  0.5224670000000  0.4794220000000  0.4314650000000 1.0
C      1  0.4787540000000  0.4770950000000  0.5692480000000 1.0
C      1  0.5241330000000  0.5194200000000  0.5685640000000 1.0
C      1  0.4770710000000  0.5210420000000  0.4321680000000 1.0
C      1  0.4366440000000  0.4817720000000  0.5252190000000 1.0
C      1  0.5623980000000  0.4798120000000  0.4796120000000 1.0
C      1  0.5639000000000  0.5181020000000  0.5231010000000 1.0
C      1  0.4367760000000  0.5208710000000  0.4799390000000 1.0
C      1  0.5317590000000  0.4108700000000  0.5615020000000 1.0
C      1  0.4699980000000  0.4150160000000  0.4396050000000 1.0
C      1  0.5307320000000  0.5852970000000  0.4394850000000 1.0
C      1  0.4703290000000  0.5832330000000  0.5566410000000 1.0
C      1  0.5538110000000  0.4154490000000  0.5327560000000 1.0
C      1  0.4486810000000  0.4206670000000  0.4684730000000 1.0
C      1  0.4433710000000  0.5861790000000  0.5321240000000 1.0
C      1  0.5544580000000  0.5806950000000  0.4667860000000 1.0
C      1  0.5156720000000  0.5464760000000  0.4032620000000 1.0
C      1  0.4842020000000  0.5444560000000  0.5931070000000 1.0
C      1  0.5155170000000  0.4490800000000  0.5987930000000 1.0
C      1  0.4839570000000  0.4544960000000  0.4035770000000 1.0
C      1  0.4070290000000  0.5483740000000  0.5144290000000 1.0
C      1  0.5896560000000  0.5428200000000  0.4845390000000 1.0
C      1  0.5902060000000  0.4537660000000  0.5169730000000 1.0
C      1  0.4124810000000  0.4571660000000  0.4860430000000 1.0
C      1  0.4749660000000  0.5048800000000  0.5551260000000 1.0
C      1  0.5282620000000  0.5074780000000  0.4427680000000 1.0
C      1  0.4710340000000  0.4929670000000  0.4444270000000 1.0
C      1  0.5308110000000  0.4904030000000  0.5604840000000 1.0
C      1  0.5483990000000  0.5065630000000  0.4734720000000 1.0
C      1  0.4460320000000  0.5093010000000  0.5330980000000 1.0
C      1  0.4525750000000  0.4948730000000  0.4761320000000 1.0
C      1  0.5520260000000  0.4911910000000  0.5304380000000 1.0
C      1  0.4314090000000  0.5692760000000  0.4698730000000 1.0
C      1  0.5661640000000  0.5686050000000  0.5276700000000 1.0
C      1  0.4358800000000  0.4314350000000  0.5268580000000 1.0
C      1  0.5673060000000  0.4317670000000  0.4714780000000 1.0
C      1  0.4661830000000  0.5712960000000  0.4315540000000 1.0
C      1  0.5319170000000  0.5702990000000  0.5653000000000 1.0
C      1  0.5342270000000  0.4291070000000  0.4320550000000 1.0
C      1  0.4664130000000  0.4268240000000  0.5674850000000 1.0
C      1  0.4797160000000  0.4253190000000  0.4101330000000 1.0
C      1  0.5189550000000  0.4200770000000  0.5906110000000 1.0
C      1  0.4794400000000  0.5734210000000  0.5861270000000 1.0
C      1  0.5205440000000  0.5755220000000  0.4100460000000 1.0
C      1  0.4197910000000  0.4293840000000  0.4776770000000 1.0
C      1  0.5831340000000  0.4251300000000  0.5236000000000 1.0
C      1  0.5832220000000  0.5710000000000  0.4764880000000 1.0
C      1  0.4142420000000  0.5770320000000  0.5206320000000 1.0
C      1  0.4233460000000  0.5391260000000  0.5519920000000 1.0
C      1  0.5714360000000  0.5312380000000  0.4485350000000 1.0
C      1  0.4302400000000  0.4697200000000  0.4501380000000 1.0
C      1  0.5707050000000  0.4607730000000  0.5535020000000 1.0
C      1  0.5506150000000  0.5383030000000  0.4250820000000 1.0
C      1  0.4487260000000  0.5384950000000  0.5714440000000 1.0
C      1  0.4493520000000  0.4618410000000  0.4262070000000 1.0
C      1  0.5520940000000  0.4582870000000  0.5803310000000 1.0
C      1  0.5833480000000  0.5034460000000  0.4412580000000 1.0
C      1  0.4120490000000  0.5113270000000  0.5576720000000 1.0
C      1  0.5854510000000  0.4867530000000  0.5553940000000 1.0
C      1  0.4176060000000  0.4964580000000  0.4415020000000 1.0
C      1  0.4492550000000  0.5137250000000  0.5871220000000 1.0
C      1  0.5519650000000  0.5155420000000  0.4056150000000 1.0
C      1  0.5565190000000  0.4855490000000  0.5933080000000 1.0
C      1  0.4478050000000  0.4834750000000  0.4055400000000 1.0
C      1  0.6058480000000  0.4898370000000  0.4899410000000 1.0
C      1  0.3909340000000  0.4834480000000  0.5107140000000 1.0
C      1  0.6088210000000  0.5152320000000  0.5097470000000 1.0
C      1  0.3936370000000  0.5085490000000  0.4897360000000 1.0
C      1  0.4860810000000  0.4898030000000  0.6115300000000 1.0
C      1  0.5101980000000  0.4892560000000  0.3875420000000 1.0
C      1  0.5108960000000  0.5133340000000  0.6112200000000 1.0
C      1  0.4879730000000  0.5140690000000  0.3869730000000 1.0
C      1  0.4614040000000  0.5243500000000  0.4063760000000 1.0
C      1  0.5397750000000  0.5261690000000  0.5938980000000 1.0
C      1  0.4596970000000  0.4735910000000  0.5930540000000 1.0
C      1  0.5383120000000  0.4757890000000  0.4055970000000 1.0
C      1  0.4127900000000  0.5182090000000  0.4608090000000 1.0
C      1  0.5905480000000  0.5234680000000  0.5359690000000 1.0
C      1  0.5871250000000  0.4818550000000  0.4613550000000 1.0
C      1  0.4096150000000  0.4751730000000  0.5365340000000 1.0
C      1  0.4896720000000  0.4786710000000  0.4651020000000 1.0
C      1  0.5140640000000  0.4754410000000  0.5389880000000 1.0
C      1  0.4933770000000  0.5159800000000  0.5280650000000 1.0
C      1  0.5102890000000  0.5217400000000  0.4645380000000 1.0
C      1  0.4830780000000  0.4851660000000  0.4924460000000 1.0
C      1  0.5263900000000  0.4797110000000  0.5142160000000 1.0
C      1  0.5222680000000  0.5178360000000  0.4894690000000 1.0
C      1  0.4680820000000  0.5215850000000  0.5155770000000 1.0
C      1  0.4428680000000  0.5500700000000  0.4211970000000 1.0
C      1  0.5568170000000  0.5519910000000  0.5767290000000 1.0
C      1  0.4418990000000  0.4471730000000  0.5766440000000 1.0
C      1  0.5577480000000  0.4501740000000  0.4218240000000 1.0
C      1  0.4216120000000  0.5478220000000  0.4463080000000 1.0
C      1  0.5786360000000  0.5506920000000  0.5519440000000 1.0
C      1  0.5779460000000  0.4524090000000  0.4477300000000 1.0
C      1  0.4218440000000  0.4480740000000  0.5508660000000 1.0
C      1  0.4471940000000  0.5538510000000  0.5324030000000 1.0
C      1  0.5489880000000  0.5481850000000  0.4680900000000 1.0
C      1  0.4535100000000  0.4532290000000  0.4700770000000 1.0
C      1  0.5490100000000  0.4481100000000  0.5319700000000 1.0
C      1  0.5296740000000  0.5529340000000  0.4442090000000 1.0
C      1  0.4708260000000  0.5502600000000  0.5522030000000 1.0
C      1  0.4705150000000  0.4474310000000  0.4445900000000 1.0
C      1  0.5328040000000  0.4434680000000  0.5586430000000 1.0
C      1  0.5456930000000  0.4556590000000  0.4743830000000 1.0
C      1  0.4557190000000  0.4573200000000  0.5269200000000 1.0
C      1  0.5468240000000  0.5426530000000  0.5257320000000 1.0
C      1  0.4528000000000  0.5454450000000  0.4742730000000 1.0
C      1  0.4746600000000  0.4533610000000  0.5511540000000 1.0
C      1  0.5269220000000  0.4550610000000  0.4498640000000 1.0
C      1  0.5267570000000  0.5431690000000  0.5487940000000 1.0
C      1  0.4726980000000  0.5457010000000  0.4503850000000 1.0
C      1  0.5423720000000  0.4131110000000  0.4797250000000 1.0
C      1  0.4606100000000  0.4134520000000  0.5189890000000 1.0
C      1  0.5417200000000  0.5867360000000  0.5187240000000 1.0
C      1  0.4572740000000  0.5869380000000  0.4789860000000 1.0
C      1  0.4787520000000  0.4108310000000  0.5419210000000 1.0
C      1  0.5232590000000  0.4123850000000  0.4574970000000 1.0
C      1  0.5219190000000  0.5873320000000  0.5402440000000 1.0
C      1  0.4771340000000  0.5876310000000  0.4573590000000 1.0
C      1  0.4268050000000  0.4963760000000  0.5785900000000 1.0
C      1  0.5734300000000  0.4971510000000  0.4139610000000 1.0
C      1  0.4265520000000  0.5022260000000  0.4137900000000 1.0
C      1  0.5765320000000  0.5020160000000  0.5790890000000 1.0
C      1  0.5063430000000  0.5001720000000  0.5059820000000 1.0
END
