TITL C-862507-1800-1274 0.000870454340585041 125000 -919.613523462454 0 0 152 (C1) n - 1
REM
REM in /home/nfs/bkarasulu/CARBON/AIRSS/Generating-Clusters/TERSOFF/Higher-Symm/FIRE-HFTN
REM
REM
REM
REM
REM
REM ./C.cell (b20cbc046b6831c77cfcea5457e17084)
REM AIRSS Version 0.9.1 bugfix July 2018 build 013d7b7c2542+ Fri, 06 Jul 2018 19:26:36 +0100
REM compiler GCC version 9.2.1 20190827 (Red Hat 9.2.1-1)
REM options -cpp -mtune=generic -march=x86-64 -g -O0 -fpre-include=/usr/include/finclude/math-vector-fortran.h
REM seed 471702594 1288941135 -1422263130 1723868536 -1137066301 -2012559623 -1038729593 897558669 -1817825530 -102271835 80605125 487368121 -783251238 -889175115 -499938257 -202237658 1603151583 2007414906 1428843307 23728955 1442233785 168982252 2109419921 -701689133 1380726781 -150956588 2096197232 1496875043 -1151719042 647009689 -1466363578 31069871 2016230001
REM
CELL 1.54180   50.00000   50.00000   50.00000   90.00000   90.00000   90.00000
LATT -1
SFAC C  
C      1  0.5709630000000  0.5143650000000  0.5175050000000 1.0
C      1  0.5134930000000  0.5718910000000  0.5150140000000 1.0
C      1  0.5120560000000  0.5140850000000  0.5675400000000 1.0
C      1  0.5704390000000  0.4848090000000  0.4876700000000 1.0
C      1  0.4281880000000  0.4838510000000  0.5186470000000 1.0
C      1  0.4329510000000  0.5154000000000  0.4854800000000 1.0
C      1  0.5111940000000  0.4307490000000  0.4883740000000 1.0
C      1  0.4810320000000  0.4233050000000  0.5166280000000 1.0
C      1  0.4816500000000  0.5755280000000  0.4853000000000 1.0
C      1  0.5147510000000  0.4797870000000  0.4279970000000 1.0
C      1  0.4827110000000  0.4846390000000  0.5732830000000 1.0
C      1  0.4832460000000  0.5115960000000  0.4285390000000 1.0
C      1  0.4314800000000  0.5146080000000  0.5167140000000 1.0
C      1  0.4822170000000  0.5756610000000  0.5157640000000 1.0
C      1  0.4829820000000  0.5176690000000  0.5739820000000 1.0
C      1  0.4333860000000  0.4854030000000  0.4867660000000 1.0
C      1  0.5735280000000  0.4843190000000  0.5191210000000 1.0
C      1  0.5683920000000  0.5148460000000  0.4863130000000 1.0
C      1  0.4804950000000  0.4273570000000  0.4860680000000 1.0
C      1  0.5130660000000  0.4260570000000  0.5177520000000 1.0
C      1  0.5130580000000  0.5720530000000  0.4849470000000 1.0
C      1  0.4841950000000  0.4799220000000  0.4254670000000 1.0
C      1  0.5132730000000  0.4834120000000  0.5685180000000 1.0
C      1  0.5127080000000  0.5106070000000  0.4324340000000 1.0
C      1  0.4860990000000  0.4096160000000  0.4435320000000 1.0
C      1  0.4457750000000  0.4846740000000  0.4064930000000 1.0
C      1  0.4101620000000  0.4453550000000  0.4815700000000 1.0
C      1  0.4865730000000  0.5929440000000  0.5560150000000 1.0
C      1  0.5175260000000  0.5924430000000  0.4449600000000 1.0
C      1  0.5176870000000  0.4074210000000  0.5550900000000 1.0
C      1  0.4457520000000  0.5166480000000  0.5933390000000 1.0
C      1  0.5549540000000  0.5174230000000  0.4107190000000 1.0
C      1  0.5555850000000  0.4852550000000  0.5890630000000 1.0
C      1  0.4107030000000  0.5561350000000  0.5165410000000 1.0
C      1  0.5917060000000  0.5558410000000  0.4834960000000 1.0
C      1  0.5929900000000  0.4453830000000  0.5147550000000 1.0
C      1  0.5178290000000  0.4113390000000  0.4453010000000 1.0
C      1  0.5567650000000  0.4856380000000  0.4088590000000 1.0
C      1  0.5927860000000  0.4460740000000  0.4827800000000 1.0
C      1  0.5187970000000  0.5929160000000  0.5549990000000 1.0
C      1  0.4852800000000  0.5926230000000  0.4445090000000 1.0
C      1  0.4851840000000  0.4070880000000  0.5551370000000 1.0
C      1  0.5554740000000  0.5173110000000  0.5884660000000 1.0
C      1  0.4457640000000  0.5170780000000  0.4075020000000 1.0
C      1  0.4453670000000  0.4842940000000  0.5924750000000 1.0
C      1  0.5924290000000  0.5563660000000  0.5156550000000 1.0
C      1  0.4106250000000  0.5555110000000  0.4842120000000 1.0
C      1  0.4093180000000  0.4448840000000  0.5140180000000 1.0
C      1  0.4721530000000  0.5718330000000  0.5712260000000 1.0
C      1  0.5724720000000  0.4701470000000  0.5701560000000 1.0
C      1  0.5727210000000  0.5730340000000  0.4681530000000 1.0
C      1  0.4711210000000  0.4287920000000  0.4268000000000 1.0
C      1  0.5328140000000  0.4286580000000  0.5702020000000 1.0
C      1  0.5329260000000  0.5724140000000  0.4288770000000 1.0
C      1  0.5728740000000  0.5333300000000  0.4284100000000 1.0
C      1  0.4309080000000  0.5321990000000  0.5723300000000 1.0
C      1  0.4307070000000  0.4691220000000  0.4269380000000 1.0
C      1  0.5719860000000  0.4302430000000  0.5294510000000 1.0
C      1  0.4290350000000  0.4280330000000  0.4661460000000 1.0
C      1  0.4303350000000  0.5726190000000  0.5315960000000 1.0
C      1  0.5346800000000  0.5735080000000  0.5714520000000 1.0
C      1  0.4300450000000  0.4697610000000  0.5711000000000 1.0
C      1  0.4295750000000  0.5724960000000  0.4689630000000 1.0
C      1  0.5335920000000  0.4291780000000  0.4275170000000 1.0
C      1  0.4703760000000  0.4283440000000  0.5702280000000 1.0
C      1  0.4704520000000  0.5715320000000  0.4295460000000 1.0
C      1  0.4299530000000  0.5321270000000  0.4281600000000 1.0
C      1  0.5740120000000  0.5332720000000  0.5715270000000 1.0
C      1  0.5728900000000  0.4703310000000  0.4284840000000 1.0
C      1  0.4292890000000  0.4287080000000  0.5290130000000 1.0
C      1  0.5727610000000  0.4300570000000  0.4672700000000 1.0
C      1  0.5733410000000  0.5731630000000  0.5310810000000 1.0
C      1  0.5398280000000  0.5273050000000  0.4850310000000 1.0
C      1  0.4829880000000  0.5467660000000  0.5292080000000 1.0
C      1  0.5227810000000  0.4755790000000  0.5375280000000 1.0
C      1  0.5463400000000  0.4693280000000  0.5191720000000 1.0
C      1  0.4614900000000  0.4747960000000  0.4948800000000 1.0
C      1  0.4633650000000  0.5241180000000  0.5129430000000 1.0
C      1  0.4780910000000  0.4590470000000  0.4768320000000 1.0
C      1  0.5065020000000  0.4502830000000  0.5362870000000 1.0
C      1  0.5131170000000  0.5442510000000  0.4693680000000 1.0
C      1  0.5213170000000  0.5114150000000  0.4622250000000 1.0
C      1  0.4642470000000  0.5222510000000  0.5475050000000 1.0
C      1  0.4679450000000  0.4732700000000  0.4523710000000 1.0
C      1  0.4635160000000  0.5241870000000  0.4779930000000 1.0
C      1  0.5147150000000  0.5439220000000  0.5299990000000 1.0
C      1  0.4634700000000  0.4902020000000  0.5490610000000 1.0
C      1  0.4593540000000  0.4716360000000  0.5262740000000 1.0
C      1  0.5434480000000  0.4673480000000  0.4871800000000 1.0
C      1  0.5408410000000  0.5261110000000  0.5161710000000 1.0
C      1  0.5099720000000  0.4606460000000  0.4802560000000 1.0
C      1  0.4760040000000  0.4488000000000  0.5340070000000 1.0
C      1  0.4817720000000  0.5474940000000  0.4713700000000 1.0
C      1  0.4656050000000  0.5052380000000  0.4533360000000 1.0
C      1  0.5187450000000  0.5096970000000  0.5362980000000 1.0
C      1  0.5259720000000  0.4803890000000  0.4586980000000 1.0
C      1  0.4439980000000  0.5940650000000  0.4841430000000 1.0
C      1  0.4857250000000  0.4439110000000  0.5907180000000 1.0
C      1  0.5920250000000  0.4856820000000  0.4454090000000 1.0
C      1  0.4427790000000  0.4062690000000  0.5139330000000 1.0
C      1  0.5548420000000  0.4120110000000  0.4826250000000 1.0
C      1  0.5562020000000  0.5921160000000  0.5157260000000 1.0
C      1  0.4857680000000  0.5548980000000  0.4103790000000 1.0
C      1  0.5194650000000  0.5554420000000  0.5895640000000 1.0
C      1  0.5186030000000  0.4439830000000  0.4063820000000 1.0
C      1  0.5939890000000  0.5179750000000  0.5555830000000 1.0
C      1  0.4109580000000  0.5164000000000  0.4447790000000 1.0
C      1  0.4093970000000  0.4852890000000  0.5561720000000 1.0
C      1  0.5558840000000  0.5920830000000  0.4837080000000 1.0
C      1  0.5176600000000  0.4447450000000  0.5900670000000 1.0
C      1  0.4117890000000  0.4840280000000  0.4444140000000 1.0
C      1  0.5561480000000  0.4103400000000  0.5141740000000 1.0
C      1  0.4439520000000  0.4071790000000  0.4814570000000 1.0
C      1  0.4444670000000  0.5940260000000  0.5165130000000 1.0
C      1  0.5173230000000  0.5539360000000  0.4116580000000 1.0
C      1  0.4877000000000  0.5566610000000  0.5916500000000 1.0
C      1  0.4864330000000  0.4431400000000  0.4053660000000 1.0
C      1  0.4104620000000  0.5175710000000  0.5561550000000 1.0
C      1  0.5919120000000  0.5178920000000  0.4454410000000 1.0
C      1  0.5939010000000  0.4854380000000  0.5558310000000 1.0
C      1  0.4131360000000  0.4728200000000  0.4717420000000 1.0
C      1  0.4721150000000  0.4040190000000  0.4697960000000 1.0
C      1  0.4726800000000  0.4704810000000  0.3986910000000 1.0
C      1  0.4094990000000  0.5290130000000  0.5284070000000 1.0
C      1  0.5901500000000  0.5279540000000  0.4732580000000 1.0
C      1  0.5995630000000  0.4721910000000  0.5286480000000 1.0
C      1  0.4719910000000  0.6001980000000  0.5297480000000 1.0
C      1  0.5280050000000  0.5937500000000  0.4729900000000 1.0
C      1  0.5296670000000  0.4034650000000  0.5271350000000 1.0
C      1  0.4738750000000  0.5302540000000  0.6000520000000 1.0
C      1  0.5271390000000  0.5262670000000  0.4136160000000 1.0
C      1  0.5282240000000  0.4730040000000  0.5912260000000 1.0
C      1  0.5932220000000  0.4743610000000  0.4730090000000 1.0
C      1  0.5270030000000  0.4129960000000  0.4730390000000 1.0
C      1  0.5302310000000  0.4721330000000  0.4037290000000 1.0
C      1  0.5939090000000  0.5289140000000  0.5275450000000 1.0
C      1  0.4101390000000  0.5275550000000  0.4727370000000 1.0
C      1  0.4026600000000  0.4717110000000  0.5286710000000 1.0
C      1  0.5285710000000  0.5934750000000  0.5267820000000 1.0
C      1  0.4714070000000  0.5999490000000  0.4710870000000 1.0
C      1  0.4697540000000  0.3973660000000  0.5283760000000 1.0
C      1  0.5284360000000  0.5277570000000  0.5858360000000 1.0
C      1  0.4737410000000  0.5277760000000  0.4063670000000 1.0
C      1  0.4725700000000  0.4706230000000  0.5977610000000 1.0
C      1  0.5623820000000  0.5618390000000  0.5594000000000 1.0
C      1  0.5614010000000  0.4419350000000  0.4395780000000 1.0
C      1  0.4423580000000  0.4410310000000  0.5579010000000 1.0
C      1  0.4424480000000  0.5601840000000  0.4409920000000 1.0
C      1  0.4438290000000  0.5598980000000  0.5596330000000 1.0
C      1  0.4426770000000  0.4408900000000  0.4383100000000 1.0
C      1  0.5603650000000  0.4417800000000  0.5573210000000 1.0
C      1  0.5611340000000  0.5614620000000  0.4402500000000 1.0
END
