TITL C-862127-1500-896 309694.242677897 125000 -834.098910365719 0 0 145 (C1) n - 1
REM
REM in /home/nfs/bkarasulu/CARBON/AIRSS/Generating-Clusters/TERSOFF/Higher-Symm/FIRE-HFTN
REM
REM
REM
REM
REM
REM ./C.cell (b20cbc046b6831c77cfcea5457e17084)
REM AIRSS Version 0.9.1 bugfix July 2018 build 013d7b7c2542+ Fri, 06 Jul 2018 19:26:36 +0100
REM compiler GCC version 9.2.1 20190827 (Red Hat 9.2.1-1)
REM options -cpp -mtune=generic -march=x86-64 -g -O0 -fpre-include=/usr/include/finclude/math-vector-fortran.h
REM seed -1226829718 2135586491 2074890412 -296554717 1713704315 1369830432 225714899 1469807422 -1062125731 -674984578 407032981 199085436 587212873 1733841308 773473392 1131997473 1577166860 1512641404 -369105616 -555811459 -1581446041 -1459260734 43583817 838124965 1447656152 462991382 -621573515 1598603995 -1317932803 -698647690 -710478251 -516652267 203103085
REM
CELL 1.54180   50.00000   50.00000   50.00000   90.00000   90.00000   90.00000
LATT -1
SFAC C  
C      1  0.5967670000000  0.4560500000000  0.5469660000000 1.0
C      1  0.5947450000000  0.5394790000000  0.5465540000000 1.0
C      1  0.5605940000000  0.4374970000000  0.5186360000000 1.0
C      1  0.5590330000000  0.5589710000000  0.5170170000000 1.0
C      1  0.4191170000000  0.4417720000000  0.4787240000000 1.0
C      1  0.4182650000000  0.5590290000000  0.4781230000000 1.0
C      1  0.4087280000000  0.5592210000000  0.5490140000000 1.0
C      1  0.4090890000000  0.4418310000000  0.5495850000000 1.0
C      1  0.6014830000000  0.3981590000000  0.5183740000000 1.0
C      1  0.5997660000000  0.5991760000000  0.5199650000000 1.0
C      1  0.4820040000000  0.4413720000000  0.5838250000000 1.0
C      1  0.4818850000000  0.5602550000000  0.5828060000000 1.0
C      1  0.4419960000000  0.5256990000000  0.6067810000000 1.0
C      1  0.4420270000000  0.4762800000000  0.6070650000000 1.0
C      1  0.4691200000000  0.5159720000000  0.6083060000000 1.0
C      1  0.4691280000000  0.4860580000000  0.6085330000000 1.0
C      1  0.5915100000000  0.4770260000000  0.4912500000000 1.0
C      1  0.5871740000000  0.5189810000000  0.4867330000000 1.0
C      1  0.5810380000000  0.6140080000000  0.5005740000000 1.0
C      1  0.5824450000000  0.3839700000000  0.4988510000000 1.0
C      1  0.5875700000000  0.5896230000000  0.5450940000000 1.0
C      1  0.5898800000000  0.4061460000000  0.5443420000000 1.0
C      1  0.4175700000000  0.4710210000000  0.4725120000000 1.0
C      1  0.4170890000000  0.5296930000000  0.4721010000000 1.0
C      1  0.5351090000000  0.5432610000000  0.4571060000000 1.0
C      1  0.5361670000000  0.4584120000000  0.4582440000000 1.0
C      1  0.5781180000000  0.4328940000000  0.5435270000000 1.0
C      1  0.5763390000000  0.5628430000000  0.5424300000000 1.0
C      1  0.4388330000000  0.4765300000000  0.5311210000000 1.0
C      1  0.4386880000000  0.5245420000000  0.5308580000000 1.0
C      1  0.4970590000000  0.4336180000000  0.4782240000000 1.0
C      1  0.4960430000000  0.5679090000000  0.4766680000000 1.0
C      1  0.4628600000000  0.5980890000000  0.4383940000000 1.0
C      1  0.4641940000000  0.4030500000000  0.4392170000000 1.0
C      1  0.4626890000000  0.5638880000000  0.5018530000000 1.0
C      1  0.4633430000000  0.4368790000000  0.5030280000000 1.0
C      1  0.4706050000000  0.5545760000000  0.4685860000000 1.0
C      1  0.4714020000000  0.4467490000000  0.4693590000000 1.0
C      1  0.4924620000000  0.4414640000000  0.4219950000000 1.0
C      1  0.4913480000000  0.5597840000000  0.4211410000000 1.0
C      1  0.5098980000000  0.4339530000000  0.5267430000000 1.0
C      1  0.5086320000000  0.5660310000000  0.5277930000000 1.0
C      1  0.3967490000000  0.5307120000000  0.5462560000000 1.0
C      1  0.3969290000000  0.4702760000000  0.5465520000000 1.0
C      1  0.4002600000000  0.4356230000000  0.5012190000000 1.0
C      1  0.3994980000000  0.5650470000000  0.5007220000000 1.0
C      1  0.4909190000000  0.5967420000000  0.4794620000000 1.0
C      1  0.4918120000000  0.4046970000000  0.4802700000000 1.0
C      1  0.4825450000000  0.5773310000000  0.5220370000000 1.0
C      1  0.4832810000000  0.4232880000000  0.5227490000000 1.0
C      1  0.4471470000000  0.5155280000000  0.5579110000000 1.0
C      1  0.4472270000000  0.4858750000000  0.5580830000000 1.0
C      1  0.5667370000000  0.5956730000000  0.4808470000000 1.0
C      1  0.5672690000000  0.4029910000000  0.4803210000000 1.0
C      1  0.4651180000000  0.4736770000000  0.4600450000000 1.0
C      1  0.4645940000000  0.5275610000000  0.4594730000000 1.0
C      1  0.4365630000000  0.5788510000000  0.4648930000000 1.0
C      1  0.4376330000000  0.4221020000000  0.4655870000000 1.0
C      1  0.4557800000000  0.4023490000000  0.4803580000000 1.0
C      1  0.4548390000000  0.5986370000000  0.4796160000000 1.0
C      1  0.4098530000000  0.5770520000000  0.5253560000000 1.0
C      1  0.4105970000000  0.4238870000000  0.5259850000000 1.0
C      1  0.5162720000000  0.6100700000000  0.4678900000000 1.0
C      1  0.5162890000000  0.3910880000000  0.4677230000000 1.0
C      1  0.4034260000000  0.5156040000000  0.5723940000000 1.0
C      1  0.4034990000000  0.4857170000000  0.5725440000000 1.0
C      1  0.4107570000000  0.5156600000000  0.5232760000000 1.0
C      1  0.4108580000000  0.4851820000000  0.5234330000000 1.0
C      1  0.6064850000000  0.5700780000000  0.5071070000000 1.0
C      1  0.6078790000000  0.4276170000000  0.5063810000000 1.0
C      1  0.4570730000000  0.5700270000000  0.5687710000000 1.0
C      1  0.4571340000000  0.4312080000000  0.5701480000000 1.0
C      1  0.5235400000000  0.4681320000000  0.5065300000000 1.0
C      1  0.5197480000000  0.5328350000000  0.5046340000000 1.0
C      1  0.4464980000000  0.6038820000000  0.5462800000000 1.0
C      1  0.4472150000000  0.3973360000000  0.5473840000000 1.0
C      1  0.5626680000000  0.4473810000000  0.4208500000000 1.0
C      1  0.5615790000000  0.5551930000000  0.4187820000000 1.0
C      1  0.5171380000000  0.5730000000000  0.4189240000000 1.0
C      1  0.5183410000000  0.4286810000000  0.4196910000000 1.0
C      1  0.4397850000000  0.3878310000000  0.5007880000000 1.0
C      1  0.4386820000000  0.6131550000000  0.4998900000000 1.0
C      1  0.4888000000000  0.5306570000000  0.4147320000000 1.0
C      1  0.4897790000000  0.4703490000000  0.4155450000000 1.0
C      1  0.4875990000000  0.5323810000000  0.5922590000000 1.0
C      1  0.4876550000000  0.4694130000000  0.5928060000000 1.0
C      1  0.4305250000000  0.5291080000000  0.5805910000000 1.0
C      1  0.4306410000000  0.4724810000000  0.5808940000000 1.0
C      1  0.5426380000000  0.4056110000000  0.4608240000000 1.0
C      1  0.5422900000000  0.5949260000000  0.4608030000000 1.0
C      1  0.5622290000000  0.4832410000000  0.4176610000000 1.0
C      1  0.5612990000000  0.5193170000000  0.4151920000000 1.0
C      1  0.5893590000000  0.4411970000000  0.4655740000000 1.0
C      1  0.5893720000000  0.5576370000000  0.4648990000000 1.0
C      1  0.5799260000000  0.4285370000000  0.4906370000000 1.0
C      1  0.5793180000000  0.5695550000000  0.4899420000000 1.0
C      1  0.5102620000000  0.4848760000000  0.3968270000000 1.0
C      1  0.5090960000000  0.5158310000000  0.3952800000000 1.0
C      1  0.3831140000000  0.4617210000000  0.5023930000000 1.0
C      1  0.3827300000000  0.5387210000000  0.5021680000000 1.0
C      1  0.5623060000000  0.5121160000000  0.4991680000000 1.0
C      1  0.5677150000000  0.4846340000000  0.5040590000000 1.0
C      1  0.5409910000000  0.4325200000000  0.4391110000000 1.0
C      1  0.5400990000000  0.5691170000000  0.4381680000000 1.0
C      1  0.6183140000000  0.4825660000000  0.5054870000000 1.0
C      1  0.6119870000000  0.5162850000000  0.5025420000000 1.0
C      1  0.5473870000000  0.5297730000000  0.5170610000000 1.0
C      1  0.5506610000000  0.4666300000000  0.5197390000000 1.0
C      1  0.4309510000000  0.4445380000000  0.5706590000000 1.0
C      1  0.4307660000000  0.5569210000000  0.5699320000000 1.0
C      1  0.5630820000000  0.4769020000000  0.4506670000000 1.0
C      1  0.5610770000000  0.5247780000000  0.4476620000000 1.0
C      1  0.5845170000000  0.4818570000000  0.5577920000000 1.0
C      1  0.5795120000000  0.5149480000000  0.5550030000000 1.0
C      1  0.5340080000000  0.5756470000000  0.5176900000000 1.0
C      1  0.5350020000000  0.4219830000000  0.5190060000000 1.0
C      1  0.4409530000000  0.5147730000000  0.4680990000000 1.0
C      1  0.4412150000000  0.4862340000000  0.4684100000000 1.0
C      1  0.5198810000000  0.4847880000000  0.4459700000000 1.0
C      1  0.5198520000000  0.5179300000000  0.4435740000000 1.0
C      1  0.6143910000000  0.4550310000000  0.5224390000000 1.0
C      1  0.6124880000000  0.5409820000000  0.5216510000000 1.0
C      1  0.5299440000000  0.5223710000000  0.4161440000000 1.0
C      1  0.5307450000000  0.4797140000000  0.4184950000000 1.0
C      1  0.4967400000000  0.5261400000000  0.5222830000000 1.0
C      1  0.4996680000000  0.4745580000000  0.5238480000000 1.0
C      1  0.5885390000000  0.4692440000000  0.4633500000000 1.0
C      1  0.5860660000000  0.5301760000000  0.4607890000000 1.0
C      1  0.4784600000000  0.5150240000000  0.4370780000000 1.0
C      1  0.4787860000000  0.4861210000000  0.4373970000000 1.0
C      1  0.5500570000000  0.5149870000000  0.5437270000000 1.0
C      1  0.5542710000000  0.4827940000000  0.5454280000000 1.0
C      1  0.5217820000000  0.4476950000000  0.4832020000000 1.0
C      1  0.5204740000000  0.5535580000000  0.4821630000000 1.0
C      1  0.4728860000000  0.5708800000000  0.4413440000000 1.0
C      1  0.4741430000000  0.4302790000000  0.4422240000000 1.0
C      1  0.5159830000000  0.5119080000000  0.4848570000000 1.0
C      1  0.5297630000000  0.4887650000000  0.4865540000000 1.0
C      1  0.3936060000000  0.4845950000000  0.4846130000000 1.0
C      1  0.3933570000000  0.5158860000000  0.4844270000000 1.0
C      1  0.4736230000000  0.5973240000000  0.5414790000000 1.0
C      1  0.4743200000000  0.4041980000000  0.5429640000000 1.0
C      1  0.4278910000000  0.6010060000000  0.5249400000000 1.0
C      1  0.4288690000000  0.4000970000000  0.5257810000000 1.0
C      1  0.4847410000000  0.4997950000000  0.5238860000000 1.0
END
