TITL C-862132-7359-41 -0.00388072985517768 125000 -625.641755492188 0 0 108 (D3) n - 1
REM
REM in /home/nfs/bkarasulu/CARBON/AIRSS/Generating-Clusters/TERSOFF/Higher-Symm/FIRE-HFTN
REM
REM
REM
REM
REM
REM ./C.cell (b20cbc046b6831c77cfcea5457e17084)
REM AIRSS Version 0.9.1 bugfix July 2018 build 013d7b7c2542+ Fri, 06 Jul 2018 19:26:36 +0100
REM compiler GCC version 9.2.1 20190827 (Red Hat 9.2.1-1)
REM options -cpp -mtune=generic -march=x86-64 -g -O0 -fpre-include=/usr/include/finclude/math-vector-fortran.h
REM seed -1850271540 291070899 -1733064009 -81930153 -903115989 -2095982852 80634583 1242077456 -185401919 1874943153 -615782379 955534810 2024422326 614301900 831953604 1479640720 -1245141025 -123820048 -2121330059 1013770261 719074016 -460686724 826127731 -198367692 -911482326 1827102556 1287159263 -472400457 -1515134039 -1545782878 -1380735920 -1619008045 -1488759719
REM
CELL 1.54180   50.00000   50.00000   50.00000   90.00000   90.00000   90.00000
LATT -1
SFAC C  
C      1  0.4984240000000  0.4657860000000  0.5699470000000 1.0
C      1  0.4711580000000  0.5184720000000  0.5699470000000 1.0
C      1  0.5304180000000  0.5157420000000  0.5699470000000 1.0
C      1  0.4984240000000  0.5342140000000  0.4300530000000 1.0
C      1  0.4711580000000  0.4815280000000  0.4300530000000 1.0
C      1  0.5304180000000  0.4842580000000  0.4300530000000 1.0
C      1  0.5871670000000  0.5046380000000  0.4858410000000 1.0
C      1  0.4604330000000  0.4221920000000  0.4858410000000 1.0
C      1  0.4524000000000  0.5731700000000  0.4858410000000 1.0
C      1  0.5871670000000  0.4953620000000  0.5141590000000 1.0
C      1  0.4604330000000  0.5778080000000  0.5141590000000 1.0
C      1  0.4524000000000  0.4268300000000  0.5141590000000 1.0
C      1  0.4805070000000  0.5659480000000  0.5687450000000 1.0
C      1  0.5668590000000  0.4839080000000  0.5687450000000 1.0
C      1  0.4526340000000  0.4501440000000  0.5687450000000 1.0
C      1  0.4805070000000  0.4340520000000  0.4312550000000 1.0
C      1  0.5668590000000  0.5160920000000  0.4312550000000 1.0
C      1  0.4526340000000  0.5498560000000  0.4312550000000 1.0
C      1  0.4201890000000  0.5593560000000  0.5252270000000 1.0
C      1  0.5913090000000  0.5394400000000  0.5252270000000 1.0
C      1  0.4885020000000  0.4012040000000  0.5252270000000 1.0
C      1  0.4201890000000  0.4406440000000  0.4747730000000 1.0
C      1  0.5913090000000  0.4605600000000  0.4747730000000 1.0
C      1  0.4885020000000  0.5987960000000  0.4747730000000 1.0
C      1  0.5496430000000  0.5609520000000  0.5457640000000 1.0
C      1  0.5279650000000  0.4265310000000  0.5457640000000 1.0
C      1  0.4223920000000  0.5125160000000  0.5457640000000 1.0
C      1  0.5496430000000  0.4390480000000  0.4542360000000 1.0
C      1  0.5279650000000  0.5734690000000  0.4542360000000 1.0
C      1  0.4223920000000  0.4874840000000  0.4542360000000 1.0
C      1  0.4162870000000  0.5172670000000  0.5153520000000 1.0
C      1  0.5568100000000  0.5638640000000  0.5153520000000 1.0
C      1  0.5269030000000  0.4188690000000  0.5153520000000 1.0
C      1  0.4162870000000  0.4827330000000  0.4846480000000 1.0
C      1  0.5568100000000  0.4361360000000  0.4846480000000 1.0
C      1  0.5269030000000  0.5811310000000  0.4846480000000 1.0
C      1  0.4127610000000  0.5442740000000  0.5020080000000 1.0
C      1  0.5819620000000  0.5534140000000  0.5020080000000 1.0
C      1  0.5052770000000  0.4023120000000  0.5020080000000 1.0
C      1  0.4127610000000  0.4557260000000  0.4979920000000 1.0
C      1  0.5819620000000  0.4465860000000  0.4979920000000 1.0
C      1  0.5052770000000  0.5976880000000  0.4979920000000 1.0
C      1  0.4826630000000  0.4879240000000  0.4573290000000 1.0
C      1  0.4982100000000  0.5210520000000  0.4573290000000 1.0
C      1  0.5191260000000  0.4910240000000  0.4573290000000 1.0
C      1  0.4826630000000  0.5120760000000  0.5426710000000 1.0
C      1  0.4982100000000  0.4789480000000  0.5426710000000 1.0
C      1  0.5191260000000  0.5089760000000  0.5426710000000 1.0
C      1  0.5104190000000  0.5463830000000  0.5014970000000 1.0
C      1  0.5349590000000  0.4677850000000  0.5014970000000 1.0
C      1  0.4546220000000  0.4858320000000  0.5014970000000 1.0
C      1  0.5104190000000  0.4536170000000  0.4985030000000 1.0
C      1  0.5349590000000  0.5322150000000  0.4985030000000 1.0
C      1  0.4546220000000  0.5141680000000  0.4985030000000 1.0
C      1  0.4628580000000  0.5285110000000  0.5223880000000 1.0
C      1  0.5432630000000  0.5179100000000  0.5223880000000 1.0
C      1  0.4938800000000  0.4535780000000  0.5223880000000 1.0
C      1  0.4628580000000  0.4714890000000  0.4776120000000 1.0
C      1  0.5432630000000  0.4820900000000  0.4776120000000 1.0
C      1  0.4938800000000  0.5464220000000  0.4776120000000 1.0
C      1  0.5038670000000  0.4357780000000  0.5644330000000 1.0
C      1  0.4424480000000  0.5287620000000  0.5644330000000 1.0
C      1  0.5536850000000  0.5354600000000  0.5644330000000 1.0
C      1  0.5038670000000  0.5642220000000  0.4355670000000 1.0
C      1  0.4424480000000  0.4712380000000  0.4355670000000 1.0
C      1  0.5536850000000  0.4645400000000  0.4355670000000 1.0
C      1  0.4584890000000  0.5246700000000  0.4716680000000 1.0
C      1  0.5421210000000  0.5236150000000  0.4716680000000 1.0
C      1  0.4993910000000  0.4517150000000  0.4716680000000 1.0
C      1  0.4584890000000  0.4753300000000  0.5283320000000 1.0
C      1  0.5421210000000  0.4763850000000  0.5283320000000 1.0
C      1  0.4993910000000  0.5482850000000  0.5283320000000 1.0
C      1  0.5635040000000  0.4634840000000  0.5457050000000 1.0
C      1  0.4366240000000  0.4632620000000  0.5457050000000 1.0
C      1  0.4998720000000  0.5732540000000  0.5457050000000 1.0
C      1  0.5635040000000  0.5365160000000  0.4542950000000 1.0
C      1  0.4366240000000  0.5367380000000  0.4542950000000 1.0
C      1  0.4998720000000  0.4267460000000  0.4542950000000 1.0
C      1  0.5823200000000  0.4665570000000  0.5211600000000 1.0
C      1  0.4298780000000  0.4454300000000  0.5211600000000 1.0
C      1  0.4878020000000  0.5880120000000  0.5211600000000 1.0
C      1  0.5823200000000  0.5334430000000  0.4788400000000 1.0
C      1  0.4298780000000  0.5545700000000  0.4788400000000 1.0
C      1  0.4878020000000  0.4119880000000  0.4788400000000 1.0
C      1  0.5753650000000  0.4879620000000  0.4397810000000 1.0
C      1  0.4518920000000  0.4407510000000  0.4397810000000 1.0
C      1  0.4727430000000  0.5712870000000  0.4397810000000 1.0
C      1  0.5753650000000  0.5120380000000  0.5602190000000 1.0
C      1  0.4518920000000  0.5592490000000  0.5602190000000 1.0
C      1  0.4727430000000  0.4287130000000  0.5602190000000 1.0
C      1  0.4181350000000  0.4846060000000  0.5534970000000 1.0
C      1  0.5276010000000  0.5785940000000  0.5534970000000 1.0
C      1  0.5542640000000  0.4368000000000  0.5534970000000 1.0
C      1  0.4181350000000  0.5153940000000  0.4465030000000 1.0
C      1  0.5276010000000  0.4214060000000  0.4465030000000 1.0
C      1  0.5542640000000  0.5632000000000  0.4465030000000 1.0
C      1  0.4865250000000  0.5403350000000  0.5831340000000 1.0
C      1  0.5416680000000  0.4915020000000  0.5831340000000 1.0
C      1  0.4718070000000  0.4681630000000  0.5831340000000 1.0
C      1  0.4865250000000  0.4596650000000  0.4168660000000 1.0
C      1  0.5416680000000  0.5084980000000  0.4168660000000 1.0
C      1  0.4718070000000  0.5318370000000  0.4168660000000 1.0
C      1  0.4760390000000  0.4269690000000  0.5312280000000 1.0
C      1  0.4487340000000  0.5572660000000  0.5312280000000 1.0
C      1  0.5752270000000  0.5157650000000  0.5312280000000 1.0
C      1  0.4760390000000  0.5730310000000  0.4687720000000 1.0
C      1  0.4487340000000  0.4427340000000  0.4687720000000 1.0
C      1  0.5752270000000  0.4842350000000  0.4687720000000 1.0
END
