TITL C-862130-1496-819 267817.754256364 125000 -886.694212995289 0 0 159 (C1) n - 1
REM
REM in /home/nfs/bkarasulu/CARBON/AIRSS/Generating-Clusters/TERSOFF/Higher-Symm/FIRE-HFTN
REM
REM
REM
REM
REM
REM ./C.cell (b20cbc046b6831c77cfcea5457e17084)
REM AIRSS Version 0.9.1 bugfix July 2018 build 013d7b7c2542+ Fri, 06 Jul 2018 19:26:36 +0100
REM compiler GCC version 9.2.1 20190827 (Red Hat 9.2.1-1)
REM options -cpp -mtune=generic -march=x86-64 -g -O0 -fpre-include=/usr/include/finclude/math-vector-fortran.h
REM seed 1517060954 -1098725563 1220203782 419388802 423348595 272248115 -708082536 -967678437 2061704118 -1761706266 -50396812 2037665989 2047463088 -648054304 450300747 -302076881 954415119 1740698585 -1346519730 -2126292006 -1736110289 512055333 41175018 1953508174 522153619 -744594386 -1417918216 -1989604224 -499180811 -631581278 -1674787412 -1007389565 1673626095
REM
CELL 1.54180   50.00000   50.00000   50.00000   90.00000   90.00000   90.00000
LATT -1
SFAC C  
C      1  0.5328490000000  0.5882180000000  0.5324660000000 1.0
C      1  0.4812770000000  0.5954770000000  0.5347570000000 1.0
C      1  0.4330570000000  0.5718330000000  0.5362900000000 1.0
C      1  0.4095900000000  0.5226030000000  0.5322120000000 1.0
C      1  0.4087410000000  0.4704040000000  0.5356620000000 1.0
C      1  0.4445130000000  0.4303980000000  0.5319210000000 1.0
C      1  0.4907940000000  0.4084750000000  0.5358400000000 1.0
C      1  0.5426280000000  0.4221230000000  0.5348390000000 1.0
C      1  0.5842910000000  0.4568600000000  0.5384370000000 1.0
C      1  0.5895970000000  0.5088390000000  0.5358220000000 1.0
C      1  0.5764610000000  0.5601830000000  0.5348890000000 1.0
C      1  0.5369900000000  0.5387730000000  0.6116650000000 1.0
C      1  0.5098450000000  0.5423110000000  0.6212590000000 1.0
C      1  0.4871960000000  0.5259380000000  0.6133290000000 1.0
C      1  0.4733930000000  0.5072230000000  0.6307040000000 1.0
C      1  0.4532580000000  0.4882180000000  0.6219350000000 1.0
C      1  0.4588060000000  0.4612260000000  0.6128770000000 1.0
C      1  0.4813220000000  0.4536720000000  0.5961430000000 1.0
C      1  0.5084530000000  0.4538680000000  0.6073520000000 1.0
C      1  0.5315870000000  0.4663460000000  0.5945620000000 1.0
C      1  0.5450660000000  0.4891110000000  0.6071550000000 1.0
C      1  0.5461380000000  0.5162070000000  0.5958360000000 1.0
C      1  0.4029000000000  0.4351100000000  0.5134140000000 1.0
C      1  0.4462760000000  0.3943570000000  0.5102130000000 1.0
C      1  0.5151300000000  0.3801720000000  0.5158280000000 1.0
C      1  0.5800360000000  0.4101900000000  0.5195860000000 1.0
C      1  0.6086470000000  0.4559810000000  0.5198300000000 1.0
C      1  0.6150670000000  0.5320140000000  0.5117760000000 1.0
C      1  0.5878420000000  0.5803690000000  0.5145150000000 1.0
C      1  0.5190530000000  0.6197710000000  0.5084230000000 1.0
C      1  0.4514510000000  0.6119730000000  0.5102150000000 1.0
C      1  0.3994640000000  0.5666150000000  0.5116230000000 1.0
C      1  0.3781310000000  0.5032440000000  0.5121960000000 1.0
C      1  0.4122490000000  0.4403890000000  0.4865350000000 1.0
C      1  0.4568340000000  0.4024370000000  0.4845030000000 1.0
C      1  0.5152480000000  0.3923930000000  0.4895910000000 1.0
C      1  0.5760230000000  0.4204090000000  0.4928050000000 1.0
C      1  0.6097970000000  0.4694580000000  0.4935770000000 1.0
C      1  0.6030130000000  0.5361160000000  0.4857830000000 1.0
C      1  0.5752060000000  0.5837760000000  0.4880950000000 1.0
C      1  0.5100170000000  0.6074920000000  0.4838190000000 1.0
C      1  0.4524680000000  0.5972170000000  0.4853350000000 1.0
C      1  0.4071940000000  0.5572460000000  0.4853500000000 1.0
C      1  0.3912550000000  0.4986690000000  0.4868060000000 1.0
C      1  0.4768630000000  0.4589850000000  0.4144840000000 1.0
C      1  0.5055050000000  0.4601980000000  0.4135110000000 1.0
C      1  0.5151190000000  0.4808500000000  0.4308270000000 1.0
C      1  0.5412520000000  0.4913020000000  0.4280230000000 1.0
C      1  0.5451660000000  0.5175030000000  0.4380890000000 1.0
C      1  0.5263650000000  0.5358530000000  0.4282160000000 1.0
C      1  0.5017890000000  0.5376800000000  0.4420470000000 1.0
C      1  0.4785820000000  0.5382470000000  0.4264150000000 1.0
C      1  0.4562730000000  0.5226580000000  0.4368280000000 1.0
C      1  0.4503480000000  0.4979780000000  0.4243620000000 1.0
C      1  0.4639310000000  0.4750220000000  0.4336230000000 1.0
C      1  0.4769880000000  0.5522090000000  0.5569280000000 1.0
C      1  0.4507490000000  0.5292100000000  0.5577050000000 1.0
C      1  0.4397160000000  0.4997180000000  0.5636370000000 1.0
C      1  0.4550390000000  0.4737620000000  0.5541370000000 1.0
C      1  0.4779590000000  0.4522100000000  0.5664890000000 1.0
C      1  0.5062630000000  0.4507470000000  0.5521680000000 1.0
C      1  0.5347950000000  0.4625530000000  0.5653740000000 1.0
C      1  0.5473850000000  0.4878170000000  0.5522720000000 1.0
C      1  0.5496080000000  0.5190630000000  0.5663260000000 1.0
C      1  0.5328430000000  0.5419730000000  0.5526770000000 1.0
C      1  0.5069930000000  0.5603540000000  0.5622950000000 1.0
C      1  0.5314670000000  0.4160330000000  0.4820090000000 1.0
C      1  0.5711840000000  0.4496510000000  0.4859250000000 1.0
C      1  0.5919570000000  0.4926860000000  0.4845350000000 1.0
C      1  0.5738360000000  0.5423830000000  0.4811100000000 1.0
C      1  0.5458040000000  0.5770480000000  0.4813720000000 1.0
C      1  0.4921520000000  0.5819830000000  0.4821780000000 1.0
C      1  0.4478590000000  0.5674070000000  0.4827300000000 1.0
C      1  0.4182540000000  0.5299930000000  0.4794680000000 1.0
C      1  0.4166570000000  0.4820030000000  0.4830250000000 1.0
C      1  0.4414770000000  0.4410050000000  0.4781320000000 1.0
C      1  0.4826770000000  0.4172880000000  0.4804620000000 1.0
C      1  0.4508620000000  0.5221940000000  0.4664810000000 1.0
C      1  0.4452850000000  0.4909330000000  0.4736650000000 1.0
C      1  0.4624300000000  0.4670160000000  0.4629120000000 1.0
C      1  0.4886950000000  0.4488650000000  0.4724350000000 1.0
C      1  0.5201050000000  0.4454990000000  0.4709010000000 1.0
C      1  0.5448910000000  0.4651300000000  0.4718020000000 1.0
C      1  0.5607040000000  0.4918180000000  0.4743430000000 1.0
C      1  0.5503600000000  0.5200530000000  0.4672620000000 1.0
C      1  0.5325920000000  0.5472000000000  0.4748820000000 1.0
C      1  0.5009490000000  0.5490770000000  0.4702720000000 1.0
C      1  0.4697410000000  0.5433830000000  0.4797120000000 1.0
C      1  0.4263670000000  0.5288830000000  0.4080220000000 1.0
C      1  0.4242800000000  0.4944250000000  0.4088940000000 1.0
C      1  0.4297470000000  0.4586250000000  0.4085960000000 1.0
C      1  0.4588900000000  0.4375930000000  0.4055830000000 1.0
C      1  0.5223030000000  0.4369390000000  0.4130310000000 1.0
C      1  0.5526570000000  0.4438620000000  0.4145710000000 1.0
C      1  0.5644080000000  0.4758570000000  0.4153240000000 1.0
C      1  0.5759870000000  0.5070980000000  0.4105010000000 1.0
C      1  0.5346170000000  0.5591280000000  0.4129490000000 1.0
C      1  0.5089260000000  0.5774670000000  0.4121030000000 1.0
C      1  0.4783220000000  0.5653780000000  0.4131030000000 1.0
C      1  0.5123760000000  0.5932380000000  0.4381170000000 1.0
C      1  0.4641550000000  0.5797490000000  0.4356410000000 1.0
C      1  0.4213480000000  0.5456980000000  0.4337710000000 1.0
C      1  0.4079040000000  0.4973280000000  0.4367580000000 1.0
C      1  0.4203380000000  0.4501620000000  0.4365180000000 1.0
C      1  0.4608430000000  0.4210420000000  0.4324340000000 1.0
C      1  0.5150230000000  0.4163270000000  0.4341860000000 1.0
C      1  0.5626470000000  0.4293770000000  0.4393630000000 1.0
C      1  0.5849800000000  0.4723740000000  0.4394070000000 1.0
C      1  0.5869160000000  0.5219710000000  0.4348240000000 1.0
C      1  0.5562330000000  0.5683120000000  0.4332990000000 1.0
C      1  0.5681900000000  0.4652890000000  0.5134800000000 1.0
C      1  0.5787200000000  0.5098110000000  0.5077330000000 1.0
C      1  0.5598390000000  0.5494590000000  0.5097540000000 1.0
C      1  0.5261530000000  0.5756660000000  0.5059650000000 1.0
C      1  0.4795910000000  0.5768830000000  0.5101270000000 1.0
C      1  0.4402930000000  0.5553360000000  0.5111340000000 1.0
C      1  0.4241500000000  0.5162310000000  0.5061260000000 1.0
C      1  0.4266550000000  0.4725270000000  0.5108190000000 1.0
C      1  0.4563970000000  0.4392590000000  0.5046990000000 1.0
C      1  0.4959400000000  0.4238590000000  0.5096180000000 1.0
C      1  0.5387790000000  0.4335480000000  0.5070940000000 1.0
C      1  0.5789750000000  0.5321210000000  0.5513350000000 1.0
C      1  0.5499620000000  0.5681460000000  0.5470380000000 1.0
C      1  0.5078450000000  0.5889630000000  0.5490130000000 1.0
C      1  0.4596030000000  0.5793060000000  0.5501710000000 1.0
C      1  0.4239360000000  0.5448230000000  0.5487490000000 1.0
C      1  0.4115490000000  0.4975750000000  0.5497610000000 1.0
C      1  0.4313530000000  0.4530350000000  0.5477050000000 1.0
C      1  0.4680030000000  0.4235570000000  0.5499930000000 1.0
C      1  0.5157190000000  0.4202600000000  0.5490380000000 1.0
C      1  0.5583250000000  0.4419080000000  0.5519420000000 1.0
C      1  0.5784810000000  0.4845790000000  0.5494610000000 1.0
C      1  0.4581180000000  0.5328890000000  0.5247970000000 1.0
C      1  0.4524030000000  0.5078580000000  0.5113300000000 1.0
C      1  0.4563100000000  0.4803290000000  0.5223630000000 1.0
C      1  0.4745890000000  0.4616440000000  0.5097810000000 1.0
C      1  0.5010780000000  0.4538070000000  0.5207470000000 1.0
C      1  0.5266170000000  0.4610170000000  0.5093180000000 1.0
C      1  0.5434840000000  0.4828030000000  0.5209880000000 1.0
C      1  0.5480040000000  0.5092030000000  0.5102410000000 1.0
C      1  0.5342160000000  0.5340460000000  0.5213520000000 1.0
C      1  0.5114060000000  0.5493490000000  0.5109140000000 1.0
C      1  0.4841820000000  0.5492550000000  0.5231090000000 1.0
C      1  0.4087280000000  0.5242920000000  0.4502810000000 1.0
C      1  0.4089470000000  0.4728480000000  0.4530470000000 1.0
C      1  0.4378380000000  0.4302190000000  0.4493940000000 1.0
C      1  0.4872650000000  0.4153520000000  0.4471790000000 1.0
C      1  0.5396760000000  0.4137310000000  0.4516660000000 1.0
C      1  0.5795040000000  0.4479120000000  0.4554140000000 1.0
C      1  0.5958940000000  0.4974230000000  0.4522100000000 1.0
C      1  0.5747780000000  0.5478160000000  0.4474870000000 1.0
C      1  0.5399700000000  0.5866320000000  0.4515190000000 1.0
C      1  0.4861820000000  0.5918930000000  0.4529550000000 1.0
C      1  0.4414080000000  0.5657480000000  0.4490830000000 1.0
C      1  0.4980800000000  0.4909940000000  0.4521330000000 1.0
C      1  0.5076790000000  0.5029330000000  0.4766930000000 1.0
C      1  0.5010540000000  0.5007970000000  0.5540650000000 1.0
C      1  0.5009360000000  0.4936960000000  0.5032730000000 1.0
C      1  0.4998830000000  0.5104790000000  0.5268130000000 1.0
END
