TITL C-862133-5440-299 0.141101667849555 125000 -1035.09185706 0 0 174 (C1) n - 1
REM
REM in /home/nfs/bkarasulu/CARBON/AIRSS/Generating-Clusters/TERSOFF/Higher-Symm/FIRE-HFTN
REM
REM
REM
REM
REM
REM ./C.cell (b20cbc046b6831c77cfcea5457e17084)
REM AIRSS Version 0.9.1 bugfix July 2018 build 013d7b7c2542+ Fri, 06 Jul 2018 19:26:36 +0100
REM compiler GCC version 9.2.1 20190827 (Red Hat 9.2.1-1)
REM options -cpp -mtune=generic -march=x86-64 -g -O0 -fpre-include=/usr/include/finclude/math-vector-fortran.h
REM seed -1992464942 1916573247 -803695781 1625328527 -74970218 -1078847708 1880653365 1827359502 -651491205 1611921044 -857828862 1430666657 -439331618 -891126922 -37379847 -284376664 949881470 1159962466 920773068 923716700 993048474 498659363 -183063377 1538881433 721852435 1056500055 -520297250 600128622 -132388521 -1201659976 203708088 -1292544994 -1211537989
REM
CELL 1.54180   50.00000   50.00000   50.00000   90.00000   90.00000   90.00000
LATT -1
SFAC C  
C      1  0.5636740000000  0.5675120000000  0.5075430000000 1.0
C      1  0.5267880000000  0.4101760000000  0.5072100000000 1.0
C      1  0.4107100000000  0.5209840000000  0.5019820000000 1.0
C      1  0.4467020000000  0.4151420000000  0.5423050000000 1.0
C      1  0.4503960000000  0.5880040000000  0.5426950000000 1.0
C      1  0.6010750000000  0.4961420000000  0.5419800000000 1.0
C      1  0.5568890000000  0.5223830000000  0.4929140000000 1.0
C      1  0.4917070000000  0.4391690000000  0.4928660000000 1.0
C      1  0.4533220000000  0.5373190000000  0.4924660000000 1.0
C      1  0.4956600000000  0.5918960000000  0.4461100000000 1.0
C      1  0.5816500000000  0.4580100000000  0.4459990000000 1.0
C      1  0.4232270000000  0.4507090000000  0.4466730000000 1.0
C      1  0.5184650000000  0.4442930000000  0.5552920000000 1.0
C      1  0.4433510000000  0.5106030000000  0.5579770000000 1.0
C      1  0.5391050000000  0.5431800000000  0.5551490000000 1.0
C      1  0.4156060000000  0.5087460000000  0.4213550000000 1.0
C      1  0.5488940000000  0.5688500000000  0.4230930000000 1.0
C      1  0.5348930000000  0.4223450000000  0.4221650000000 1.0
C      1  0.4954430000000  0.4814760000000  0.5761770000000 1.0
C      1  0.4876850000000  0.5142880000000  0.5764500000000 1.0
C      1  0.5195980000000  0.5044720000000  0.5763500000000 1.0
C      1  0.5862810000000  0.5578790000000  0.4909380000000 1.0
C      1  0.5068190000000  0.3956590000000  0.4907380000000 1.0
C      1  0.4070800000000  0.5464850000000  0.4891310000000 1.0
C      1  0.5719180000000  0.4603410000000  0.4984930000000 1.0
C      1  0.4305120000000  0.4580650000000  0.4990590000000 1.0
C      1  0.4980560000000  0.5812510000000  0.4984690000000 1.0
C      1  0.6068750000000  0.4266840000000  0.4940160000000 1.0
C      1  0.3834870000000  0.4453210000000  0.4947710000000 1.0
C      1  0.5093990000000  0.6284760000000  0.4946600000000 1.0
C      1  0.6004110000000  0.4482850000000  0.5402500000000 1.0
C      1  0.4056180000000  0.4395050000000  0.5406000000000 1.0
C      1  0.4930440000000  0.6113360000000  0.5403810000000 1.0
C      1  0.4213140000000  0.5196190000000  0.4496990000000 1.0
C      1  0.5553590000000  0.5589510000000  0.4514150000000 1.0
C      1  0.5233390000000  0.4217430000000  0.4507570000000 1.0
C      1  0.4396460000000  0.4653460000000  0.3993360000000 1.0
C      1  0.5000920000000  0.5689540000000  0.3993040000000 1.0
C      1  0.5598680000000  0.4646550000000  0.3990300000000 1.0
C      1  0.5069590000000  0.4335490000000  0.4104190000000 1.0
C      1  0.4400190000000  0.5267890000000  0.4097430000000 1.0
C      1  0.5538960000000  0.5393910000000  0.4106480000000 1.0
C      1  0.4299330000000  0.5008780000000  0.5967490000000 1.0
C      1  0.5351250000000  0.5608100000000  0.5988270000000 1.0
C      1  0.5357270000000  0.4391480000000  0.5990630000000 1.0
C      1  0.4222110000000  0.4755010000000  0.5810800000000 1.0
C      1  0.5163680000000  0.5800680000000  0.5822640000000 1.0
C      1  0.5618470000000  0.4450170000000  0.5821700000000 1.0
C      1  0.5286490000000  0.6223730000000  0.4738750000000 1.0
C      1  0.5915770000000  0.4135370000000  0.4733000000000 1.0
C      1  0.3797980000000  0.4650090000000  0.4739950000000 1.0
C      1  0.4905870000000  0.5393480000000  0.5156680000000 1.0
C      1  0.5387220000000  0.4861140000000  0.5159240000000 1.0
C      1  0.4694920000000  0.4739320000000  0.5160120000000 1.0
C      1  0.4711380000000  0.5407130000000  0.5372520000000 1.0
C      1  0.5499450000000  0.5016810000000  0.5373550000000 1.0
C      1  0.4774600000000  0.4564050000000  0.5373540000000 1.0
C      1  0.5846510000000  0.5546200000000  0.4616020000000 1.0
C      1  0.5047370000000  0.3986950000000  0.4613150000000 1.0
C      1  0.4105360000000  0.5478920000000  0.4597020000000 1.0
C      1  0.5705460000000  0.5639630000000  0.5366180000000 1.0
C      1  0.5205490000000  0.4067780000000  0.5365240000000 1.0
C      1  0.4055960000000  0.5347230000000  0.5611620000000 1.0
C      1  0.4340230000000  0.4850380000000  0.4226090000000 1.0
C      1  0.5193390000000  0.5639010000000  0.4232890000000 1.0
C      1  0.5460140000000  0.4502230000000  0.4228030000000 1.0
C      1  0.5611700000000  0.4096250000000  0.4350700000000 1.0
C      1  0.3916560000000  0.4926180000000  0.4353400000000 1.0
C      1  0.5473560000000  0.5981810000000  0.4354050000000 1.0
C      1  0.4389720000000  0.5605690000000  0.4493910000000 1.0
C      1  0.5833220000000  0.5236810000000  0.4505100000000 1.0
C      1  0.4788360000000  0.4160570000000  0.4505630000000 1.0
C      1  0.5342290000000  0.5462760000000  0.4662310000000 1.0
C      1  0.5235550000000  0.4462930000000  0.4657380000000 1.0
C      1  0.4425530000000  0.5067320000000  0.4648720000000 1.0
C      1  0.5697570000000  0.3944620000000  0.4809330000000 1.0
C      1  0.3736190000000  0.4935200000000  0.4814160000000 1.0
C      1  0.5559930000000  0.6127860000000  0.4815070000000 1.0
C      1  0.4423210000000  0.4837530000000  0.5122860000000 1.0
C      1  0.5131310000000  0.5580030000000  0.5122800000000 1.0
C      1  0.5440600000000  0.4577920000000  0.5118940000000 1.0
C      1  0.4063200000000  0.4800770000000  0.5513790000000 1.0
C      1  0.5273220000000  0.5900140000000  0.5519520000000 1.0
C      1  0.5645310000000  0.4298300000000  0.5518690000000 1.0
C      1  0.5757160000000  0.4726080000000  0.5803200000000 1.0
C      1  0.4391610000000  0.4495610000000  0.5799030000000 1.0
C      1  0.4856650000000  0.5771230000000  0.5802520000000 1.0
C      1  0.4683220000000  0.5548480000000  0.5954070000000 1.0
C      1  0.5652880000000  0.4999940000000  0.5950370000000 1.0
C      1  0.4679660000000  0.4446390000000  0.5949550000000 1.0
C      1  0.4770700000000  0.5258460000000  0.6007820000000 1.0
C      1  0.5354290000000  0.5073680000000  0.6005760000000 1.0
C      1  0.4897490000000  0.4664470000000  0.6004170000000 1.0
C      1  0.4427600000000  0.5593180000000  0.5071400000000 1.0
C      1  0.5808940000000  0.5199210000000  0.5080760000000 1.0
C      1  0.4773970000000  0.4199790000000  0.5082520000000 1.0
C      1  0.4518910000000  0.5848430000000  0.4680190000000 1.0
C      1  0.5983110000000  0.4998860000000  0.4685320000000 1.0
C      1  0.4509600000000  0.4152500000000  0.4689580000000 1.0
C      1  0.5811740000000  0.5400410000000  0.5480430000000 1.0
C      1  0.4946370000000  0.4100600000000  0.5481840000000 1.0
C      1  0.4152920000000  0.5513500000000  0.5400560000000 1.0
C      1  0.4288090000000  0.4316870000000  0.5570810000000 1.0
C      1  0.4749160000000  0.5943250000000  0.5566460000000 1.0
C      1  0.5958930000000  0.4723980000000  0.5568650000000 1.0
C      1  0.5210610000000  0.6076720000000  0.4483910000000 1.0
C      1  0.5824810000000  0.4279280000000  0.4480920000000 1.0
C      1  0.3968780000000  0.4653420000000  0.4488060000000 1.0
C      1  0.5948480000000  0.4466070000000  0.5109460000000 1.0
C      1  0.4068810000000  0.4454520000000  0.5114670000000 1.0
C      1  0.4981250000000  0.6077160000000  0.5111910000000 1.0
C      1  0.5292030000000  0.5343690000000  0.6133720000000 1.0
C      1  0.5160290000000  0.4579620000000  0.6133700000000 1.0
C      1  0.4559270000000  0.5065190000000  0.6116950000000 1.0
C      1  0.4435310000000  0.6037570000000  0.5178150000000 1.0
C      1  0.6186230000000  0.4953370000000  0.5176660000000 1.0
C      1  0.4370840000000  0.4001500000000  0.5181890000000 1.0
C      1  0.4822480000000  0.4217950000000  0.4214130000000 1.0
C      1  0.4425360000000  0.5542110000000  0.4203510000000 1.0
C      1  0.5767050000000  0.5241070000000  0.4213800000000 1.0
C      1  0.5557880000000  0.4005720000000  0.5068400000000 1.0
C      1  0.3873820000000  0.5034790000000  0.5063710000000 1.0
C      1  0.5572970000000  0.5973460000000  0.5072870000000 1.0
C      1  0.4694340000000  0.5164300000000  0.4556550000000 1.0
C      1  0.5299980000000  0.5180620000000  0.4563650000000 1.0
C      1  0.5014560000000  0.4646480000000  0.4563110000000 1.0
C      1  0.4648930000000  0.5102260000000  0.4060200000000 1.0
C      1  0.5275740000000  0.5253250000000  0.4063890000000 1.0
C      1  0.5084970000000  0.4633460000000  0.4063700000000 1.0
C      1  0.4451430000000  0.5592250000000  0.5360400000000 1.0
C      1  0.5780810000000  0.5137170000000  0.5361670000000 1.0
C      1  0.4734880000000  0.4260350000000  0.5362920000000 1.0
C      1  0.5315260000000  0.4729850000000  0.3906190000000 1.0
C      1  0.4614720000000  0.4851530000000  0.3908230000000 1.0
C      1  0.5074990000000  0.5402630000000  0.3906580000000 1.0
C      1  0.4563730000000  0.4037230000000  0.4955990000000 1.0
C      1  0.4389230000000  0.5854470000000  0.4945080000000 1.0
C      1  0.6055020000000  0.5101800000000  0.4952320000000 1.0
C      1  0.5386380000000  0.5493240000000  0.4964270000000 1.0
C      1  0.5240340000000  0.4406550000000  0.4958400000000 1.0
C      1  0.4379230000000  0.5087330000000  0.4950490000000 1.0
C      1  0.4876260000000  0.4222240000000  0.5880230000000 1.0
C      1  0.4392520000000  0.5515080000000  0.5908110000000 1.0
C      1  0.5743480000000  0.5282820000000  0.5877760000000 1.0
C      1  0.5909960000000  0.5834840000000  0.4539810000000 1.0
C      1  0.5268130000000  0.3789320000000  0.4536700000000 1.0
C      1  0.3820760000000  0.5380450000000  0.4529650000000 1.0
C      1  0.4670320000000  0.5457930000000  0.4657900000000 1.0
C      1  0.5568940000000  0.5060760000000  0.4664300000000 1.0
C      1  0.4773830000000  0.4477230000000  0.4666210000000 1.0
C      1  0.4311870000000  0.4910760000000  0.5403070000000 1.0
C      1  0.5258080000000  0.5634670000000  0.5397570000000 1.0
C      1  0.5424050000000  0.4444170000000  0.5395040000000 1.0
C      1  0.5824860000000  0.4707210000000  0.4192370000000 1.0
C      1  0.4335340000000  0.4431370000000  0.4199270000000 1.0
C      1  0.4841900000000  0.5865260000000  0.4193140000000 1.0
C      1  0.5170590000000  0.5112240000000  0.4305970000000 1.0
C      1  0.5019560000000  0.4794240000000  0.4306360000000 1.0
C      1  0.4821240000000  0.5083170000000  0.4303160000000 1.0
C      1  0.5160630000000  0.4278570000000  0.5795760000000 1.0
C      1  0.4265320000000  0.5262420000000  0.5795990000000 1.0
C      1  0.5548190000000  0.5497640000000  0.5792270000000 1.0
C      1  0.5320500000000  0.5161500000000  0.5530470000000 1.0
C      1  0.4991270000000  0.4645530000000  0.5529460000000 1.0
C      1  0.4696190000000  0.5185990000000  0.5543030000000 1.0
C      1  0.3757480000000  0.5094190000000  0.4544180000000 1.0
C      1  0.5695460000000  0.6033540000000  0.4549660000000 1.0
C      1  0.5546970000000  0.3877160000000  0.4545180000000 1.0
C      1  0.5757030000000  0.4754610000000  0.4707560000000 1.0
C      1  0.4414870000000  0.4471350000000  0.4713190000000 1.0
C      1  0.4838200000000  0.5774190000000  0.4706220000000 1.0
C      1  0.5712350000000  0.4062970000000  0.5325660000000 1.0
C      1  0.3834180000000  0.4900760000000  0.5332350000000 1.0
C      1  0.5444800000000  0.6076660000000  0.5329830000000 1.0
END
