TITL C-862502-1143-1210 0.00494375230426928 125000 -211.267862291875 0 0 43 (C2) n - 1
REM
REM in /home/nfs/bkarasulu/CARBON/AIRSS/Generating-Clusters/TERSOFF/Higher-Symm/FIRE-HFTN
REM
REM
REM
REM
REM
REM ./C.cell (b20cbc046b6831c77cfcea5457e17084)
REM AIRSS Version 0.9.1 bugfix July 2018 build 013d7b7c2542+ Fri, 06 Jul 2018 19:26:36 +0100
REM compiler GCC version 9.2.1 20190827 (Red Hat 9.2.1-1)
REM options -cpp -mtune=generic -march=x86-64 -g -O0 -fpre-include=/usr/include/finclude/math-vector-fortran.h
REM seed 284841736 370752021 206851762 1247737199 1196522467 1148840335 -340463522 -1830358286 -1553233445 1538597431 -1825747722 -1425544512 -587941417 1071458456 -2031146338 1931505388 1063031821 -1565598325 -1683302369 -688262384 -1550552213 -1495584101 -1652034847 1435160901 -784579811 171401347 -36112673 630772541 838409508 1260333102 556058257 -289280312 -1873931359
REM
CELL 1.54180   50.00000   50.00000   50.00000   90.00000   90.00000   90.00000
LATT -1
SFAC C  
C      1  0.5271270000000  0.5414930000000  0.4791650000000 1.0
C      1  0.4740630000000  0.4589720000000  0.4791650000000 1.0
C      1  0.5286960000000  0.5406270000000  0.5151560000000 1.0
C      1  0.4724950000000  0.4598380000000  0.5151560000000 1.0
C      1  0.5325740000000  0.4496150000000  0.4334930000000 1.0
C      1  0.4686160000000  0.5508500000000  0.4334930000000 1.0
C      1  0.5267780000000  0.4498610000000  0.5620080000000 1.0
C      1  0.4744130000000  0.5506030000000  0.5620080000000 1.0
C      1  0.4931640000000  0.4765750000000  0.5596630000000 1.0
C      1  0.5080270000000  0.5238900000000  0.5596630000000 1.0
C      1  0.4939940000000  0.4765090000000  0.4351240000000 1.0
C      1  0.5071970000000  0.5239560000000  0.4351240000000 1.0
C      1  0.4659120000000  0.4781120000000  0.5431550000000 1.0
C      1  0.5352780000000  0.5223530000000  0.5431550000000 1.0
C      1  0.4672690000000  0.4775340000000  0.4521420000000 1.0
C      1  0.5339220000000  0.5229310000000  0.4521420000000 1.0
C      1  0.4586090000000  0.5062220000000  0.5351780000000 1.0
C      1  0.5425820000000  0.4942420000000  0.5351780000000 1.0
C      1  0.4584710000000  0.5052550000000  0.4598130000000 1.0
C      1  0.5427200000000  0.4952090000000  0.4598130000000 1.0
C      1  0.4361470000000  0.5409350000000  0.4854670000000 1.0
C      1  0.5650440000000  0.4595300000000  0.4854670000000 1.0
C      1  0.4307680000000  0.5443960000000  0.5166900000000 1.0
C      1  0.5704230000000  0.4560680000000  0.5166900000000 1.0
C      1  0.5231670000000  0.4699720000000  0.4550670000000 1.0
C      1  0.4780240000000  0.5304920000000  0.4550670000000 1.0
C      1  0.5217120000000  0.4700880000000  0.5385030000000 1.0
C      1  0.4794790000000  0.5303760000000  0.5385030000000 1.0
C      1  0.4998720000000  0.5253720000000  0.4764310000000 1.0
C      1  0.5013180000000  0.4750930000000  0.4764310000000 1.0
C      1  0.5017090000000  0.5240080000000  0.5181640000000 1.0
C      1  0.4994820000000  0.4764570000000  0.5181640000000 1.0
C      1  0.4359990000000  0.5121620000000  0.5160510000000 1.0
C      1  0.5651920000000  0.4883030000000  0.5160510000000 1.0
C      1  0.4364910000000  0.5096840000000  0.4806060000000 1.0
C      1  0.5647000000000  0.4907810000000  0.4806060000000 1.0
C      1  0.5348020000000  0.4501860000000  0.4811510000000 1.0
C      1  0.4663890000000  0.5502780000000  0.4811510000000 1.0
C      1  0.5378240000000  0.4509800000000  0.5162770000000 1.0
C      1  0.4633660000000  0.5494840000000  0.5162770000000 1.0
C      1  0.5005950000000  0.5002320000000  0.4195180000000 1.0
C      1  0.5005950000000  0.5002320000000  0.5751630000000 1.0
C      1  0.5005950000000  0.5002320000000  0.4965910000000 1.0
END
