TITL C-862503-991-156 3.71702623007288 125000 -841.361503771182 0 0 144 (C1) n - 1
REM
REM in /home/nfs/bkarasulu/CARBON/AIRSS/Generating-Clusters/TERSOFF/Higher-Symm/FIRE-HFTN
REM
REM
REM
REM
REM
REM ./C.cell (b20cbc046b6831c77cfcea5457e17084)
REM AIRSS Version 0.9.1 bugfix July 2018 build 013d7b7c2542+ Fri, 06 Jul 2018 19:26:36 +0100
REM compiler GCC version 9.2.1 20190827 (Red Hat 9.2.1-1)
REM options -cpp -mtune=generic -march=x86-64 -g -O0 -fpre-include=/usr/include/finclude/math-vector-fortran.h
REM seed -876119771 -426133022 807851616 830498070 1511797915 220286202 -957788545 1174610412 1839190918 322513188 64435355 -749603098 1725343256 1987693382 -930469844 467549221 103408530 839781374 -1345408096 -867273405 307024267 1620842509 603753807 1587586444 1810740484 -505101062 -740747967 -1189242937 834559650 635143936 1408313371 -1770819610 -863777948
REM
CELL 1.54180   50.00000   50.00000   50.00000   90.00000   90.00000   90.00000
LATT -1
SFAC C  
C      1  0.5449750000000  0.4620620000000  0.4923810000000 1.0
C      1  0.4857260000000  0.4044740000000  0.4581950000000 1.0
C      1  0.4554820000000  0.5540010000000  0.4748990000000 1.0
C      1  0.4861430000000  0.4499670000000  0.4294070000000 1.0
C      1  0.4540070000000  0.4588600000000  0.4670110000000 1.0
C      1  0.5311400000000  0.5040220000000  0.4644210000000 1.0
C      1  0.5265240000000  0.3593380000000  0.5441380000000 1.0
C      1  0.5480350000000  0.5490930000000  0.4373520000000 1.0
C      1  0.4456550000000  0.6061440000000  0.5407640000000 1.0
C      1  0.4476260000000  0.5673670000000  0.4988460000000 1.0
C      1  0.4445830000000  0.4850710000000  0.4769270000000 1.0
C      1  0.4073760000000  0.4451320000000  0.5228230000000 1.0
C      1  0.4727670000000  0.5960180000000  0.5511750000000 1.0
C      1  0.5500360000000  0.4948350000000  0.4271280000000 1.0
C      1  0.4916860000000  0.5408610000000  0.4916430000000 1.0
C      1  0.3854400000000  0.5377620000000  0.5062660000000 1.0
C      1  0.4702260000000  0.4481750000000  0.4873440000000 1.0
C      1  0.5209420000000  0.4203180000000  0.4948910000000 1.0
C      1  0.4395200000000  0.4690060000000  0.4283580000000 1.0
C      1  0.4636890000000  0.5644730000000  0.5225700000000 1.0
C      1  0.4916390000000  0.5548510000000  0.5186200000000 1.0
C      1  0.4748920000000  0.4050940000000  0.5080930000000 1.0
C      1  0.5740180000000  0.5325890000000  0.5731110000000 1.0
C      1  0.4990020000000  0.5548590000000  0.4656430000000 1.0
C      1  0.4338520000000  0.5362990000000  0.5549160000000 1.0
C      1  0.4347460000000  0.4093710000000  0.4634580000000 1.0
C      1  0.4520390000000  0.5595770000000  0.5496980000000 1.0
C      1  0.4927240000000  0.5322500000000  0.4488500000000 1.0
C      1  0.5867340000000  0.5525500000000  0.5568330000000 1.0
C      1  0.5719020000000  0.4719000000000  0.4273680000000 1.0
C      1  0.5613440000000  0.5427110000000  0.4848140000000 1.0
C      1  0.4949460000000  0.4755080000000  0.5400530000000 1.0
C      1  0.5186610000000  0.4496130000000  0.5045950000000 1.0
C      1  0.4513580000000  0.4498770000000  0.5514610000000 1.0
C      1  0.5023920000000  0.6197390000000  0.5149320000000 1.0
C      1  0.3915780000000  0.4840010000000  0.5216480000000 1.0
C      1  0.5396780000000  0.4302780000000  0.5660240000000 1.0
C      1  0.4877770000000  0.5404570000000  0.4192760000000 1.0
C      1  0.5004800000000  0.5449980000000  0.5455560000000 1.0
C      1  0.4318320000000  0.4223880000000  0.4888160000000 1.0
C      1  0.4761840000000  0.4932630000000  0.4404240000000 1.0
C      1  0.4158140000000  0.4927170000000  0.5681510000000 1.0
C      1  0.4856880000000  0.4900130000000  0.3996530000000 1.0
C      1  0.5370940000000  0.5779610000000  0.5295370000000 1.0
C      1  0.4264110000000  0.4356060000000  0.5432330000000 1.0
C      1  0.5335490000000  0.5420970000000  0.4944020000000 1.0
C      1  0.5193740000000  0.4558620000000  0.5350400000000 1.0
C      1  0.4142370000000  0.5609000000000  0.4711480000000 1.0
C      1  0.5461960000000  0.4938560000000  0.5572750000000 1.0
C      1  0.5132860000000  0.5259410000000  0.4029530000000 1.0
C      1  0.4561410000000  0.5158780000000  0.5632860000000 1.0
C      1  0.5598920000000  0.4239070000000  0.5451530000000 1.0
C      1  0.4902980000000  0.4949370000000  0.4920120000000 1.0
C      1  0.4959890000000  0.4050760000000  0.4873670000000 1.0
C      1  0.3951080000000  0.4898660000000  0.4935380000000 1.0
C      1  0.5109360000000  0.4925970000000  0.5949370000000 1.0
C      1  0.4572650000000  0.5460140000000  0.4242930000000 1.0
C      1  0.5821270000000  0.5768780000000  0.5111430000000 1.0
C      1  0.5239700000000  0.5434750000000  0.5867140000000 1.0
C      1  0.5207260000000  0.4946840000000  0.4069180000000 1.0
C      1  0.4846810000000  0.4459120000000  0.5936830000000 1.0
C      1  0.5054270000000  0.5017780000000  0.5305780000000 1.0
C      1  0.4566890000000  0.4941370000000  0.4180190000000 1.0
C      1  0.5804410000000  0.5232540000000  0.5167290000000 1.0
C      1  0.5416020000000  0.4336330000000  0.4473570000000 1.0
C      1  0.5126400000000  0.6079390000000  0.4891080000000 1.0
C      1  0.4058940000000  0.4689310000000  0.4751940000000 1.0
C      1  0.4146340000000  0.5267870000000  0.5343940000000 1.0
C      1  0.4753620000000  0.5109830000000  0.4631530000000 1.0
C      1  0.4951280000000  0.6056450000000  0.4653590000000 1.0
C      1  0.3985860000000  0.5618820000000  0.5160530000000 1.0
C      1  0.5778120000000  0.5657050000000  0.4850670000000 1.0
C      1  0.5534150000000  0.4009450000000  0.5274440000000 1.0
C      1  0.4731890000000  0.4327370000000  0.5698180000000 1.0
C      1  0.5998250000000  0.4825930000000  0.4887100000000 1.0
C      1  0.4322320000000  0.6036980000000  0.5132290000000 1.0
C      1  0.5217810000000  0.5882650000000  0.5519150000000 1.0
C      1  0.4182040000000  0.5219690000000  0.5801380000000 1.0
C      1  0.5278920000000  0.5522950000000  0.4162390000000 1.0
C      1  0.5681320000000  0.4260290000000  0.4544230000000 1.0
C      1  0.5469170000000  0.4925300000000  0.4889540000000 1.0
C      1  0.5530580000000  0.5097940000000  0.5127410000000 1.0
C      1  0.5709430000000  0.5211530000000  0.4698310000000 1.0
C      1  0.4892800000000  0.4112750000000  0.5571850000000 1.0
C      1  0.5885540000000  0.4767680000000  0.5168610000000 1.0
C      1  0.5021020000000  0.5713530000000  0.4224720000000 1.0
C      1  0.4771520000000  0.5318790000000  0.5794300000000 1.0
C      1  0.4575960000000  0.4269710000000  0.5025420000000 1.0
C      1  0.5485780000000  0.4644700000000  0.5433570000000 1.0
C      1  0.3976790000000  0.5183530000000  0.4877610000000 1.0
C      1  0.4184020000000  0.5121870000000  0.4423530000000 1.0
C      1  0.4583000000000  0.4457060000000  0.4387090000000 1.0
C      1  0.5351860000000  0.4827250000000  0.5826690000000 1.0
C      1  0.5394450000000  0.5948740000000  0.4873970000000 1.0
C      1  0.4408490000000  0.5198350000000  0.4229420000000 1.0
C      1  0.4191060000000  0.5769040000000  0.5003890000000 1.0
C      1  0.5746580000000  0.4591730000000  0.5656370000000 1.0
C      1  0.5725920000000  0.5047420000000  0.5620040000000 1.0
C      1  0.4938620000000  0.4634310000000  0.4945290000000 1.0
C      1  0.5936820000000  0.4848080000000  0.5486900000000 1.0
C      1  0.4585230000000  0.4161290000000  0.4484990000000 1.0
C      1  0.4882210000000  0.4748920000000  0.5922420000000 1.0
C      1  0.5566310000000  0.5925430000000  0.5135840000000 1.0
C      1  0.5311450000000  0.4313570000000  0.4200420000000 1.0
C      1  0.4599210000000  0.4965710000000  0.4994140000000 1.0
C      1  0.4115480000000  0.4429760000000  0.4935650000000 1.0
C      1  0.4489550000000  0.5265880000000  0.4723790000000 1.0
C      1  0.5741550000000  0.5662860000000  0.4355830000000 1.0
C      1  0.4463410000000  0.4822010000000  0.5641380000000 1.0
C      1  0.5473590000000  0.4068750000000  0.4991880000000 1.0
C      1  0.5436260000000  0.4470380000000  0.3986060000000 1.0
C      1  0.5181170000000  0.4074070000000  0.5636010000000 1.0
C      1  0.4173230000000  0.5285450000000  0.4676620000000 1.0
C      1  0.5628370000000  0.4629880000000  0.5172170000000 1.0
C      1  0.5210080000000  0.4781100000000  0.4524450000000 1.0
C      1  0.4970620000000  0.4753420000000  0.4373270000000 1.0
C      1  0.5330750000000  0.4555000000000  0.4639260000000 1.0
C      1  0.5531990000000  0.5414590000000  0.5925150000000 1.0
C      1  0.5428080000000  0.5735860000000  0.4632560000000 1.0
C      1  0.5218260000000  0.5607870000000  0.5130140000000 1.0
C      1  0.4700250000000  0.4608210000000  0.5295640000000 1.0
C      1  0.5696250000000  0.4097140000000  0.4791590000000 1.0
C      1  0.4784530000000  0.3954270000000  0.5351450000000 1.0
C      1  0.4897560000000  0.5804000000000  0.4511540000000 1.0
C      1  0.5335560000000  0.4728430000000  0.3889000000000 1.0
C      1  0.6029970000000  0.4605340000000  0.4697650000000 1.0
C      1  0.5826760000000  0.4522190000000  0.4502220000000 1.0
C      1  0.4748510000000  0.5667260000000  0.5719270000000 1.0
C      1  0.5039540000000  0.5216380000000  0.5912120000000 1.0
C      1  0.5464540000000  0.4542900000000  0.5855140000000 1.0
C      1  0.5966000000000  0.5086480000000  0.4759270000000 1.0
C      1  0.5324230000000  0.3876830000000  0.5449580000000 1.0
C      1  0.5862660000000  0.5768380000000  0.4597800000000 1.0
C      1  0.5025900000000  0.4292200000000  0.4187980000000 1.0
C      1  0.4774900000000  0.4798720000000  0.5662350000000 1.0
C      1  0.5850730000000  0.5513090000000  0.5283370000000 1.0
C      1  0.4163470000000  0.4805660000000  0.4462060000000 1.0
C      1  0.4612530000000  0.5670590000000  0.4495360000000 1.0
C      1  0.4024940000000  0.5012450000000  0.5417400000000 1.0
C      1  0.5134420000000  0.5177850000000  0.4869080000000 1.0
C      1  0.4992890000000  0.6050040000000  0.5408880000000 1.0
C      1  0.5100480000000  0.5641120000000  0.5678620000000 1.0
C      1  0.5523550000000  0.5186840000000  0.4463160000000 1.0
C      1  0.5333360000000  0.5087180000000  0.5352000000000 1.0
END
