TITL C-862500-986-61 -0.00861620007498136 125000 -609.334708405579 0 0 106 (Cs) n - 1
REM
REM in /home/nfs/bkarasulu/CARBON/AIRSS/Generating-Clusters/TERSOFF/Higher-Symm/FIRE-HFTN
REM
REM
REM
REM
REM
REM ./C.cell (b20cbc046b6831c77cfcea5457e17084)
REM AIRSS Version 0.9.1 bugfix July 2018 build 013d7b7c2542+ Fri, 06 Jul 2018 19:26:36 +0100
REM compiler GCC version 9.2.1 20190827 (Red Hat 9.2.1-1)
REM options -cpp -mtune=generic -march=x86-64 -g -O0 -fpre-include=/usr/include/finclude/math-vector-fortran.h
REM seed -1294850956 -1561906314 504618634 -214310264 2068007744 -627839601 -425810117 -1440740143 1543982532 -162753448 -829241939 2089839124 1336126220 -99706237 -573290994 659540209 1225306610 -253744438 1955272017 -215348381 -125520304 2048839357 1912324083 -633156348 -1679161842 -791978915 -1264083466 -701221801 1427077297 892548872 647250879 2037304872 1581791112
REM
CELL 1.54180   50.00000   50.00000   50.00000   90.00000   90.00000   90.00000
LATT -1
SFAC C  
C      1  0.5266910000000  0.5302840000000  0.4868030000000 1.0
C      1  0.4733090000000  0.5302840000000  0.4868030000000 1.0
C      1  0.4721640000000  0.4146250000000  0.5199830000000 1.0
C      1  0.5278360000000  0.4146250000000  0.5199830000000 1.0
C      1  0.5777870000000  0.4577030000000  0.4787920000000 1.0
C      1  0.4222130000000  0.4577030000000  0.4787920000000 1.0
C      1  0.5854370000000  0.5440410000000  0.5246900000000 1.0
C      1  0.4145630000000  0.5440410000000  0.5246900000000 1.0
C      1  0.4464870000000  0.5713640000000  0.4786550000000 1.0
C      1  0.5535130000000  0.5713640000000  0.4786550000000 1.0
C      1  0.4860370000000  0.4635690000000  0.4991380000000 1.0
C      1  0.5139630000000  0.4635690000000  0.4991380000000 1.0
C      1  0.4095650000000  0.4557070000000  0.5280630000000 1.0
C      1  0.5904350000000  0.4557070000000  0.5280630000000 1.0
C      1  0.5145610000000  0.5822370000000  0.5405010000000 1.0
C      1  0.4854390000000  0.5822370000000  0.5405010000000 1.0
C      1  0.5765670000000  0.5539400000000  0.4717200000000 1.0
C      1  0.4234330000000  0.5539400000000  0.4717200000000 1.0
C      1  0.5564930000000  0.4760350000000  0.5421270000000 1.0
C      1  0.4435070000000  0.4760350000000  0.5421270000000 1.0
C      1  0.5288860000000  0.5935780000000  0.5174700000000 1.0
C      1  0.4711150000000  0.5935780000000  0.5174700000000 1.0
C      1  0.4384090000000  0.4967780000000  0.4219680000000 1.0
C      1  0.5615910000000  0.4967780000000  0.4219680000000 1.0
C      1  0.4384040000000  0.4197700000000  0.4901550000000 1.0
C      1  0.5615960000000  0.4197700000000  0.4901550000000 1.0
C      1  0.4508820000000  0.4545050000000  0.4701790000000 1.0
C      1  0.5491180000000  0.4545050000000  0.4701790000000 1.0
C      1  0.4679550000000  0.4931760000000  0.4165270000000 1.0
C      1  0.5320450000000  0.4931760000000  0.4165270000000 1.0
C      1  0.4849980000000  0.4322960000000  0.5396870000000 1.0
C      1  0.5150020000000  0.4322960000000  0.5396870000000 1.0
C      1  0.4315100000000  0.4992330000000  0.5600470000000 1.0
C      1  0.5684900000000  0.4992330000000  0.5600470000000 1.0
C      1  0.4846180000000  0.5324050000000  0.5537180000000 1.0
C      1  0.5153820000000  0.5324050000000  0.5537180000000 1.0
C      1  0.5159830000000  0.4898890000000  0.4587420000000 1.0
C      1  0.4840170000000  0.4898890000000  0.4587420000000 1.0
C      1  0.5764510000000  0.5399830000000  0.4463060000000 1.0
C      1  0.4235490000000  0.5399830000000  0.4463060000000 1.0
C      1  0.4514170000000  0.5748180000000  0.5070340000000 1.0
C      1  0.5485830000000  0.5748180000000  0.5070340000000 1.0
C      1  0.5275830000000  0.5178630000000  0.4602240000000 1.0
C      1  0.4724170000000  0.5178630000000  0.4602240000000 1.0
C      1  0.5163210000000  0.4381780000000  0.4439470000000 1.0
C      1  0.4836790000000  0.4381780000000  0.4439470000000 1.0
C      1  0.5343710000000  0.4438660000000  0.5628480000000 1.0
C      1  0.4656290000000  0.4438660000000  0.5628480000000 1.0
C      1  0.5385460000000  0.4980660000000  0.5804880000000 1.0
C      1  0.4614540000000  0.4980660000000  0.5804880000000 1.0
C      1  0.5646180000000  0.4438780000000  0.5428670000000 1.0
C      1  0.4353820000000  0.4438780000000  0.5428670000000 1.0
C      1  0.5181130000000  0.5214570000000  0.5827820000000 1.0
C      1  0.4818870000000  0.5214570000000  0.5827820000000 1.0
C      1  0.5931860000000  0.5419640000000  0.4945220000000 1.0
C      1  0.4068140000000  0.5419640000000  0.4945220000000 1.0
C      1  0.4130300000000  0.4733920000000  0.5036760000000 1.0
C      1  0.5869700000000  0.4733920000000  0.5036760000000 1.0
C      1  0.4482560000000  0.4927610000000  0.4887470000000 1.0
C      1  0.5517440000000  0.4927610000000  0.4887470000000 1.0
C      1  0.4267490000000  0.5114290000000  0.4457360000000 1.0
C      1  0.5732510000000  0.5114290000000  0.4457360000000 1.0
C      1  0.5270360000000  0.4814140000000  0.5437480000000 1.0
C      1  0.4729640000000  0.4814140000000  0.5437480000000 1.0
C      1  0.4819940000000  0.4723860000000  0.5730660000000 1.0
C      1  0.5180060000000  0.4723860000000  0.5730660000000 1.0
C      1  0.4245020000000  0.4991790000000  0.4726020000000 1.0
C      1  0.5754980000000  0.4991790000000  0.4726020000000 1.0
C      1  0.4861340000000  0.5129850000000  0.5069800000000 1.0
C      1  0.5138660000000  0.5129850000000  0.5069800000000 1.0
C      1  0.4753290000000  0.5106730000000  0.5344190000000 1.0
C      1  0.5246710000000  0.5106730000000  0.5344190000000 1.0
C      1  0.4745880000000  0.5349610000000  0.4369280000000 1.0
C      1  0.5254120000000  0.5349610000000  0.4369280000000 1.0
C      1  0.5153580000000  0.5620710000000  0.4424350000000 1.0
C      1  0.4846420000000  0.5620710000000  0.4424350000000 1.0
C      1  0.4826570000000  0.4712450000000  0.4326080000000 1.0
C      1  0.5173430000000  0.4712450000000  0.4326080000000 1.0
C      1  0.5154240000000  0.5187930000000  0.4138060000000 1.0
C      1  0.4845760000000  0.5187930000000  0.4138060000000 1.0
C      1  0.5623270000000  0.4916190000000  0.5164710000000 1.0
C      1  0.4376730000000  0.4916190000000  0.5164710000000 1.0
C      1  0.4027210000000  0.5078510000000  0.5002100000000 1.0
C      1  0.5972790000000  0.5078510000000  0.5002100000000 1.0
C      1  0.4432070000000  0.4201100000000  0.5201120000000 1.0
C      1  0.5567930000000  0.4201100000000  0.5201120000000 1.0
C      1  0.5217560000000  0.4590060000000  0.5257860000000 1.0
C      1  0.4782440000000  0.4590060000000  0.5257860000000 1.0
C      1  0.4847620000000  0.4151240000000  0.4926000000000 1.0
C      1  0.5152380000000  0.4151240000000  0.4926000000000 1.0
C      1  0.4490350000000  0.5201130000000  0.5252990000000 1.0
C      1  0.5509650000000  0.5201130000000  0.5252990000000 1.0
C      1  0.5329940000000  0.5803970000000  0.4581590000000 1.0
C      1  0.4670060000000  0.5803970000000  0.4581590000000 1.0
C      1  0.4855030000000  0.5571220000000  0.4878250000000 1.0
C      1  0.5144970000000  0.5571220000000  0.4878250000000 1.0
C      1  0.4441860000000  0.5527030000000  0.5274490000000 1.0
C      1  0.5558140000000  0.5527030000000  0.5274490000000 1.0
C      1  0.4698460000000  0.5572580000000  0.5472380000000 1.0
C      1  0.5301540000000  0.5572580000000  0.5472380000000 1.0
C      1  0.5306480000000  0.4753250000000  0.4792140000000 1.0
C      1  0.4693520000000  0.4753250000000  0.4792140000000 1.0
C      1  0.4650980000000  0.4261050000000  0.4685670000000 1.0
C      1  0.5349020000000  0.4261050000000  0.4685670000000 1.0
C      1  0.5910510000000  0.5147730000000  0.5363370000000 1.0
C      1  0.4089490000000  0.5147730000000  0.5363370000000 1.0
END
