TITL C-862503-991-1122 -0.00480507809089398 125000 -880.430667870512 0 0 152 (C2) n - 1
REM
REM in /home/nfs/bkarasulu/CARBON/AIRSS/Generating-Clusters/TERSOFF/Higher-Symm/FIRE-HFTN
REM
REM
REM
REM
REM
REM ./C.cell (b20cbc046b6831c77cfcea5457e17084)
REM AIRSS Version 0.9.1 bugfix July 2018 build 013d7b7c2542+ Fri, 06 Jul 2018 19:26:36 +0100
REM compiler GCC version 9.2.1 20190827 (Red Hat 9.2.1-1)
REM options -cpp -mtune=generic -march=x86-64 -g -O0 -fpre-include=/usr/include/finclude/math-vector-fortran.h
REM seed -1966602675 -278515116 127944029 -1334460955 -1682931261 -1515481595 -2056383351 178795619 936981677 -93096375 -724773200 -206687990 1552561560 -1827351933 -1147840250 -1902855857 -847191565 1477491756 1741045684 886251947 60453656 -1779735809 -428240625 784026527 -336823996 -777340044 1578403865 -1465744546 -1164702136 971117419 751879324 139317305 -1562754403
REM
CELL 1.54180   50.00000   50.00000   50.00000   90.00000   90.00000   90.00000
LATT -1
SFAC C  
C      1  0.5519870000000  0.4251160000000  0.4493260000000 1.0
C      1  0.5530800000000  0.4936190000000  0.5913590000000 1.0
C      1  0.5523480000000  0.5812610000000  0.4601500000000 1.0
C      1  0.4485700000000  0.4251160000000  0.5506870000000 1.0
C      1  0.4474770000000  0.4936200000000  0.4086540000000 1.0
C      1  0.4482100000000  0.5812620000000  0.5398640000000 1.0
C      1  0.4840820000000  0.4045210000000  0.5595290000000 1.0
C      1  0.4833210000000  0.6002130000000  0.5528920000000 1.0
C      1  0.4819850000000  0.4955230000000  0.3848280000000 1.0
C      1  0.5164740000000  0.4045210000000  0.4404840000000 1.0
C      1  0.5172380000000  0.6002130000000  0.4471210000000 1.0
C      1  0.5185730000000  0.4955230000000  0.6151850000000 1.0
C      1  0.4289810000000  0.5213360000000  0.5656470000000 1.0
C      1  0.4281520000000  0.5462780000000  0.4476700000000 1.0
C      1  0.4289080000000  0.4319250000000  0.4856250000000 1.0
C      1  0.5715760000000  0.5213350000000  0.4343660000000 1.0
C      1  0.5724060000000  0.5462770000000  0.5523430000000 1.0
C      1  0.5716490000000  0.4319240000000  0.5143880000000 1.0
C      1  0.5210570000000  0.4421280000000  0.5587980000000 1.0
C      1  0.5205880000000  0.5789000000000  0.5219780000000 1.0
C      1  0.5203950000000  0.4775420000000  0.4168530000000 1.0
C      1  0.4795000000000  0.4421290000000  0.4412150000000 1.0
C      1  0.4799710000000  0.5789000000000  0.4780350000000 1.0
C      1  0.4801620000000  0.4775420000000  0.5831600000000 1.0
C      1  0.4460270000000  0.4161520000000  0.4672650000000 1.0
C      1  0.4451630000000  0.5138760000000  0.5893400000000 1.0
C      1  0.4451680000000  0.5702000000000  0.4427720000000 1.0
C      1  0.5545290000000  0.4161510000000  0.5327480000000 1.0
C      1  0.5553950000000  0.5138750000000  0.4106730000000 1.0
C      1  0.5553900000000  0.5702000000000  0.5572420000000 1.0
C      1  0.5615200000000  0.4732940000000  0.4874620000000 1.0
C      1  0.5611860000000  0.5016160000000  0.5307220000000 1.0
C      1  0.5606980000000  0.5249250000000  0.4837790000000 1.0
C      1  0.4390370000000  0.4732950000000  0.5125510000000 1.0
C      1  0.4393720000000  0.5016170000000  0.4692910000000 1.0
C      1  0.4398600000000  0.5249260000000  0.5162340000000 1.0
C      1  0.4758890000000  0.4161850000000  0.5310870000000 1.0
C      1  0.4761700000000  0.5691690000000  0.5591240000000 1.0
C      1  0.4757380000000  0.5159840000000  0.4091800000000 1.0
C      1  0.5246680000000  0.4161850000000  0.4689260000000 1.0
C      1  0.5243880000000  0.5691680000000  0.4408890000000 1.0
C      1  0.5248190000000  0.5159840000000  0.5908330000000 1.0
C      1  0.4813620000000  0.4554290000000  0.5614380000000 1.0
C      1  0.4813620000000  0.5715790000000  0.5090150000000 1.0
C      1  0.4813000000000  0.4717380000000  0.4310340000000 1.0
C      1  0.5191940000000  0.4554290000000  0.4385750000000 1.0
C      1  0.5191970000000  0.5715780000000  0.4909990000000 1.0
C      1  0.5192570000000  0.4717380000000  0.5689800000000 1.0
C      1  0.4891940000000  0.4643680000000  0.5315100000000 1.0
C      1  0.4913400000000  0.5432450000000  0.5199310000000 1.0
C      1  0.4897520000000  0.4950900000000  0.4497340000000 1.0
C      1  0.5113630000000  0.4643680000000  0.4685030000000 1.0
C      1  0.5092180000000  0.5432450000000  0.4800820000000 1.0
C      1  0.5108060000000  0.4950900000000  0.5502790000000 1.0
C      1  0.4505760000000  0.4841760000000  0.5856320000000 1.0
C      1  0.4508800000000  0.5817670000000  0.4704960000000 1.0
C      1  0.4507750000000  0.4337570000000  0.4429450000000 1.0
C      1  0.5499810000000  0.4841760000000  0.4143810000000 1.0
C      1  0.5496790000000  0.5817660000000  0.5295170000000 1.0
C      1  0.5497820000000  0.4337560000000  0.5570680000000 1.0
C      1  0.5484470000000  0.5391380000000  0.5049650000000 1.0
C      1  0.5502910000000  0.4862710000000  0.4649640000000 1.0
C      1  0.5486670000000  0.4761390000000  0.5322010000000 1.0
C      1  0.4521110000000  0.5391390000000  0.4950480000000 1.0
C      1  0.4502660000000  0.4862710000000  0.5350490000000 1.0
C      1  0.4518900000000  0.4761400000000  0.4678130000000 1.0
C      1  0.5876370000000  0.4523360000000  0.5299090000000 1.0
C      1  0.5875770000000  0.5493540000000  0.5264260000000 1.0
C      1  0.5880200000000  0.4977730000000  0.4442030000000 1.0
C      1  0.4129200000000  0.4523370000000  0.4701040000000 1.0
C      1  0.4129810000000  0.5493550000000  0.4735870000000 1.0
C      1  0.4125370000000  0.4977740000000  0.5558100000000 1.0
C      1  0.3992550000000  0.5259920000000  0.4859140000000 1.0
C      1  0.3989230000000  0.4745660000000  0.4841460000000 1.0
C      1  0.3987600000000  0.4988040000000  0.5295420000000 1.0
C      1  0.6013030000000  0.5259900000000  0.5140990000000 1.0
C      1  0.6016350000000  0.4745640000000  0.5158670000000 1.0
C      1  0.6017970000000  0.4988030000000  0.4704710000000 1.0
C      1  0.5200830000000  0.4963670000000  0.4671380000000 1.0
C      1  0.5210010000000  0.4705790000000  0.5177570000000 1.0
C      1  0.5215130000000  0.5289790000000  0.5175270000000 1.0
C      1  0.4804740000000  0.4963670000000  0.5328750000000 1.0
C      1  0.4795560000000  0.4705790000000  0.4822570000000 1.0
C      1  0.4790450000000  0.5289790000000  0.4824860000000 1.0
C      1  0.5295270000000  0.5449570000000  0.5931530000000 1.0
C      1  0.5291140000000  0.5573040000000  0.4142920000000 1.0
C      1  0.5287890000000  0.3996310000000  0.4927890000000 1.0
C      1  0.4710310000000  0.5449570000000  0.4068600000000 1.0
C      1  0.4714440000000  0.5573050000000  0.5857210000000 1.0
C      1  0.4717670000000  0.3996310000000  0.5072240000000 1.0
C      1  0.4714680000000  0.4096790000000  0.4799790000000 1.0
C      1  0.4704070000000  0.5286310000000  0.5912290000000 1.0
C      1  0.4704410000000  0.5635580000000  0.4293140000000 1.0
C      1  0.5290880000000  0.4096780000000  0.5200340000000 1.0
C      1  0.5301510000000  0.5286300000000  0.4087840000000 1.0
C      1  0.5301170000000  0.5635580000000  0.5706990000000 1.0
C      1  0.5059060000000  0.4288420000000  0.4279880000000 1.0
C      1  0.5083540000000  0.4730020000000  0.5989770000000 1.0
C      1  0.5071320000000  0.5964440000000  0.4746650000000 1.0
C      1  0.4946500000000  0.4288420000000  0.5720250000000 1.0
C      1  0.4922030000000  0.4730020000000  0.4010360000000 1.0
C      1  0.4934270000000  0.5964440000000  0.5253480000000 1.0
C      1  0.5553690000000  0.5325470000000  0.4561430000000 1.0
C      1  0.5563100000000  0.4448970000000  0.4927570000000 1.0
C      1  0.5568320000000  0.5213730000000  0.5521190000000 1.0
C      1  0.4451890000000  0.5325480000000  0.5438700000000 1.0
C      1  0.4442470000000  0.4448980000000  0.5072560000000 1.0
C      1  0.4437250000000  0.5213740000000  0.4478940000000 1.0
C      1  0.4082180000000  0.5487300000000  0.5302380000000 1.0
C      1  0.4072980000000  0.5013310000000  0.4419690000000 1.0
C      1  0.4077120000000  0.4490360000000  0.5275520000000 1.0
C      1  0.5923400000000  0.5487290000000  0.4697760000000 1.0
C      1  0.5932600000000  0.5013290000000  0.5580440000000 1.0
C      1  0.5928450000000  0.4490350000000  0.4724610000000 1.0
C      1  0.5653110000000  0.4587090000000  0.5510860000000 1.0
C      1  0.5650050000000  0.5642540000000  0.5105780000000 1.0
C      1  0.5648670000000  0.4768870000000  0.4396650000000 1.0
C      1  0.4352460000000  0.4587100000000  0.4489270000000 1.0
C      1  0.4355530000000  0.5642550000000  0.4894360000000 1.0
C      1  0.4356910000000  0.4768880000000  0.5603490000000 1.0
C      1  0.6034550000000  0.4734150000000  0.4861010000000 1.0
C      1  0.6031360000000  0.5008470000000  0.5299490000000 1.0
C      1  0.6026660000000  0.5250120000000  0.4843660000000 1.0
C      1  0.3971020000000  0.4734160000000  0.5139130000000 1.0
C      1  0.3974210000000  0.5008480000000  0.4700650000000 1.0
C      1  0.3978920000000  0.5250130000000  0.5156470000000 1.0
C      1  0.5080240000000  0.5663300000000  0.5507150000000 1.0
C      1  0.5079610000000  0.5094250000000  0.4147460000000 1.0
C      1  0.5070170000000  0.4263820000000  0.5319710000000 1.0
C      1  0.4925340000000  0.5663300000000  0.4492980000000 1.0
C      1  0.4925970000000  0.5094250000000  0.5852670000000 1.0
C      1  0.4935400000000  0.4263820000000  0.4680420000000 1.0
C      1  0.4744030000000  0.4515750000000  0.5061090000000 1.0
C      1  0.4749080000000  0.5267280000000  0.5392950000000 1.0
C      1  0.4736320000000  0.5202490000000  0.4537380000000 1.0
C      1  0.5261540000000  0.4515740000000  0.4939040000000 1.0
C      1  0.5256500000000  0.5267280000000  0.4607180000000 1.0
C      1  0.5269260000000  0.5202490000000  0.5462750000000 1.0
C      1  0.4305310000000  0.5656220000000  0.5207810000000 1.0
C      1  0.4298700000000  0.4848840000000  0.4319600000000 1.0
C      1  0.4304670000000  0.4491470000000  0.5467020000000 1.0
C      1  0.5700270000000  0.5656210000000  0.4792330000000 1.0
C      1  0.5706870000000  0.4848830000000  0.5680530000000 1.0
C      1  0.5700900000000  0.4491460000000  0.4533110000000 1.0
C      1  0.4423160000000  0.6097070000000  0.5434850000000 1.0
C      1  0.4410900000000  0.4827780000000  0.3822130000000 1.0
C      1  0.4428600000000  0.4073420000000  0.5731900000000 1.0
C      1  0.5582430000000  0.6097060000000  0.4565280000000 1.0
C      1  0.5594680000000  0.4827770000000  0.6178010000000 1.0
C      1  0.5576960000000  0.4073420000000  0.4268230000000 1.0
C      1  0.5211710000000  0.4990820000000  0.5013650000000 1.0
C      1  0.4793870000000  0.4990820000000  0.4986480000000 1.0
END
