TITL C-862507-1800-1404 5.73376017140238 125000 -818.954616723842 0 0 142 (C1) n - 1
REM
REM in /home/nfs/bkarasulu/CARBON/AIRSS/Generating-Clusters/TERSOFF/Higher-Symm/FIRE-HFTN
REM
REM
REM
REM
REM
REM ./C.cell (b20cbc046b6831c77cfcea5457e17084)
REM AIRSS Version 0.9.1 bugfix July 2018 build 013d7b7c2542+ Fri, 06 Jul 2018 19:26:36 +0100
REM compiler GCC version 9.2.1 20190827 (Red Hat 9.2.1-1)
REM options -cpp -mtune=generic -march=x86-64 -g -O0 -fpre-include=/usr/include/finclude/math-vector-fortran.h
REM seed -836352259 346985163 1186112552 123532688 -1294361428 796220186 1874585126 1704133120 1533793572 -29135701 -139760304 1913060092 -1859587227 913707291 1033511310 -1804277248 -758141720 210786906 -1412506207 1991938960 -1694562685 1616855355 -611527353 1039352750 1900758529 1945667335 2138343710 -400940817 2105328054 -810491292 110238338 -239678178 -1090650897
REM
CELL 1.54180   50.00000   50.00000   50.00000   90.00000   90.00000   90.00000
LATT -1
SFAC C  
C      1  0.5387510000000  0.4397600000000  0.6313940000000 1.0
C      1  0.4877680000000  0.4138800000000  0.5578370000000 1.0
C      1  0.5741020000000  0.5437820000000  0.5254180000000 1.0
C      1  0.5777130000000  0.4380770000000  0.4433350000000 1.0
C      1  0.5652590000000  0.5588600000000  0.5640700000000 1.0
C      1  0.4239680000000  0.4596530000000  0.4342700000000 1.0
C      1  0.5048440000000  0.6170400000000  0.5342190000000 1.0
C      1  0.4661280000000  0.5151550000000  0.4623970000000 1.0
C      1  0.3982810000000  0.5191740000000  0.5087030000000 1.0
C      1  0.5939310000000  0.4523940000000  0.4927480000000 1.0
C      1  0.4809400000000  0.5534740000000  0.6306230000000 1.0
C      1  0.4919720000000  0.5125320000000  0.6018850000000 1.0
C      1  0.4457670000000  0.5894830000000  0.6289860000000 1.0
C      1  0.5003280000000  0.4246040000000  0.5333290000000 1.0
C      1  0.4487270000000  0.6075250000000  0.4789360000000 1.0
C      1  0.4673800000000  0.5432980000000  0.5617210000000 1.0
C      1  0.4068690000000  0.4836260000000  0.4394320000000 1.0
C      1  0.4608560000000  0.5682030000000  0.5049680000000 1.0
C      1  0.4815910000000  0.5345990000000  0.5376980000000 1.0
C      1  0.4386490000000  0.4172820000000  0.4648200000000 1.0
C      1  0.5970840000000  0.5267660000000  0.4549950000000 1.0
C      1  0.4249220000000  0.4594070000000  0.4852270000000 1.0
C      1  0.4831730000000  0.5585740000000  0.5207950000000 1.0
C      1  0.4952950000000  0.5069670000000  0.4335470000000 1.0
C      1  0.4548530000000  0.5635720000000  0.6385570000000 1.0
C      1  0.5161190000000  0.4684740000000  0.5220280000000 1.0
C      1  0.4586980000000  0.5851530000000  0.4621200000000 1.0
C      1  0.4145190000000  0.4742030000000  0.5394410000000 1.0
C      1  0.4960770000000  0.4567600000000  0.4244730000000 1.0
C      1  0.4509040000000  0.5086640000000  0.4349860000000 1.0
C      1  0.5462150000000  0.4743240000000  0.4511340000000 1.0
C      1  0.4601640000000  0.4559530000000  0.5331840000000 1.0
C      1  0.4470780000000  0.5502270000000  0.4385500000000 1.0
C      1  0.5414200000000  0.5600750000000  0.5812820000000 1.0
C      1  0.4878030000000  0.4471470000000  0.4899410000000 1.0
C      1  0.4593340000000  0.5587790000000  0.4777330000000 1.0
C      1  0.4868670000000  0.5412990000000  0.6049970000000 1.0
C      1  0.5505360000000  0.4412630000000  0.5245300000000 1.0
C      1  0.4880840000000  0.4755100000000  0.4854140000000 1.0
C      1  0.5407480000000  0.5716220000000  0.4835610000000 1.0
C      1  0.5431080000000  0.4674630000000  0.5138280000000 1.0
C      1  0.4929760000000  0.4280620000000  0.4671200000000 1.0
C      1  0.5569980000000  0.5665700000000  0.5347180000000 1.0
C      1  0.5544780000000  0.4252580000000  0.4564800000000 1.0
C      1  0.5331020000000  0.4827180000000  0.4055910000000 1.0
C      1  0.4405950000000  0.5219510000000  0.5089310000000 1.0
C      1  0.4440200000000  0.5289730000000  0.5720950000000 1.0
C      1  0.5862710000000  0.5225960000000  0.4816650000000 1.0
C      1  0.5829650000000  0.4738840000000  0.4754300000000 1.0
C      1  0.5555440000000  0.4982270000000  0.5851550000000 1.0
C      1  0.5040550000000  0.5031060000000  0.5742980000000 1.0
C      1  0.4668160000000  0.4084010000000  0.4598740000000 1.0
C      1  0.5755250000000  0.5070800000000  0.5658940000000 1.0
C      1  0.5753920000000  0.4392820000000  0.5392240000000 1.0
C      1  0.5803680000000  0.4266310000000  0.4988430000000 1.0
C      1  0.4896100000000  0.6075610000000  0.5583340000000 1.0
C      1  0.5078460000000  0.4406820000000  0.4455900000000 1.0
C      1  0.5741320000000  0.5092880000000  0.4146490000000 1.0
C      1  0.5104210000000  0.5211400000000  0.5477190000000 1.0
C      1  0.5905250000000  0.4632420000000  0.5454980000000 1.0
C      1  0.5266360000000  0.5453760000000  0.4841700000000 1.0
C      1  0.5169270000000  0.5474300000000  0.5657570000000 1.0
C      1  0.5269840000000  0.5613050000000  0.5401550000000 1.0
C      1  0.4882740000000  0.5569940000000  0.5796260000000 1.0
C      1  0.4595030000000  0.4420190000000  0.4007010000000 1.0
C      1  0.5174410000000  0.5711380000000  0.4371660000000 1.0
C      1  0.4315230000000  0.4492860000000  0.5333640000000 1.0
C      1  0.4395940000000  0.5924120000000  0.5042000000000 1.0
C      1  0.5274820000000  0.5179400000000  0.4967390000000 1.0
C      1  0.5459340000000  0.5856750000000  0.5104910000000 1.0
C      1  0.5078860000000  0.4273040000000  0.3870450000000 1.0
C      1  0.4192450000000  0.5041520000000  0.5318680000000 1.0
C      1  0.4943170000000  0.4767030000000  0.5652310000000 1.0
C      1  0.4335470000000  0.4273960000000  0.5554540000000 1.0
C      1  0.5333510000000  0.5125380000000  0.5248730000000 1.0
C      1  0.4457300000000  0.4870140000000  0.5714030000000 1.0
C      1  0.5092240000000  0.4022780000000  0.4800130000000 1.0
C      1  0.4199870000000  0.5223610000000  0.5565310000000 1.0
C      1  0.4460050000000  0.4639130000000  0.4144120000000 1.0
C      1  0.5311170000000  0.5124350000000  0.5866790000000 1.0
C      1  0.4218120000000  0.5654350000000  0.4593140000000 1.0
C      1  0.4178990000000  0.5239640000000  0.4636100000000 1.0
C      1  0.5336760000000  0.4022370000000  0.4983650000000 1.0
C      1  0.5838640000000  0.5356390000000  0.5665900000000 1.0
C      1  0.4788110000000  0.5384620000000  0.4252500000000 1.0
C      1  0.4798400000000  0.3931180000000  0.4863610000000 1.0
C      1  0.4992950000000  0.5873700000000  0.5782440000000 1.0
C      1  0.5394020000000  0.5000170000000  0.4702220000000 1.0
C      1  0.5360180000000  0.4336060000000  0.3868440000000 1.0
C      1  0.5080910000000  0.4823530000000  0.4212770000000 1.0
C      1  0.4597490000000  0.4906400000000  0.4147300000000 1.0
C      1  0.5112310000000  0.4619480000000  0.5490840000000 1.0
C      1  0.4578200000000  0.4090910000000  0.5610900000000 1.0
C      1  0.4909070000000  0.5340740000000  0.4652260000000 1.0
C      1  0.4175120000000  0.5454560000000  0.5095560000000 1.0
C      1  0.5478140000000  0.4576430000000  0.3989790000000 1.0
C      1  0.5140220000000  0.5993070000000  0.5116280000000 1.0
C      1  0.5293830000000  0.4196680000000  0.5229520000000 1.0
C      1  0.3904380000000  0.4859370000000  0.4653970000000 1.0
C      1  0.5866770000000  0.4842760000000  0.4231640000000 1.0
C      1  0.5222900000000  0.4875170000000  0.6358540000000 1.0
C      1  0.4953770000000  0.5270030000000  0.3968540000000 1.0
C      1  0.5885470000000  0.5432590000000  0.5011160000000 1.0
C      1  0.5576330000000  0.4155800000000  0.4836990000000 1.0
C      1  0.5505860000000  0.3540220000000  0.4883850000000 1.0
C      1  0.4443850000000  0.5311540000000  0.4772590000000 1.0
C      1  0.4899930000000  0.5681760000000  0.4289500000000 1.0
C      1  0.5325130000000  0.5460400000000  0.4321960000000 1.0
C      1  0.4386520000000  0.4842450000000  0.4904670000000 1.0
C      1  0.4240500000000  0.4395690000000  0.5066700000000 1.0
C      1  0.4218400000000  0.5100260000000  0.4384180000000 1.0
C      1  0.4378510000000  0.5477600000000  0.6560620000000 1.0
C      1  0.5257180000000  0.5875430000000  0.4620650000000 1.0
C      1  0.4960860000000  0.4953450000000  0.6252400000000 1.0
C      1  0.5597360000000  0.4761950000000  0.6033380000000 1.0
C      1  0.4638390000000  0.4102150000000  0.5063720000000 1.0
C      1  0.4670300000000  0.4734690000000  0.5569500000000 1.0
C      1  0.5346190000000  0.4466210000000  0.4525110000000 1.0
C      1  0.4714680000000  0.5880310000000  0.4371960000000 1.0
C      1  0.5264500000000  0.5304320000000  0.4065570000000 1.0
C      1  0.5277070000000  0.5862440000000  0.5870110000000 1.0
C      1  0.4885740000000  0.4465590000000  0.3967710000000 1.0
C      1  0.5406550000000  0.3743970000000  0.5063860000000 1.0
C      1  0.5793480000000  0.4902430000000  0.5418140000000 1.0
C      1  0.5082260000000  0.6034570000000  0.4815550000000 1.0
C      1  0.4292210000000  0.4455930000000  0.4597140000000 1.0
C      1  0.3966800000000  0.5117960000000  0.4798190000000 1.0
C      1  0.4647900000000  0.4913250000000  0.4797840000000 1.0
C      1  0.4209570000000  0.5691510000000  0.4911900000000 1.0
C      1  0.5461210000000  0.5080080000000  0.4028880000000 1.0
C      1  0.4788690000000  0.4362050000000  0.5163770000000 1.0
C      1  0.4920070000000  0.4741130000000  0.3826420000000 1.0
C      1  0.5610920000000  0.5520910000000  0.4333080000000 1.0
C      1  0.5809630000000  0.5319370000000  0.4315000000000 1.0
C      1  0.5593110000000  0.4929460000000  0.5193360000000 1.0
C      1  0.5080820000000  0.5717950000000  0.5222000000000 1.0
C      1  0.5692420000000  0.4983300000000  0.4875670000000 1.0
C      1  0.5767450000000  0.4681440000000  0.4456060000000 1.0
C      1  0.4364020000000  0.4150630000000  0.4959600000000 1.0
C      1  0.4802330000000  0.4984320000000  0.3943060000000 1.0
C      1  0.5223750000000  0.5290960000000  0.4566050000000 1.0
C      1  0.5403010000000  0.4677060000000  0.6235170000000 1.0
END
