TITL C-862129-6180-267 0.000278983973753165 125000 -181.508072483565 0 0 32 (Ci) n - 1
REM
REM in /home/nfs/bkarasulu/CARBON/AIRSS/Generating-Clusters/TERSOFF/Higher-Symm/FIRE-HFTN
REM
REM
REM
REM
REM
REM ./C.cell (b20cbc046b6831c77cfcea5457e17084)
REM AIRSS Version 0.9.1 bugfix July 2018 build 013d7b7c2542+ Fri, 06 Jul 2018 19:26:36 +0100
REM compiler GCC version 9.2.1 20190827 (Red Hat 9.2.1-1)
REM options -cpp -mtune=generic -march=x86-64 -g -O0 -fpre-include=/usr/include/finclude/math-vector-fortran.h
REM seed 68716433 1120478979 1072185702 -1394592410 -292079326 -359377315 512153112 517637094 -1658984074 -2061696842 -1349365407 -761468026 -717072617 -1477115129 -1598913469 -82863754 418014093 -461964402 337937612 -2111671013 -1696542466 1633995309 886437072 -985496827 1189872511 -1643837617 1304478150 -1219106252 -1510360858 935618550 -725155525 1773021347 1859810995
REM
CELL 1.54180   50.00000   50.00000   50.00000   90.00000   90.00000   90.00000
LATT -1
SFAC C  
C      1  0.5166020000000  0.5726330000000  0.4925080000000 1.0
C      1  0.4833980000000  0.4273670000000  0.5074920000000 1.0
C      1  0.5002400000000  0.4558520000000  0.4722200000000 1.0
C      1  0.4997600000000  0.5441480000000  0.5277800000000 1.0
C      1  0.5322100000000  0.4815930000000  0.5062070000000 1.0
C      1  0.4677900000000  0.5184070000000  0.4937930000000 1.0
C      1  0.5365310000000  0.5430820000000  0.4602750000000 1.0
C      1  0.4634690000000  0.4569180000000  0.5397250000000 1.0
C      1  0.4648160000000  0.5139590000000  0.5235150000000 1.0
C      1  0.5351840000000  0.4860410000000  0.4764850000000 1.0
C      1  0.4885720000000  0.4999020000000  0.5354000000000 1.0
C      1  0.5114280000000  0.5000980000000  0.4646000000000 1.0
C      1  0.5322710000000  0.5135850000000  0.5553520000000 1.0
C      1  0.4677290000000  0.4864150000000  0.4446480000000 1.0
C      1  0.5070360000000  0.4405450000000  0.4969800000000 1.0
C      1  0.4929640000000  0.5594550000000  0.5030200000000 1.0
C      1  0.5135620000000  0.5267300000000  0.4525930000000 1.0
C      1  0.4864380000000  0.4732700000000  0.5474070000000 1.0
C      1  0.5246160000000  0.4547580000000  0.5165620000000 1.0
C      1  0.4753840000000  0.5452420000000  0.4834380000000 1.0
C      1  0.5460740000000  0.5376280000000  0.5102390000000 1.0
C      1  0.4539260000000  0.4623720000000  0.4897610000000 1.0
C      1  0.4607780000000  0.4448250000000  0.5132480000000 1.0
C      1  0.5392220000000  0.5551750000000  0.4867520000000 1.0
C      1  0.4921660000000  0.5011710000000  0.4878150000000 1.0
C      1  0.5078340000000  0.4988290000000  0.5121850000000 1.0
C      1  0.5152700000000  0.4638420000000  0.5446350000000 1.0
C      1  0.4847300000000  0.5361580000000  0.4553650000000 1.0
C      1  0.4737970000000  0.4688140000000  0.4684190000000 1.0
C      1  0.5262030000000  0.5311860000000  0.5315810000000 1.0
C      1  0.4651180000000  0.5165190000000  0.4436000000000 1.0
C      1  0.5348820000000  0.4834810000000  0.5564000000000 1.0
END
