TITL C-862503-991-54 -0.0238291047545027 125000 -1004.11874241429 0 0 173 (C1) n - 1
REM
REM in /home/nfs/bkarasulu/CARBON/AIRSS/Generating-Clusters/TERSOFF/Higher-Symm/FIRE-HFTN
REM
REM
REM
REM
REM
REM ./C.cell (b20cbc046b6831c77cfcea5457e17084)
REM AIRSS Version 0.9.1 bugfix July 2018 build 013d7b7c2542+ Fri, 06 Jul 2018 19:26:36 +0100
REM compiler GCC version 9.2.1 20190827 (Red Hat 9.2.1-1)
REM options -cpp -mtune=generic -march=x86-64 -g -O0 -fpre-include=/usr/include/finclude/math-vector-fortran.h
REM seed -142392930 1120508864 -1231205628 543963567 -816817525 -439897098 820512495 493631592 712000306 -484183218 -1980700101 1016267284 -692210429 1742186282 354167811 1439995643 -1622392069 892859046 604042734 -1105646266 -425029313 -1283288817 -1502055531 -524063459 388379119 -1216853706 49439251 777190463 997066339 -1268000904 -77622965 -878532754 -998619391
REM
CELL 1.54180   50.00000   50.00000   50.00000   90.00000   90.00000   90.00000
LATT -1
SFAC C  
C      1  0.4763190000000  0.3867720000000  0.4739500000000 1.0
C      1  0.5369360000000  0.5675830000000  0.4541990000000 1.0
C      1  0.5301280000000  0.5026090000000  0.5960740000000 1.0
C      1  0.5631220000000  0.4442250000000  0.5045990000000 1.0
C      1  0.5118200000000  0.4905060000000  0.3750250000000 1.0
C      1  0.5021580000000  0.5595920000000  0.4203300000000 1.0
C      1  0.4728150000000  0.4101930000000  0.4917000000000 1.0
C      1  0.4685550000000  0.5258770000000  0.5833890000000 1.0
C      1  0.5771660000000  0.5154190000000  0.5804200000000 1.0
C      1  0.4942650000000  0.4308250000000  0.4823170000000 1.0
C      1  0.5129930000000  0.5833780000000  0.4368400000000 1.0
C      1  0.4820290000000  0.4195300000000  0.5775240000000 1.0
C      1  0.5715780000000  0.5592630000000  0.5436430000000 1.0
C      1  0.4275040000000  0.4712160000000  0.5605310000000 1.0
C      1  0.5113030000000  0.6123950000000  0.5247250000000 1.0
C      1  0.4481590000000  0.4480720000000  0.4908550000000 1.0
C      1  0.5779060000000  0.5229500000000  0.4622680000000 1.0
C      1  0.4812910000000  0.6157340000000  0.5268950000000 1.0
C      1  0.5464100000000  0.4659280000000  0.3945800000000 1.0
C      1  0.4914190000000  0.5731170000000  0.4926290000000 1.0
C      1  0.4496390000000  0.6033350000000  0.4869000000000 1.0
C      1  0.4320980000000  0.5585900000000  0.4926800000000 1.0
C      1  0.6041900000000  0.4793280000000  0.4399600000000 1.0
C      1  0.6006270000000  0.5504230000000  0.4357610000000 1.0
C      1  0.4402100000000  0.4540630000000  0.5817600000000 1.0
C      1  0.4450260000000  0.4897500000000  0.5487570000000 1.0
C      1  0.5300760000000  0.3971470000000  0.4340610000000 1.0
C      1  0.5535120000000  0.5208410000000  0.5968900000000 1.0
C      1  0.5555490000000  0.4944140000000  0.4002340000000 1.0
C      1  0.4037720000000  0.4951000000000  0.5303500000000 1.0
C      1  0.4966510000000  0.4947020000000  0.4284770000000 1.0
C      1  0.4755000000000  0.5312480000000  0.4669020000000 1.0
C      1  0.4602430000000  0.4059600000000  0.5202960000000 1.0
C      1  0.5444670000000  0.4829000000000  0.4519440000000 1.0
C      1  0.4747700000000  0.5905350000000  0.5451460000000 1.0
C      1  0.4913430000000  0.4741890000000  0.5537490000000 1.0
C      1  0.5409460000000  0.4129370000000  0.5718200000000 1.0
C      1  0.4196520000000  0.5201090000000  0.5752850000000 1.0
C      1  0.5117200000000  0.4566010000000  0.5915970000000 1.0
C      1  0.4568610000000  0.4382460000000  0.4647730000000 1.0
C      1  0.4440410000000  0.5367170000000  0.5698500000000 1.0
C      1  0.4610480000000  0.5925500000000  0.4390590000000 1.0
C      1  0.5954140000000  0.4768880000000  0.5529360000000 1.0
C      1  0.5147560000000  0.4733070000000  0.4995800000000 1.0
C      1  0.5884680000000  0.5527930000000  0.4646870000000 1.0
C      1  0.3866360000000  0.5434160000000  0.5444210000000 1.0
C      1  0.5211640000000  0.6144960000000  0.4975600000000 1.0
C      1  0.5096200000000  0.5368800000000  0.5684440000000 1.0
C      1  0.4402150000000  0.5072820000000  0.4103200000000 1.0
C      1  0.4941960000000  0.5161550000000  0.6151530000000 1.0
C      1  0.4420010000000  0.5585820000000  0.5208460000000 1.0
C      1  0.5462080000000  0.5021050000000  0.4297200000000 1.0
C      1  0.5622690000000  0.5389590000000  0.5153430000000 1.0
C      1  0.3831290000000  0.5851940000000  0.4414180000000 1.0
C      1  0.4564390000000  0.4329030000000  0.5659260000000 1.0
C      1  0.5189560000000  0.5889520000000  0.5399620000000 1.0
C      1  0.4740370000000  0.5536720000000  0.4103410000000 1.0
C      1  0.4859300000000  0.4454190000000  0.4571170000000 1.0
C      1  0.4737610000000  0.5183200000000  0.4925110000000 1.0
C      1  0.4057670000000  0.5633290000000  0.4807960000000 1.0
C      1  0.5134500000000  0.5077450000000  0.5729300000000 1.0
C      1  0.4744200000000  0.5156530000000  0.4405360000000 1.0
C      1  0.4454330000000  0.4557920000000  0.4135920000000 1.0
C      1  0.5500490000000  0.6129760000000  0.4932020000000 1.0
C      1  0.5879710000000  0.4513550000000  0.4891350000000 1.0
C      1  0.4305440000000  0.6191020000000  0.4705440000000 1.0
C      1  0.5141310000000  0.4298120000000  0.5726740000000 1.0
C      1  0.4261460000000  0.5776840000000  0.5379110000000 1.0
C      1  0.4998790000000  0.5174510000000  0.5067800000000 1.0
C      1  0.5959410000000  0.5278970000000  0.5121440000000 1.0
C      1  0.6077670000000  0.5233930000000  0.5386150000000 1.0
C      1  0.4576970000000  0.3924330000000  0.4506460000000 1.0
C      1  0.5188400000000  0.3898160000000  0.5069940000000 1.0
C      1  0.4207770000000  0.4398160000000  0.4968940000000 1.0
C      1  0.5351170000000  0.4738660000000  0.5972170000000 1.0
C      1  0.4002550000000  0.5182940000000  0.5527090000000 1.0
C      1  0.4463990000000  0.5873390000000  0.5580680000000 1.0
C      1  0.5986340000000  0.5542660000000  0.4955010000000 1.0
C      1  0.4847640000000  0.4497440000000  0.5399040000000 1.0
C      1  0.5655280000000  0.5233440000000  0.4359880000000 1.0
C      1  0.4853260000000  0.4651710000000  0.6012860000000 1.0
C      1  0.4195470000000  0.4386070000000  0.5264610000000 1.0
C      1  0.5394860000000  0.4462650000000  0.4796830000000 1.0
C      1  0.4177060000000  0.4193740000000  0.4735780000000 1.0
C      1  0.5081120000000  0.4925010000000  0.5197010000000 1.0
C      1  0.4952300000000  0.4525940000000  0.4993780000000 1.0
C      1  0.5277060000000  0.5106750000000  0.3902480000000 1.0
C      1  0.5887680000000  0.5353150000000  0.5586120000000 1.0
C      1  0.5322180000000  0.5643570000000  0.5299600000000 1.0
C      1  0.5653800000000  0.4921550000000  0.5272520000000 1.0
C      1  0.5151650000000  0.5374920000000  0.4343930000000 1.0
C      1  0.4072110000000  0.4622910000000  0.5415330000000 1.0
C      1  0.5457460000000  0.3933810000000  0.5928820000000 1.0
C      1  0.5472130000000  0.3959680000000  0.5041300000000 1.0
C      1  0.5674690000000  0.4665990000000  0.4558690000000 1.0
C      1  0.5020120000000  0.5837880000000  0.5652480000000 1.0
C      1  0.5929620000000  0.4344690000000  0.4648210000000 1.0
C      1  0.3898970000000  0.5164660000000  0.4862110000000 1.0
C      1  0.4737520000000  0.6149170000000  0.4972330000000 1.0
C      1  0.4722150000000  0.5707660000000  0.5204430000000 1.0
C      1  0.5027310000000  0.3992590000000  0.5304970000000 1.0
C      1  0.5829960000000  0.5753350000000  0.5132730000000 1.0
C      1  0.5418740000000  0.5075520000000  0.5396200000000 1.0
C      1  0.4693700000000  0.4550590000000  0.5131930000000 1.0
C      1  0.3840270000000  0.4984030000000  0.5082590000000 1.0
C      1  0.4706280000000  0.4918270000000  0.5591110000000 1.0
C      1  0.4417690000000  0.5338630000000  0.5380300000000 1.0
C      1  0.4215580000000  0.4998160000000  0.5959170000000 1.0
C      1  0.5050050000000  0.5391790000000  0.5994630000000 1.0
C      1  0.5047730000000  0.4274080000000  0.5431100000000 1.0
C      1  0.3846800000000  0.5447830000000  0.4877350000000 1.0
C      1  0.5252360000000  0.4887130000000  0.4744450000000 1.0
C      1  0.4912740000000  0.5981810000000  0.4511260000000 1.0
C      1  0.4588910000000  0.5288550000000  0.4197250000000 1.0
C      1  0.4357100000000  0.5068730000000  0.5259190000000 1.0
C      1  0.5188010000000  0.5165470000000  0.4823870000000 1.0
C      1  0.4401130000000  0.4177410000000  0.4503490000000 1.0
C      1  0.4340420000000  0.4955180000000  0.4748800000000 1.0
C      1  0.4768530000000  0.3868960000000  0.5345930000000 1.0
C      1  0.5493950000000  0.4578500000000  0.5545830000000 1.0
C      1  0.4499980000000  0.4836470000000  0.4539560000000 1.0
C      1  0.5644390000000  0.5737820000000  0.4656970000000 1.0
C      1  0.5941550000000  0.4816690000000  0.4881560000000 1.0
C      1  0.4091970000000  0.5744610000000  0.4512220000000 1.0
C      1  0.5514890000000  0.4187050000000  0.4382960000000 1.0
C      1  0.5192370000000  0.5123260000000  0.4211950000000 1.0
C      1  0.4330830000000  0.4306680000000  0.4239440000000 1.0
C      1  0.4965440000000  0.6026220000000  0.4814600000000 1.0
C      1  0.4712800000000  0.4544300000000  0.4007410000000 1.0
C      1  0.5811590000000  0.5097230000000  0.3959930000000 1.0
C      1  0.4771660000000  0.4746530000000  0.4597570000000 1.0
C      1  0.5651350000000  0.5883760000000  0.4909350000000 1.0
C      1  0.5174660000000  0.4894130000000  0.5486680000000 1.0
C      1  0.3985400000000  0.5706880000000  0.5459400000000 1.0
C      1  0.5624330000000  0.4163830000000  0.5493650000000 1.0
C      1  0.4505120000000  0.5746010000000  0.4789060000000 1.0
C      1  0.4749770000000  0.5611700000000  0.4692710000000 1.0
C      1  0.4973750000000  0.4628140000000  0.4135760000000 1.0
C      1  0.5241190000000  0.5409870000000  0.4646500000000 1.0
C      1  0.4733170000000  0.4947510000000  0.6009110000000 1.0
C      1  0.4442420000000  0.4814340000000  0.5982850000000 1.0
C      1  0.5065270000000  0.3803240000000  0.4799250000000 1.0
C      1  0.5307040000000  0.3816810000000  0.4601040000000 1.0
C      1  0.5567610000000  0.3908070000000  0.4758500000000 1.0
C      1  0.4452240000000  0.4256400000000  0.5375180000000 1.0
C      1  0.5973370000000  0.4965190000000  0.4627600000000 1.0
C      1  0.5793790000000  0.5019960000000  0.5044500000000 1.0
C      1  0.5729590000000  0.4117420000000  0.4580270000000 1.0
C      1  0.5842660000000  0.5344510000000  0.4141970000000 1.0
C      1  0.5572590000000  0.4674910000000  0.5805840000000 1.0
C      1  0.5603900000000  0.5196260000000  0.4871850000000 1.0
C      1  0.4396970000000  0.4817400000000  0.4263280000000 1.0
C      1  0.5303170000000  0.5724040000000  0.5768270000000 1.0
C      1  0.5810600000000  0.4856500000000  0.5772510000000 1.0
C      1  0.5167220000000  0.4648250000000  0.3896530000000 1.0
C      1  0.4317140000000  0.5977230000000  0.4493410000000 1.0
C      1  0.4176610000000  0.5502610000000  0.4350040000000 1.0
C      1  0.5564550000000  0.5773940000000  0.5632380000000 1.0
C      1  0.5162420000000  0.5576970000000  0.4903850000000 1.0
C      1  0.4432280000000  0.5656810000000  0.5778000000000 1.0
C      1  0.4098480000000  0.5094770000000  0.4665940000000 1.0
C      1  0.3590050000000  0.4836080000000  0.5087840000000 1.0
C      1  0.5348100000000  0.4412120000000  0.4486350000000 1.0
C      1  0.6049670000000  0.4498580000000  0.4421600000000 1.0
C      1  0.5709580000000  0.4616140000000  0.5329790000000 1.0
C      1  0.5050270000000  0.4416120000000  0.4349300000000 1.0
C      1  0.5851810000000  0.4362160000000  0.5513750000000 1.0
C      1  0.4090270000000  0.5226320000000  0.4402740000000 1.0
C      1  0.5326550000000  0.5389880000000  0.5466210000000 1.0
C      1  0.4488080000000  0.5038980000000  0.4992150000000 1.0
C      1  0.5576220000000  0.4177680000000  0.5191690000000 1.0
C      1  0.5060690000000  0.4124810000000  0.4261640000000 1.0
C      1  0.6148750000000  0.4955700000000  0.5427990000000 1.0
END
