TITL C-862504-1170-210 0.199100992152538 125000 -1050.0012530777 0 0 184 (C1) n - 1
REM
REM in /home/nfs/bkarasulu/CARBON/AIRSS/Generating-Clusters/TERSOFF/Higher-Symm/FIRE-HFTN
REM
REM
REM
REM
REM
REM ./C.cell (b20cbc046b6831c77cfcea5457e17084)
REM AIRSS Version 0.9.1 bugfix July 2018 build 013d7b7c2542+ Fri, 06 Jul 2018 19:26:36 +0100
REM compiler GCC version 9.2.1 20190827 (Red Hat 9.2.1-1)
REM options -cpp -mtune=generic -march=x86-64 -g -O0 -fpre-include=/usr/include/finclude/math-vector-fortran.h
REM seed -521346494 226108592 -239179568 332800865 -259937386 -1215483851 -1324044867 -503207750 1325027902 550217286 259641241 1785477579 404834792 -136847743 -326383795 -1284608408 1176941781 318840208 2116487930 258047515 1696916258 1557903700 -871508542 -1739681065 1567023049 -1140379423 -6237653 1963108223 220758510 -901031534 141873365 -1665123354 -819548800
REM
CELL 1.54180   50.00000   50.00000   50.00000   90.00000   90.00000   90.00000
LATT -1
SFAC C  
C      1  0.4997100000000  0.4968800000000  0.5999820000000 1.0
C      1  0.5897180000000  0.4791670000000  0.4241960000000 1.0
C      1  0.5634620000000  0.5060480000000  0.5517110000000 1.0
C      1  0.5886580000000  0.4152020000000  0.4319030000000 1.0
C      1  0.5972180000000  0.4381870000000  0.4520220000000 1.0
C      1  0.5525880000000  0.3867980000000  0.4956100000000 1.0
C      1  0.4720210000000  0.5087940000000  0.4457440000000 1.0
C      1  0.4732820000000  0.4632210000000  0.5842960000000 1.0
C      1  0.5045030000000  0.5841680000000  0.4284600000000 1.0
C      1  0.5200620000000  0.4519450000000  0.5489660000000 1.0
C      1  0.5924280000000  0.5604780000000  0.5278800000000 1.0
C      1  0.5129080000000  0.4576600000000  0.5179140000000 1.0
C      1  0.4701770000000  0.5141680000000  0.5186960000000 1.0
C      1  0.4412690000000  0.4946550000000  0.4529010000000 1.0
C      1  0.5333460000000  0.4868270000000  0.5771380000000 1.0
C      1  0.5889090000000  0.5102180000000  0.4110430000000 1.0
C      1  0.4652730000000  0.4679580000000  0.5325150000000 1.0
C      1  0.5329530000000  0.4073880000000  0.5478680000000 1.0
C      1  0.4613120000000  0.5457380000000  0.4012200000000 1.0
C      1  0.4813100000000  0.4675520000000  0.4728910000000 1.0
C      1  0.4601420000000  0.4150730000000  0.5328640000000 1.0
C      1  0.5067040000000  0.4351590000000  0.4261010000000 1.0
C      1  0.4556950000000  0.5923320000000  0.5307130000000 1.0
C      1  0.5616380000000  0.4663380000000  0.6003630000000 1.0
C      1  0.5066480000000  0.6093640000000  0.5249710000000 1.0
C      1  0.5072360000000  0.6130740000000  0.4891630000000 1.0
C      1  0.4828020000000  0.4096120000000  0.5484850000000 1.0
C      1  0.5180050000000  0.5062950000000  0.4639260000000 1.0
C      1  0.5068730000000  0.4249950000000  0.4833650000000 1.0
C      1  0.4259450000000  0.4665690000000  0.5689970000000 1.0
C      1  0.5627650000000  0.5830410000000  0.4388190000000 1.0
C      1  0.4961790000000  0.5085080000000  0.5714670000000 1.0
C      1  0.4606990000000  0.5433230000000  0.5864550000000 1.0
C      1  0.4073890000000  0.4198390000000  0.5249960000000 1.0
C      1  0.5631210000000  0.5286720000000  0.4777230000000 1.0
C      1  0.5611760000000  0.4373170000000  0.4898790000000 1.0
C      1  0.5178190000000  0.4797150000000  0.4052120000000 1.0
C      1  0.4827520000000  0.4394480000000  0.4771730000000 1.0
C      1  0.5724160000000  0.5196130000000  0.4513550000000 1.0
C      1  0.4393190000000  0.4703180000000  0.4364970000000 1.0
C      1  0.4876360000000  0.5495150000000  0.3895850000000 1.0
C      1  0.4906950000000  0.4764050000000  0.5149120000000 1.0
C      1  0.4753620000000  0.3778770000000  0.4739620000000 1.0
C      1  0.3723730000000  0.5532300000000  0.4414210000000 1.0
C      1  0.5054750000000  0.5577730000000  0.5875290000000 1.0
C      1  0.5481140000000  0.4835260000000  0.3976690000000 1.0
C      1  0.4300340000000  0.4154790000000  0.4311750000000 1.0
C      1  0.4672210000000  0.4881700000000  0.4004980000000 1.0
C      1  0.4538170000000  0.4854400000000  0.4817930000000 1.0
C      1  0.5634530000000  0.5100520000000  0.3954300000000 1.0
C      1  0.5501630000000  0.5358660000000  0.3955360000000 1.0
C      1  0.4598780000000  0.4837530000000  0.6017820000000 1.0
C      1  0.5860510000000  0.5358290000000  0.4308340000000 1.0
C      1  0.4152800000000  0.5185570000000  0.5658060000000 1.0
C      1  0.4609460000000  0.4356420000000  0.5832830000000 1.0
C      1  0.5889710000000  0.4968760000000  0.5197030000000 1.0
C      1  0.4601490000000  0.4631600000000  0.4177640000000 1.0
C      1  0.5250340000000  0.4434570000000  0.5803520000000 1.0
C      1  0.5842890000000  0.4533510000000  0.5107550000000 1.0
C      1  0.6249740000000  0.4832800000000  0.4980610000000 1.0
C      1  0.4508370000000  0.5159100000000  0.4049840000000 1.0
C      1  0.4203140000000  0.5058800000000  0.5163430000000 1.0
C      1  0.5292840000000  0.3826500000000  0.4771310000000 1.0
C      1  0.3935300000000  0.5735030000000  0.4401480000000 1.0
C      1  0.5219290000000  0.4076930000000  0.4619320000000 1.0
C      1  0.4046600000000  0.5385910000000  0.5487530000000 1.0
C      1  0.4564410000000  0.4416510000000  0.5198820000000 1.0
C      1  0.5080700000000  0.4209920000000  0.5886270000000 1.0
C      1  0.4408410000000  0.5061570000000  0.5611190000000 1.0
C      1  0.5140600000000  0.5785650000000  0.4552580000000 1.0
C      1  0.4850750000000  0.6007240000000  0.5693200000000 1.0
C      1  0.5293570000000  0.4130040000000  0.4299770000000 1.0
C      1  0.4709070000000  0.5324440000000  0.5411370000000 1.0
C      1  0.6184130000000  0.5448910000000  0.5246710000000 1.0
C      1  0.5072090000000  0.5301210000000  0.4540610000000 1.0
C      1  0.3796490000000  0.4646470000000  0.5205330000000 1.0
C      1  0.4228620000000  0.4023010000000  0.5054030000000 1.0
C      1  0.4836110000000  0.4710120000000  0.5573470000000 1.0
C      1  0.4941250000000  0.5459390000000  0.4724020000000 1.0
C      1  0.6054160000000  0.4830510000000  0.4728340000000 1.0
C      1  0.5816190000000  0.4797540000000  0.4928140000000 1.0
C      1  0.5006790000000  0.3772350000000  0.4905490000000 1.0
C      1  0.3545890000000  0.4889440000000  0.4822870000000 1.0
C      1  0.4483080000000  0.5806560000000  0.5037470000000 1.0
C      1  0.5623390000000  0.5338420000000  0.5400200000000 1.0
C      1  0.4811040000000  0.5032610000000  0.6483430000000 1.0
C      1  0.4395710000000  0.5751910000000  0.5501560000000 1.0
C      1  0.4658730000000  0.5211780000000  0.5666090000000 1.0
C      1  0.4763540000000  0.4358700000000  0.4239530000000 1.0
C      1  0.4806530000000  0.6068610000000  0.5401280000000 1.0
C      1  0.4469670000000  0.4991530000000  0.5092630000000 1.0
C      1  0.4344620000000  0.4159100000000  0.4806650000000 1.0
C      1  0.5770620000000  0.5627930000000  0.4221430000000 1.0
C      1  0.4162800000000  0.4185720000000  0.4566750000000 1.0
C      1  0.3522940000000  0.5111430000000  0.4637240000000 1.0
C      1  0.4899250000000  0.5680050000000  0.5141650000000 1.0
C      1  0.4213410000000  0.5574900000000  0.5354120000000 1.0
C      1  0.5525240000000  0.4301490000000  0.4082370000000 1.0
C      1  0.5542770000000  0.4633810000000  0.5220540000000 1.0
C      1  0.5801200000000  0.4826030000000  0.5823140000000 1.0
C      1  0.4148660000000  0.5735460000000  0.4601600000000 1.0
C      1  0.5764320000000  0.5587990000000  0.5539090000000 1.0
C      1  0.5645120000000  0.4616210000000  0.4123970000000 1.0
C      1  0.5420800000000  0.5061480000000  0.4790670000000 1.0
C      1  0.5290580000000  0.5678230000000  0.5291660000000 1.0
C      1  0.5561650000000  0.4426740000000  0.5817060000000 1.0
C      1  0.5029070000000  0.4813010000000  0.4569590000000 1.0
C      1  0.5502470000000  0.4568480000000  0.4405740000000 1.0
C      1  0.5476320000000  0.5838000000000  0.5118720000000 1.0
C      1  0.4989750000000  0.5205100000000  0.3801680000000 1.0
C      1  0.5219830000000  0.4588390000000  0.4273340000000 1.0
C      1  0.4307730000000  0.4828600000000  0.5945830000000 1.0
C      1  0.4819060000000  0.6035060000000  0.4312080000000 1.0
C      1  0.4969700000000  0.4967770000000  0.4288590000000 1.0
C      1  0.5437810000000  0.4870810000000  0.5365330000000 1.0
C      1  0.5859740000000  0.5216770000000  0.4956580000000 1.0
C      1  0.5474330000000  0.5131410000000  0.5780380000000 1.0
C      1  0.3839380000000  0.4358360000000  0.5156960000000 1.0
C      1  0.6146560000000  0.5275970000000  0.4865990000000 1.0
C      1  0.3739800000000  0.5301630000000  0.4596740000000 1.0
C      1  0.4440790000000  0.4413580000000  0.4934420000000 1.0
C      1  0.4621490000000  0.5948960000000  0.5872830000000 1.0
C      1  0.4159160000000  0.4178430000000  0.5546960000000 1.0
C      1  0.5821140000000  0.5474780000000  0.5817960000000 1.0
C      1  0.5597330000000  0.4089510000000  0.4437480000000 1.0
C      1  0.5346880000000  0.6063580000000  0.5448160000000 1.0
C      1  0.4833420000000  0.5584160000000  0.5400590000000 1.0
C      1  0.5444630000000  0.5767840000000  0.4617110000000 1.0
C      1  0.5827660000000  0.4772780000000  0.5495640000000 1.0
C      1  0.5559280000000  0.5383540000000  0.5934800000000 1.0
C      1  0.4820600000000  0.4160780000000  0.5764120000000 1.0
C      1  0.5133090000000  0.4837610000000  0.5528580000000 1.0
C      1  0.5724980000000  0.4919860000000  0.4461920000000 1.0
C      1  0.4931500000000  0.4898600000000  0.3867130000000 1.0
C      1  0.5659210000000  0.4358970000000  0.4605090000000 1.0
C      1  0.5257320000000  0.4719410000000  0.6029090000000 1.0
C      1  0.4183080000000  0.5139980000000  0.4512220000000 1.0
C      1  0.5074190000000  0.4064730000000  0.5341620000000 1.0
C      1  0.4834080000000  0.5404690000000  0.6068070000000 1.0
C      1  0.4608790000000  0.4031660000000  0.4650840000000 1.0
C      1  0.4915800000000  0.6249160000000  0.4585070000000 1.0
C      1  0.4752590000000  0.5088080000000  0.4773640000000 1.0
C      1  0.4949490000000  0.5875840000000  0.4773560000000 1.0
C      1  0.4458590000000  0.5702620000000  0.4088320000000 1.0
C      1  0.5534010000000  0.4808490000000  0.4839550000000 1.0
C      1  0.6216540000000  0.5120950000000  0.5154960000000 1.0
C      1  0.5074290000000  0.5522540000000  0.4967110000000 1.0
C      1  0.4785380000000  0.5071280000000  0.6195030000000 1.0
C      1  0.5363990000000  0.5973030000000  0.4872260000000 1.0
C      1  0.5605350000000  0.4132390000000  0.5073300000000 1.0
C      1  0.4662120000000  0.5512080000000  0.4724340000000 1.0
C      1  0.5750480000000  0.5715070000000  0.5054470000000 1.0
C      1  0.5359450000000  0.4570160000000  0.4967570000000 1.0
C      1  0.5219510000000  0.5269470000000  0.5644320000000 1.0
C      1  0.4108590000000  0.5535540000000  0.4817880000000 1.0
C      1  0.4485380000000  0.5378490000000  0.4916620000000 1.0
C      1  0.4942900000000  0.5054430000000  0.5031930000000 1.0
C      1  0.5342690000000  0.5411600000000  0.5393820000000 1.0
C      1  0.4423760000000  0.5865240000000  0.4563150000000 1.0
C      1  0.4444660000000  0.3933210000000  0.5224440000000 1.0
C      1  0.4486990000000  0.5702230000000  0.5783480000000 1.0
C      1  0.6145420000000  0.4595150000000  0.5131250000000 1.0
C      1  0.5156200000000  0.5251640000000  0.5055640000000 1.0
C      1  0.5092350000000  0.5649960000000  0.4064250000000 1.0
C      1  0.4540560000000  0.5902540000000  0.4300980000000 1.0
C      1  0.3987280000000  0.5063890000000  0.4976500000000 1.0
C      1  0.4405930000000  0.4805930000000  0.5465600000000 1.0
C      1  0.4931520000000  0.5722480000000  0.5650070000000 1.0
C      1  0.5089700000000  0.5203110000000  0.4108190000000 1.0
C      1  0.5358900000000  0.5614720000000  0.5875790000000 1.0
C      1  0.4322420000000  0.4380270000000  0.5704170000000 1.0
C      1  0.4286330000000  0.5561500000000  0.5059360000000 1.0
C      1  0.4098300000000  0.4957540000000  0.6098560000000 1.0
C      1  0.6056730000000  0.4662720000000  0.4476150000000 1.0
C      1  0.4004810000000  0.5253530000000  0.4737790000000 1.0
C      1  0.4635940000000  0.5811870000000  0.4778130000000 1.0
C      1  0.5281540000000  0.5424330000000  0.4132450000000 1.0
C      1  0.4596870000000  0.4132570000000  0.4347910000000 1.0
C      1  0.5709760000000  0.4434030000000  0.5547910000000 1.0
C      1  0.5599900000000  0.5575980000000  0.4814840000000 1.0
C      1  0.5570790000000  0.4191640000000  0.5368100000000 1.0
C      1  0.5055760000000  0.4033890000000  0.5049100000000 1.0
C      1  0.3779090000000  0.4857140000000  0.4994460000000 1.0
C      1  0.5497260000000  0.5796620000000  0.5637280000000 1.0
END
