TITL C-862505-1648-646 33556.077329777 125000 -1101.62723803815 0 0 191 (C1) n - 1
REM
REM in /home/nfs/bkarasulu/CARBON/AIRSS/Generating-Clusters/TERSOFF/Higher-Symm/FIRE-HFTN
REM
REM
REM
REM
REM
REM ./C.cell (b20cbc046b6831c77cfcea5457e17084)
REM AIRSS Version 0.9.1 bugfix July 2018 build 013d7b7c2542+ Fri, 06 Jul 2018 19:26:36 +0100
REM compiler GCC version 9.2.1 20190827 (Red Hat 9.2.1-1)
REM options -cpp -mtune=generic -march=x86-64 -g -O0 -fpre-include=/usr/include/finclude/math-vector-fortran.h
REM seed 492241030 -1863098831 -366532849 -1378478142 2142846518 -592546537 -730568590 -1716267577 1612450329 -1922471952 1579981429 -1148898789 1656711336 1275172224 -1967013496 -2068118889 542046310 1713228527 1503589932 301491419 -1730053065 -978900998 -1638524562 -1469770151 -401176567 1724308334 576248989 -1980881134 -58891714 -621837317 2066165679 880716926 1659461118
REM
CELL 1.54180   50.00000   50.00000   50.00000   90.00000   90.00000   90.00000
LATT -1
SFAC C  
C      1  0.5083990000000  0.4728170000000  0.4375340000000 1.0
C      1  0.5083830000000  0.5269540000000  0.4375450000000 1.0
C      1  0.5994980000000  0.5601640000000  0.5447610000000 1.0
C      1  0.5995330000000  0.4395650000000  0.5448100000000 1.0
C      1  0.5017390000000  0.6115470000000  0.5345700000000 1.0
C      1  0.5017240000000  0.3881680000000  0.5346140000000 1.0
C      1  0.4828150000000  0.4744070000000  0.5500730000000 1.0
C      1  0.4829540000000  0.5252890000000  0.5505560000000 1.0
C      1  0.4510930000000  0.4819330000000  0.5653940000000 1.0
C      1  0.4510600000000  0.5181310000000  0.5656730000000 1.0
C      1  0.4397060000000  0.5859810000000  0.4015940000000 1.0
C      1  0.4395780000000  0.4135050000000  0.4017390000000 1.0
C      1  0.4091430000000  0.4461230000000  0.4633190000000 1.0
C      1  0.4089420000000  0.5537110000000  0.4632550000000 1.0
C      1  0.5339870000000  0.5978430000000  0.4409150000000 1.0
C      1  0.5340350000000  0.4018780000000  0.4409640000000 1.0
C      1  0.4613320000000  0.5146810000000  0.4112730000000 1.0
C      1  0.4613820000000  0.4849510000000  0.4112250000000 1.0
C      1  0.6031640000000  0.4428510000000  0.5139560000000 1.0
C      1  0.6031250000000  0.5569010000000  0.5139080000000 1.0
C      1  0.4108030000000  0.4466670000000  0.5163800000000 1.0
C      1  0.4105900000000  0.5532250000000  0.5163190000000 1.0
C      1  0.5139790000000  0.4830890000000  0.4095870000000 1.0
C      1  0.5139250000000  0.5166990000000  0.4095870000000 1.0
C      1  0.4446370000000  0.4676390000000  0.5341570000000 1.0
C      1  0.4449010000000  0.5325090000000  0.5345380000000 1.0
C      1  0.5236240000000  0.4258370000000  0.4215080000000 1.0
C      1  0.5235280000000  0.5738710000000  0.4215330000000 1.0
C      1  0.4496540000000  0.6084270000000  0.5311050000000 1.0
C      1  0.4496690000000  0.3915200000000  0.5310640000000 1.0
C      1  0.5718060000000  0.4353240000000  0.4311460000000 1.0
C      1  0.5717660000000  0.5643620000000  0.4311030000000 1.0
C      1  0.4423000000000  0.4851030000000  0.4834760000000 1.0
C      1  0.4434020000000  0.5144730000000  0.4846220000000 1.0
C      1  0.5554390000000  0.5150000000000  0.6040740000000 1.0
C      1  0.5551580000000  0.4850870000000  0.6040800000000 1.0
C      1  0.4211790000000  0.6224170000000  0.4643540000000 1.0
C      1  0.4211760000000  0.3774040000000  0.4647090000000 1.0
C      1  0.4866630000000  0.4210020000000  0.5762860000000 1.0
C      1  0.4866520000000  0.5786820000000  0.5762450000000 1.0
C      1  0.4774350000000  0.5634150000000  0.4227710000000 1.0
C      1  0.4776570000000  0.4362180000000  0.4226520000000 1.0
C      1  0.6065560000000  0.5284880000000  0.4631370000000 1.0
C      1  0.6065660000000  0.4712270000000  0.4631680000000 1.0
C      1  0.4886190000000  0.5137120000000  0.6440670000000 1.0
C      1  0.4866830000000  0.4819250000000  0.6440190000000 1.0
C      1  0.5056880000000  0.4311590000000  0.4632220000000 1.0
C      1  0.5056420000000  0.5686270000000  0.4632010000000 1.0
C      1  0.4533830000000  0.5551740000000  0.4835900000000 1.0
C      1  0.4536320000000  0.4447490000000  0.4836670000000 1.0
C      1  0.5504130000000  0.4333310000000  0.4930910000000 1.0
C      1  0.5503960000000  0.5664220000000  0.4930450000000 1.0
C      1  0.5893830000000  0.5140030000000  0.5659270000000 1.0
C      1  0.5893370000000  0.4857960000000  0.5659600000000 1.0
C      1  0.3970100000000  0.4818300000000  0.5667720000000 1.0
C      1  0.3968640000000  0.5178870000000  0.5666390000000 1.0
C      1  0.4701840000000  0.4552770000000  0.6091400000000 1.0
C      1  0.4703150000000  0.5445960000000  0.6094310000000 1.0
C      1  0.4637280000000  0.4699880000000  0.4673720000000 1.0
C      1  0.4634720000000  0.5297320000000  0.4674620000000 1.0
C      1  0.5349570000000  0.5647320000000  0.4667270000000 1.0
C      1  0.5349950000000  0.4350010000000  0.4667580000000 1.0
C      1  0.4410130000000  0.4020980000000  0.4297780000000 1.0
C      1  0.4411050000000  0.5975400000000  0.4295840000000 1.0
C      1  0.4602980000000  0.4424640000000  0.5301930000000 1.0
C      1  0.4604840000000  0.5575970000000  0.5302280000000 1.0
C      1  0.5339270000000  0.5301810000000  0.6191590000000 1.0
C      1  0.5331470000000  0.4702120000000  0.6189430000000 1.0
C      1  0.5070090000000  0.4115290000000  0.5550670000000 1.0
C      1  0.5069770000000  0.5881370000000  0.5549920000000 1.0
C      1  0.4358050000000  0.5180830000000  0.3912660000000 1.0
C      1  0.4358620000000  0.4814230000000  0.3912380000000 1.0
C      1  0.5912310000000  0.4714050000000  0.5097590000000 1.0
C      1  0.5912310000000  0.5283360000000  0.5097190000000 1.0
C      1  0.4341610000000  0.5534660000000  0.3983860000000 1.0
C      1  0.4342860000000  0.4460250000000  0.3983190000000 1.0
C      1  0.5468250000000  0.5147850000000  0.4778980000000 1.0
C      1  0.5468310000000  0.4849120000000  0.4779180000000 1.0
C      1  0.5295030000000  0.5626900000000  0.5160830000000 1.0
C      1  0.5294900000000  0.4369830000000  0.5161130000000 1.0
C      1  0.6027890000000  0.4254710000000  0.4912470000000 1.0
C      1  0.6027650000000  0.5742680000000  0.4911860000000 1.0
C      1  0.4178260000000  0.5308760000000  0.4458360000000 1.0
C      1  0.4180450000000  0.4688150000000  0.4457290000000 1.0
C      1  0.6066530000000  0.4854340000000  0.4889210000000 1.0
C      1  0.6066480000000  0.5142990000000  0.4889020000000 1.0
C      1  0.3987920000000  0.4853410000000  0.4316540000000 1.0
C      1  0.3985550000000  0.5142600000000  0.4318870000000 1.0
C      1  0.4869650000000  0.5268160000000  0.3989750000000 1.0
C      1  0.4870660000000  0.4729230000000  0.3989120000000 1.0
C      1  0.5670500000000  0.4727470000000  0.5791360000000 1.0
C      1  0.5671590000000  0.5271210000000  0.5790500000000 1.0
C      1  0.4868040000000  0.4434030000000  0.3954570000000 1.0
C      1  0.4865870000000  0.5563420000000  0.3955430000000 1.0
C      1  0.5059630000000  0.4850790000000  0.5627960000000 1.0
C      1  0.5059180000000  0.5144310000000  0.5632660000000 1.0
C      1  0.4912730000000  0.4852310000000  0.4737810000000 1.0
C      1  0.4912680000000  0.5144890000000  0.4737810000000 1.0
C      1  0.5623430000000  0.5344450000000  0.4983140000000 1.0
C      1  0.5623490000000  0.4652810000000  0.4983460000000 1.0
C      1  0.4152860000000  0.3984970000000  0.4449200000000 1.0
C      1  0.4153400000000  0.6012360000000  0.4446480000000 1.0
C      1  0.5494910000000  0.5512410000000  0.4455600000000 1.0
C      1  0.5495380000000  0.4484620000000  0.4455920000000 1.0
C      1  0.5222510000000  0.5349920000000  0.5131510000000 1.0
C      1  0.5221810000000  0.4646870000000  0.5131950000000 1.0
C      1  0.3884960000000  0.4666370000000  0.5166850000000 1.0
C      1  0.3883070000000  0.5332310000000  0.5165820000000 1.0
C      1  0.4562810000000  0.4778420000000  0.5966670000000 1.0
C      1  0.4560220000000  0.5222780000000  0.5969380000000 1.0
C      1  0.4483210000000  0.5281590000000  0.4405930000000 1.0
C      1  0.4485100000000  0.4714190000000  0.4403980000000 1.0
C      1  0.4830220000000  0.5222000000000  0.5204170000000 1.0
C      1  0.4828000000000  0.4773880000000  0.5197760000000 1.0
C      1  0.4911260000000  0.5956670000000  0.4699660000000 1.0
C      1  0.4911530000000  0.4041690000000  0.4700550000000 1.0
C      1  0.5867790000000  0.4835110000000  0.4422300000000 1.0
C      1  0.5867670000000  0.5161920000000  0.4422140000000 1.0
C      1  0.5180190000000  0.5258240000000  0.4850630000000 1.0
C      1  0.5180070000000  0.4738730000000  0.4850790000000 1.0
C      1  0.3820900000000  0.4841560000000  0.5391980000000 1.0
C      1  0.3818490000000  0.5157360000000  0.5390950000000 1.0
C      1  0.4538230000000  0.5155310000000  0.5131450000000 1.0
C      1  0.4532810000000  0.4845830000000  0.5124230000000 1.0
C      1  0.5320300000000  0.5455150000000  0.4078090000000 1.0
C      1  0.5321310000000  0.4542490000000  0.4078260000000 1.0
C      1  0.4949130000000  0.5520420000000  0.4431670000000 1.0
C      1  0.4950060000000  0.4476830000000  0.4431170000000 1.0
C      1  0.5366890000000  0.5171950000000  0.5338280000000 1.0
C      1  0.5366750000000  0.4824320000000  0.5338620000000 1.0
C      1  0.4770930000000  0.3897460000000  0.5185700000000 1.0
C      1  0.4770890000000  0.6101230000000  0.5185460000000 1.0
C      1  0.5731660000000  0.4334630000000  0.5570730000000 1.0
C      1  0.5731300000000  0.5662300000000  0.5570600000000 1.0
C      1  0.4206110000000  0.4633530000000  0.5680760000000 1.0
C      1  0.4203370000000  0.5364910000000  0.5681040000000 1.0
C      1  0.4415520000000  0.5882900000000  0.5516560000000 1.0
C      1  0.4416300000000  0.4116130000000  0.5516350000000 1.0
C      1  0.5855090000000  0.5389620000000  0.4206330000000 1.0
C      1  0.5855430000000  0.4607250000000  0.4206650000000 1.0
C      1  0.5252890000000  0.4672890000000  0.5737300000000 1.0
C      1  0.5254160000000  0.5321910000000  0.5740280000000 1.0
C      1  0.5201140000000  0.5163400000000  0.6408030000000 1.0
C      1  0.5183930000000  0.4844070000000  0.6397940000000 1.0
C      1  0.5187130000000  0.6084000000000  0.4663140000000 1.0
C      1  0.5187100000000  0.3913720000000  0.4663680000000 1.0
C      1  0.5333420000000  0.5721550000000  0.5450900000000 1.0
C      1  0.5333770000000  0.4275170000000  0.5451190000000 1.0
C      1  0.3987340000000  0.5781170000000  0.4508980000000 1.0
C      1  0.3987850000000  0.4216890000000  0.4511520000000 1.0
C      1  0.5287810000000  0.3840700000000  0.5190560000000 1.0
C      1  0.5288060000000  0.6156120000000  0.5190280000000 1.0
C      1  0.4241500000000  0.5571320000000  0.4882030000000 1.0
C      1  0.4243850000000  0.4428050000000  0.4882590000000 1.0
C      1  0.4693630000000  0.4344280000000  0.5037950000000 1.0
C      1  0.4691410000000  0.5655690000000  0.5036900000000 1.0
C      1  0.5876970000000  0.4218200000000  0.4522330000000 1.0
C      1  0.5876670000000  0.5778840000000  0.4521710000000 1.0
C      1  0.4208050000000  0.5644970000000  0.5465530000000 1.0
C      1  0.4210430000000  0.4354340000000  0.5465870000000 1.0
C      1  0.5574660000000  0.4754170000000  0.4518950000000 1.0
C      1  0.5574440000000  0.5242850000000  0.4518760000000 1.0
C      1  0.5192340000000  0.4542380000000  0.5980210000000 1.0
C      1  0.5193810000000  0.5455760000000  0.5981820000000 1.0
C      1  0.5476010000000  0.5968380000000  0.5325260000000 1.0
C      1  0.5475980000000  0.4028310000000  0.5325350000000 1.0
C      1  0.6018160000000  0.5280920000000  0.5443150000000 1.0
C      1  0.6017620000000  0.4716430000000  0.5443750000000 1.0
C      1  0.4584680000000  0.5878420000000  0.5755790000000 1.0
C      1  0.4585030000000  0.4118960000000  0.5755520000000 1.0
C      1  0.4684740000000  0.6082670000000  0.4503780000000 1.0
C      1  0.4684400000000  0.3915070000000  0.4505650000000 1.0
C      1  0.4499350000000  0.6274040000000  0.4660070000000 1.0
C      1  0.4499370000000  0.3724390000000  0.4663250000000 1.0
C      1  0.4930450000000  0.5585020000000  0.5976160000000 1.0
C      1  0.4929620000000  0.4412880000000  0.5975230000000 1.0
C      1  0.4807230000000  0.5905470000000  0.4979890000000 1.0
C      1  0.4808470000000  0.4093690000000  0.4981060000000 1.0
C      1  0.5743130000000  0.5846380000000  0.4833330000000 1.0
C      1  0.5743290000000  0.4150990000000  0.4834050000000 1.0
C      1  0.4509730000000  0.4466260000000  0.4248130000000 1.0
C      1  0.4507660000000  0.5529350000000  0.4249360000000 1.0
C      1  0.5678580000000  0.5921860000000  0.5690230000000 1.0
C      1  0.5678990000000  0.4074930000000  0.5690060000000 1.0
C      1  0.5487910000000  0.4578250000000  0.5573420000000 1.0
C      1  0.5486900000000  0.5418200000000  0.5573240000000 1.0
C      1  0.6105500000000  0.4407490000000  0.4641840000000 1.0
C      1  0.6105300000000  0.5589680000000  0.4641330000000 1.0
C      1  0.5313810000000  0.3766190000000  0.4894990000000 1.0
C      1  0.5314370000000  0.6230780000000  0.4894700000000 1.0
C      1  0.4993430000000  0.4998620000000  0.5122810000000 1.0
END
