TITL C-862134-6730-647 35.2877585668554 125000 -390.214489338678 0 0 75 (C1) n - 1
REM
REM in /home/nfs/bkarasulu/CARBON/AIRSS/Generating-Clusters/TERSOFF/Higher-Symm/FIRE-HFTN
REM
REM
REM
REM
REM
REM ./C.cell (b20cbc046b6831c77cfcea5457e17084)
REM AIRSS Version 0.9.1 bugfix July 2018 build 013d7b7c2542+ Fri, 06 Jul 2018 19:26:36 +0100
REM compiler GCC version 9.2.1 20190827 (Red Hat 9.2.1-1)
REM options -cpp -mtune=generic -march=x86-64 -g -O0 -fpre-include=/usr/include/finclude/math-vector-fortran.h
REM seed 1932460775 -1912785230 1635837410 -1002679646 -1874055463 1003346921 -1067693763 1117100859 923811151 -679950721 870374461 -833838297 1679996096 -1618547515 -45144264 645204115 -1416774536 1970386012 -1415576758 1881704247 -176309684 -1328465603 -391124772 -1237716723 -1342738295 -1632021799 -1319383672 1026502464 1156168940 1378040495 1279871062 -1529934758 -1631579813
REM
CELL 1.54180   50.00000   50.00000   50.00000   90.00000   90.00000   90.00000
LATT -1
SFAC C  
C      1  0.4958270000000  0.5410650000000  0.4508850000000 1.0
C      1  0.5376040000000  0.5165690000000  0.4508120000000 1.0
C      1  0.5275490000000  0.4691990000000  0.4508910000000 1.0
C      1  0.4793630000000  0.4644690000000  0.4508010000000 1.0
C      1  0.4597730000000  0.5087610000000  0.4508330000000 1.0
C      1  0.4958700000000  0.5408930000000  0.5512220000000 1.0
C      1  0.5377900000000  0.5166700000000  0.5511560000000 1.0
C      1  0.5273640000000  0.4693800000000  0.5512360000000 1.0
C      1  0.4791970000000  0.4643430000000  0.5511410000000 1.0
C      1  0.4597230000000  0.5086640000000  0.5511690000000 1.0
C      1  0.4234140000000  0.4678580000000  0.4823770000000 1.0
C      1  0.4439370000000  0.5647030000000  0.4900720000000 1.0
C      1  0.5426150000000  0.5715230000000  0.4828640000000 1.0
C      1  0.5824830000000  0.4805430000000  0.4867710000000 1.0
C      1  0.5074870000000  0.4153260000000  0.4876980000000 1.0
C      1  0.4212860000000  0.4666560000000  0.5124630000000 1.0
C      1  0.4456480000000  0.5624900000000  0.5201310000000 1.0
C      1  0.5441540000000  0.5730890000000  0.5129570000000 1.0
C      1  0.5820710000000  0.4813240000000  0.5169180000000 1.0
C      1  0.5067840000000  0.4164450000000  0.5178390000000 1.0
C      1  0.5262360000000  0.5115490000000  0.4799590000000 1.0
C      1  0.5192140000000  0.4784960000000  0.4800980000000 1.0
C      1  0.4855840000000  0.4752300000000  0.4799640000000 1.0
C      1  0.4719410000000  0.5061150000000  0.4800140000000 1.0
C      1  0.4970990000000  0.5286290000000  0.4800710000000 1.0
C      1  0.5263740000000  0.5116270000000  0.5219450000000 1.0
C      1  0.5190850000000  0.4786290000000  0.5220840000000 1.0
C      1  0.4854840000000  0.4751340000000  0.5219500000000 1.0
C      1  0.4719330000000  0.5060630000000  0.5220010000000 1.0
C      1  0.4971310000000  0.5285280000000  0.5220580000000 1.0
C      1  0.4382930000000  0.5343700000000  0.5243480000000 1.0
C      1  0.5157700000000  0.5721290000000  0.5203280000000 1.0
C      1  0.5719650000000  0.5083860000000  0.5221590000000 1.0
C      1  0.5291480000000  0.4346170000000  0.5234060000000 1.0
C      1  0.4447120000000  0.4504560000000  0.5195520000000 1.0
C      1  0.4358440000000  0.5375180000000  0.4825420000000 1.0
C      1  0.5136250000000  0.5699590000000  0.4784440000000 1.0
C      1  0.5724500000000  0.5073130000000  0.4801800000000 1.0
C      1  0.5301720000000  0.4328790000000  0.4814590000000 1.0
C      1  0.4478280000000  0.4522250000000  0.4777100000000 1.0
C      1  0.5420340000000  0.4909520000000  0.5642760000000 1.0
C      1  0.5042650000000  0.4572750000000  0.5642990000000 1.0
C      1  0.4605160000000  0.4825690000000  0.5641800000000 1.0
C      1  0.4713900000000  0.5319460000000  0.5643260000000 1.0
C      1  0.5217050000000  0.5371980000000  0.5642430000000 1.0
C      1  0.5420480000000  0.4908610000000  0.4377740000000 1.0
C      1  0.5044230000000  0.4571520000000  0.4377970000000 1.0
C      1  0.4607820000000  0.4827360000000  0.4376810000000 1.0
C      1  0.4712930000000  0.5321930000000  0.4378270000000 1.0
C      1  0.5215840000000  0.5371430000000  0.4377420000000 1.0
C      1  0.4662060000000  0.4189370000000  0.4574880000000 1.0
C      1  0.4169770000000  0.5103460000000  0.4543150000000 1.0
C      1  0.4786970000000  0.5878750000000  0.4603170000000 1.0
C      1  0.5722650000000  0.5414370000000  0.4537640000000 1.0
C      1  0.5658510000000  0.4413370000000  0.4581750000000 1.0
C      1  0.4642210000000  0.4220420000000  0.5459510000000 1.0
C      1  0.4106410000000  0.5067360000000  0.5426400000000 1.0
C      1  0.4840810000000  0.5811180000000  0.5485800000000 1.0
C      1  0.5770020000000  0.5466300000000  0.5421330000000 1.0
C      1  0.5641980000000  0.4435840000000  0.5466790000000 1.0
C      1  0.5622290000000  0.4604880000000  0.5232120000000 1.0
C      1  0.4806120000000  0.4289430000000  0.5230630000000 1.0
C      1  0.4244820000000  0.4949380000000  0.5200680000000 1.0
C      1  0.4742970000000  0.5674250000000  0.5249820000000 1.0
C      1  0.5584220000000  0.5482780000000  0.5199440000000 1.0
C      1  0.5629080000000  0.4593830000000  0.4806670000000 1.0
C      1  0.4816030000000  0.4274240000000  0.4805370000000 1.0
C      1  0.4274760000000  0.4966580000000  0.4776060000000 1.0
C      1  0.4718060000000  0.5705960000000  0.4825470000000 1.0
C      1  0.5561900000000  0.5459390000000  0.4774620000000 1.0
C      1  0.5373830000000  0.4577940000000  0.5013800000000 1.0
C      1  0.4945150000000  0.5560780000000  0.5012730000000 1.0
C      1  0.5516750000000  0.5225620000000  0.5006650000000 1.0
C      1  0.4449910000000  0.5121600000000  0.5009770000000 1.0
C      1  0.4714060000000  0.4514470000000  0.5007800000000 1.0
END
