TITL C-862506-1665-952 4.89028673771344e-05 125000 -336.986958499525 0 0 59 (C3) n - 1
REM
REM in /home/nfs/bkarasulu/CARBON/AIRSS/Generating-Clusters/TERSOFF/Higher-Symm/FIRE-HFTN
REM
REM
REM
REM
REM
REM ./C.cell (b20cbc046b6831c77cfcea5457e17084)
REM AIRSS Version 0.9.1 bugfix July 2018 build 013d7b7c2542+ Fri, 06 Jul 2018 19:26:36 +0100
REM compiler GCC version 9.2.1 20190827 (Red Hat 9.2.1-1)
REM options -cpp -mtune=generic -march=x86-64 -g -O0 -fpre-include=/usr/include/finclude/math-vector-fortran.h
REM seed 565614626 -256218453 -1051328071 -40067446 2051066044 585739169 343016064 -1524730335 -595545063 -588312206 1235293338 1784077115 -260303353 1561654477 1040528193 -589698702 -706166821 -925476014 146571786 -746935075 1062908643 1221157491 370348455 -1638288697 1679495301 73794041 1688228615 -121577360 665651622 912473178 1969912062 -363079014 -199386735
REM
CELL 1.54180   50.00000   50.00000   50.00000   90.00000   90.00000   90.00000
LATT -1
SFAC C  
C      1  0.4783520000000  0.5692940000000  0.5327840000000 1.0
C      1  0.4783520000000  0.4376760000000  0.5447200000000 1.0
C      1  0.4783520000000  0.4931480000000  0.4247670000000 1.0
C      1  0.4727810000000  0.5478580000000  0.5559910000000 1.0
C      1  0.4727810000000  0.4282970000000  0.5145530000000 1.0
C      1  0.4727810000000  0.5239640000000  0.4317280000000 1.0
C      1  0.5057310000000  0.4818340000000  0.4217100000000 1.0
C      1  0.5057310000000  0.5775990000000  0.5245140000000 1.0
C      1  0.5057310000000  0.4406860000000  0.5560470000000 1.0
C      1  0.5247640000000  0.4792530000000  0.4465940000000 1.0
C      1  0.5247640000000  0.5573390000000  0.5098370000000 1.0
C      1  0.5247640000000  0.4635260000000  0.5458400000000 1.0
C      1  0.5166050000000  0.4914830000000  0.5490880000000 1.0
C      1  0.5166050000000  0.4624620000000  0.4691810000000 1.0
C      1  0.5166060000000  0.5461740000000  0.4840020000000 1.0
C      1  0.4568220000000  0.5642620000000  0.5108930000000 1.0
C      1  0.4568220000000  0.4591500000000  0.5513070000000 1.0
C      1  0.4568220000000  0.4767070000000  0.4400710000000 1.0
C      1  0.5244490000000  0.5373680000000  0.5571060000000 1.0
C      1  0.5244480000000  0.4325750000000  0.5049100000000 1.0
C      1  0.5244490000000  0.5301750000000  0.4402550000000 1.0
C      1  0.4607180000000  0.5143640000000  0.5328460000000 1.0
C      1  0.4607180000000  0.4650880000000  0.4971180000000 1.0
C      1  0.4607180000000  0.5206670000000  0.4723080000000 1.0
C      1  0.4444840000000  0.5346890000000  0.5489010000000 1.0
C      1  0.4444840000000  0.4410210000000  0.5066920000000 1.0
C      1  0.4444840000000  0.5244090000000  0.4466780000000 1.0
C      1  0.4804450000000  0.4983770000000  0.4671960000000 1.0
C      1  0.4804450000000  0.5299360000000  0.5160980000000 1.0
C      1  0.4804450000000  0.4718060000000  0.5189780000000 1.0
C      1  0.5208340000000  0.5090130000000  0.5263420000000 1.0
C      1  0.5208340000000  0.4733950000000  0.4957360000000 1.0
C      1  0.5208340000000  0.5177100000000  0.4801930000000 1.0
C      1  0.4948370000000  0.5418070000000  0.4428210000000 1.0
C      1  0.4948370000000  0.5293300000000  0.5658970000000 1.0
C      1  0.4948370000000  0.4289820000000  0.4935530000000 1.0
C      1  0.4919400000000  0.5547770000000  0.4707480000000 1.0
C      1  0.4919400000000  0.4986590000000  0.5631650000000 1.0
C      1  0.4919400000000  0.4466830000000  0.4683580000000 1.0
C      1  0.4699000000000  0.4677350000000  0.4682890000000 1.0
C      1  0.4699000000000  0.5443100000000  0.4890150000000 1.0
C      1  0.4699000000000  0.4880740000000  0.5449670000000 1.0
C      1  0.5641500000000  0.5268760000000  0.4883030000000 1.0
C      1  0.5641500000000  0.4974070000000  0.5302250000000 1.0
C      1  0.5641500000000  0.4758350000000  0.4837430000000 1.0
C      1  0.5527300000000  0.4673310000000  0.5327060000000 1.0
C      1  0.5527300000000  0.4887250000000  0.4564560000000 1.0
C      1  0.5527300000000  0.5440620000000  0.5131090000000 1.0
C      1  0.5093350000000  0.5358540000000  0.5270340000000 1.0
C      1  0.5093350000000  0.4593750000000  0.5186350000000 1.0
C      1  0.5093350000000  0.5048890000000  0.4566020000000 1.0
C      1  0.5550540000000  0.5205130000000  0.4562440000000 1.0
C      1  0.5550540000000  0.5283520000000  0.5407450000000 1.0
C      1  0.5550540000000  0.4512530000000  0.5052830000000 1.0
C      1  0.4342080000000  0.4963220000000  0.4418160000000 1.0
C      1  0.4342080000000  0.5529430000000  0.5270080000000 1.0
C      1  0.4342080000000  0.4508540000000  0.5334470000000 1.0
C      1  0.5704550000000  0.5000390000000  0.5007570000000 1.0
C      1  0.5276700000000  0.5000400000000  0.5007570000000 1.0
END
