TITL C-862127-1500-391 0.345874590371826 125000 -1084.7053952403 0 0 181 (C1) n - 1
REM
REM in /home/nfs/bkarasulu/CARBON/AIRSS/Generating-Clusters/TERSOFF/Higher-Symm/FIRE-HFTN
REM
REM
REM
REM
REM
REM ./C.cell (b20cbc046b6831c77cfcea5457e17084)
REM AIRSS Version 0.9.1 bugfix July 2018 build 013d7b7c2542+ Fri, 06 Jul 2018 19:26:36 +0100
REM compiler GCC version 9.2.1 20190827 (Red Hat 9.2.1-1)
REM options -cpp -mtune=generic -march=x86-64 -g -O0 -fpre-include=/usr/include/finclude/math-vector-fortran.h
REM seed -832454571 -2103106806 -964326226 -555021193 188364551 -120357388 -1672366144 1547791370 1909415198 -1140763437 -881793773 243803487 189477778 -775103309 -1571825726 2066813707 -1855966406 669103543 80499668 175542184 780672355 1735827099 -1422178435 605590547 -1547613081 -1174079236 1787456891 -1915435289 1934138285 292346702 1235319352 948825765 1231977532
REM
CELL 1.54180   50.00000   50.00000   50.00000   90.00000   90.00000   90.00000
LATT -1
SFAC C  
C      1  0.4224900000000  0.5655490000000  0.4522730000000 1.0
C      1  0.5259300000000  0.3896340000000  0.4990560000000 1.0
C      1  0.5713390000000  0.5792190000000  0.5271600000000 1.0
C      1  0.6075740000000  0.5227210000000  0.4904660000000 1.0
C      1  0.4293540000000  0.4265590000000  0.4748300000000 1.0
C      1  0.5325510000000  0.5076020000000  0.5116070000000 1.0
C      1  0.4925730000000  0.5982910000000  0.4304330000000 1.0
C      1  0.5231960000000  0.5545930000000  0.4636830000000 1.0
C      1  0.4874470000000  0.4041220000000  0.4660190000000 1.0
C      1  0.5606870000000  0.4533450000000  0.4023360000000 1.0
C      1  0.5145680000000  0.4099140000000  0.4093680000000 1.0
C      1  0.5415840000000  0.5685550000000  0.5245670000000 1.0
C      1  0.5544920000000  0.5185750000000  0.4505460000000 1.0
C      1  0.4762960000000  0.4815050000000  0.3837340000000 1.0
C      1  0.5367110000000  0.5571600000000  0.5517590000000 1.0
C      1  0.5094650000000  0.5729240000000  0.4834040000000 1.0
C      1  0.3762080000000  0.5496630000000  0.4948490000000 1.0
C      1  0.5349110000000  0.5967370000000  0.4599790000000 1.0
C      1  0.5125460000000  0.5740160000000  0.3905260000000 1.0
C      1  0.4344030000000  0.4951540000000  0.4723210000000 1.0
C      1  0.4765770000000  0.5042300000000  0.4020970000000 1.0
C      1  0.4494450000000  0.5167000000000  0.4047220000000 1.0
C      1  0.5046930000000  0.3841890000000  0.4793530000000 1.0
C      1  0.5296000000000  0.4640560000000  0.5317650000000 1.0
C      1  0.5589800000000  0.5381390000000  0.4945250000000 1.0
C      1  0.5206040000000  0.5314130000000  0.4142320000000 1.0
C      1  0.4812210000000  0.4846680000000  0.5664140000000 1.0
C      1  0.5116840000000  0.5802540000000  0.4199090000000 1.0
C      1  0.5525810000000  0.4665620000000  0.6052570000000 1.0
C      1  0.4279320000000  0.4982740000000  0.4097670000000 1.0
C      1  0.5767900000000  0.4313520000000  0.5404870000000 1.0
C      1  0.4651010000000  0.5874880000000  0.4275070000000 1.0
C      1  0.4785350000000  0.4693800000000  0.5912360000000 1.0
C      1  0.5388340000000  0.4161070000000  0.4249710000000 1.0
C      1  0.5172000000000  0.4901500000000  0.5297470000000 1.0
C      1  0.4743520000000  0.5121460000000  0.4521910000000 1.0
C      1  0.6014300000000  0.4143910000000  0.4892760000000 1.0
C      1  0.5424700000000  0.4515560000000  0.5094550000000 1.0
C      1  0.4014840000000  0.4315650000000  0.4817170000000 1.0
C      1  0.5186050000000  0.3877660000000  0.5279650000000 1.0
C      1  0.4797000000000  0.4079560000000  0.5602550000000 1.0
C      1  0.3971690000000  0.5604680000000  0.5125300000000 1.0
C      1  0.4508510000000  0.4184560000000  0.5490340000000 1.0
C      1  0.4529990000000  0.6034670000000  0.5250710000000 1.0
C      1  0.5164290000000  0.4984900000000  0.4648760000000 1.0
C      1  0.4298310000000  0.4579610000000  0.4373030000000 1.0
C      1  0.5763430000000  0.4564760000000  0.5871240000000 1.0
C      1  0.4506480000000  0.5410780000000  0.4205020000000 1.0
C      1  0.5422960000000  0.5341680000000  0.4718610000000 1.0
C      1  0.4495910000000  0.5825720000000  0.4530190000000 1.0
C      1  0.4958900000000  0.5270170000000  0.3973890000000 1.0
C      1  0.5569660000000  0.5135320000000  0.6292910000000 1.0
C      1  0.6239660000000  0.4558350000000  0.4691790000000 1.0
C      1  0.4804050000000  0.4888530000000  0.4925400000000 1.0
C      1  0.5082130000000  0.4967190000000  0.6208310000000 1.0
C      1  0.5724300000000  0.4143580000000  0.4946060000000 1.0
C      1  0.5533880000000  0.4708680000000  0.4737940000000 1.0
C      1  0.4820230000000  0.5588760000000  0.5182000000000 1.0
C      1  0.5138370000000  0.5214440000000  0.5759750000000 1.0
C      1  0.5242200000000  0.4535720000000  0.6023610000000 1.0
C      1  0.4867080000000  0.5559070000000  0.3907680000000 1.0
C      1  0.4512480000000  0.4230240000000  0.4963390000000 1.0
C      1  0.4563930000000  0.5984590000000  0.4777470000000 1.0
C      1  0.5672180000000  0.5317280000000  0.4285230000000 1.0
C      1  0.5003910000000  0.4738630000000  0.3695750000000 1.0
C      1  0.5952780000000  0.4737660000000  0.5638180000000 1.0
C      1  0.4316680000000  0.3795640000000  0.5184520000000 1.0
C      1  0.5377470000000  0.4944160000000  0.4844580000000 1.0
C      1  0.4978880000000  0.5652190000000  0.5813810000000 1.0
C      1  0.5327850000000  0.4016130000000  0.5500470000000 1.0
C      1  0.4301920000000  0.4252290000000  0.5687580000000 1.0
C      1  0.6186960000000  0.4564880000000  0.5175870000000 1.0
C      1  0.5263810000000  0.6093460000000  0.5707950000000 1.0
C      1  0.5873690000000  0.6217390000000  0.4844600000000 1.0
C      1  0.5508050000000  0.4426390000000  0.4273030000000 1.0
C      1  0.4883060000000  0.5412010000000  0.5407180000000 1.0
C      1  0.4719230000000  0.4342070000000  0.3961240000000 1.0
C      1  0.4131720000000  0.5839780000000  0.5034460000000 1.0
C      1  0.5161760000000  0.4508120000000  0.3773350000000 1.0
C      1  0.5056590000000  0.6039010000000  0.5257650000000 1.0
C      1  0.5523310000000  0.4957470000000  0.6057140000000 1.0
C      1  0.3830060000000  0.5045310000000  0.4699420000000 1.0
C      1  0.3787960000000  0.4755130000000  0.4695460000000 1.0
C      1  0.5193380000000  0.5820040000000  0.5100930000000 1.0
C      1  0.5645060000000  0.4335900000000  0.5136900000000 1.0
C      1  0.5659590000000  0.5398390000000  0.6177850000000 1.0
C      1  0.5668960000000  0.5381040000000  0.5876530000000 1.0
C      1  0.5587600000000  0.5766120000000  0.4477820000000 1.0
C      1  0.4043310000000  0.5086130000000  0.4241410000000 1.0
C      1  0.4032440000000  0.5463070000000  0.5378730000000 1.0
C      1  0.6092770000000  0.5054200000000  0.4664400000000 1.0
C      1  0.4770340000000  0.5996710000000  0.5694690000000 1.0
C      1  0.6191330000000  0.5092400000000  0.5154840000000 1.0
C      1  0.5367950000000  0.4544620000000  0.5571570000000 1.0
C      1  0.4188540000000  0.4763410000000  0.4569510000000 1.0
C      1  0.4558140000000  0.5315750000000  0.5780190000000 1.0
C      1  0.4522660000000  0.4116810000000  0.4310200000000 1.0
C      1  0.4302090000000  0.4738580000000  0.5588130000000 1.0
C      1  0.4281310000000  0.5114840000000  0.5125700000000 1.0
C      1  0.3851280000000  0.4712190000000  0.5364040000000 1.0
C      1  0.6145220000000  0.5179120000000  0.5427970000000 1.0
C      1  0.4587550000000  0.4602010000000  0.3936520000000 1.0
C      1  0.4973610000000  0.3622140000000  0.4105510000000 1.0
C      1  0.3979640000000  0.5573710000000  0.5643140000000 1.0
C      1  0.4870400000000  0.5415330000000  0.6143030000000 1.0
C      1  0.4492290000000  0.4360290000000  0.5252400000000 1.0
C      1  0.4434580000000  0.5858710000000  0.5030040000000 1.0
C      1  0.5452370000000  0.4524630000000  0.3780810000000 1.0
C      1  0.5118950000000  0.4158960000000  0.5674470000000 1.0
C      1  0.5909310000000  0.5736160000000  0.5065550000000 1.0
C      1  0.4199720000000  0.5032600000000  0.5619070000000 1.0
C      1  0.4354490000000  0.4690490000000  0.4107130000000 1.0
C      1  0.5546090000000  0.3913320000000  0.4899370000000 1.0
C      1  0.4285510000000  0.5222070000000  0.5837150000000 1.0
C      1  0.4772930000000  0.4931160000000  0.4312600000000 1.0
C      1  0.6034100000000  0.4765470000000  0.4663340000000 1.0
C      1  0.4280990000000  0.4815630000000  0.5115550000000 1.0
C      1  0.4674490000000  0.5251730000000  0.5523900000000 1.0
C      1  0.4628910000000  0.5646010000000  0.4078860000000 1.0
C      1  0.5960240000000  0.5941240000000  0.4839590000000 1.0
C      1  0.4446230000000  0.4665230000000  0.5321590000000 1.0
C      1  0.5629710000000  0.4470240000000  0.5617400000000 1.0
C      1  0.3908510000000  0.4575770000000  0.4887970000000 1.0
C      1  0.6135190000000  0.4985780000000  0.5647240000000 1.0
C      1  0.5598840000000  0.5096560000000  0.5809960000000 1.0
C      1  0.4779870000000  0.6005190000000  0.5394450000000 1.0
C      1  0.4213840000000  0.5374990000000  0.4650040000000 1.0
C      1  0.5630950000000  0.4049980000000  0.5521320000000 1.0
C      1  0.5193690000000  0.5334100000000  0.5076310000000 1.0
C      1  0.5012540000000  0.4303410000000  0.3928660000000 1.0
C      1  0.5180520000000  0.4797130000000  0.4424400000000 1.0
C      1  0.4901330000000  0.3876310000000  0.5376540000000 1.0
C      1  0.5793730000000  0.3844060000000  0.5646160000000 1.0
C      1  0.5802220000000  0.4661390000000  0.4808130000000 1.0
C      1  0.4703690000000  0.4201140000000  0.5885660000000 1.0
C      1  0.4010860000000  0.4699650000000  0.5121480000000 1.0
C      1  0.4611270000000  0.5581430000000  0.4669790000000 1.0
C      1  0.6191510000000  0.4383250000000  0.4926720000000 1.0
C      1  0.4911010000000  0.5089630000000  0.4746210000000 1.0
C      1  0.4597620000000  0.5359160000000  0.4480600000000 1.0
C      1  0.5164780000000  0.5554980000000  0.4350520000000 1.0
C      1  0.6007220000000  0.4517510000000  0.5415930000000 1.0
C      1  0.5039820000000  0.6046760000000  0.4564740000000 1.0
C      1  0.5064270000000  0.5214140000000  0.6056480000000 1.0
C      1  0.4774200000000  0.3988500000000  0.4393780000000 1.0
C      1  0.5037870000000  0.5956380000000  0.5825770000000 1.0
C      1  0.4964630000000  0.3897570000000  0.4195840000000 1.0
C      1  0.4573510000000  0.5566900000000  0.4992070000000 1.0
C      1  0.4090180000000  0.5439970000000  0.5876290000000 1.0
C      1  0.4791240000000  0.4642340000000  0.4394400000000 1.0
C      1  0.3707350000000  0.5211360000000  0.4907900000000 1.0
C      1  0.4846930000000  0.6083590000000  0.4787150000000 1.0
C      1  0.4830740000000  0.4548650000000  0.4680270000000 1.0
C      1  0.5071160000000  0.4977190000000  0.5602840000000 1.0
C      1  0.5015180000000  0.4706300000000  0.6101330000000 1.0
C      1  0.5186440000000  0.4430720000000  0.5751230000000 1.0
C      1  0.4767990000000  0.4278450000000  0.4794920000000 1.0
C      1  0.4319470000000  0.4527220000000  0.5804940000000 1.0
C      1  0.5586000000000  0.5590330000000  0.4210650000000 1.0
C      1  0.4374110000000  0.4313980000000  0.4469510000000 1.0
C      1  0.4035960000000  0.5162290000000  0.4530650000000 1.0
C      1  0.5247270000000  0.6176360000000  0.5433570000000 1.0
C      1  0.5792030000000  0.5764320000000  0.5557380000000 1.0
C      1  0.3988420000000  0.5766660000000  0.4395040000000 1.0
C      1  0.5373850000000  0.5547450000000  0.3986610000000 1.0
C      1  0.4708600000000  0.4777760000000  0.5392500000000 1.0
C      1  0.4156610000000  0.5200000000000  0.5368450000000 1.0
C      1  0.5109280000000  0.5474780000000  0.5610630000000 1.0
C      1  0.4595950000000  0.4476370000000  0.5921900000000 1.0
C      1  0.5404700000000  0.4613260000000  0.4476030000000 1.0
C      1  0.5870200000000  0.5460770000000  0.4909850000000 1.0
C      1  0.6322770000000  0.4827850000000  0.5133990000000 1.0
C      1  0.4686470000000  0.5541160000000  0.5932180000000 1.0
C      1  0.5720660000000  0.4944330000000  0.5594000000000 1.0
C      1  0.4975580000000  0.5330540000000  0.4890070000000 1.0
C      1  0.4511770000000  0.3932070000000  0.5019890000000 1.0
C      1  0.5596410000000  0.5598000000000  0.5700870000000 1.0
C      1  0.4891700000000  0.4846160000000  0.5192810000000 1.0
C      1  0.5836780000000  0.5715930000000  0.4652670000000 1.0
C      1  0.4583980000000  0.5819480000000  0.5838940000000 1.0
C      1  0.4368880000000  0.5323400000000  0.4916800000000 1.0
END
