TITL C-862129-6180-802 -23.4391267976805 125000 -746.816937722514 0 0 133 (D2) n - 1
REM
REM in /home/nfs/bkarasulu/CARBON/AIRSS/Generating-Clusters/TERSOFF/Higher-Symm/FIRE-HFTN
REM
REM
REM
REM
REM
REM ./C.cell (b20cbc046b6831c77cfcea5457e17084)
REM AIRSS Version 0.9.1 bugfix July 2018 build 013d7b7c2542+ Fri, 06 Jul 2018 19:26:36 +0100
REM compiler GCC version 9.2.1 20190827 (Red Hat 9.2.1-1)
REM options -cpp -mtune=generic -march=x86-64 -g -O0 -fpre-include=/usr/include/finclude/math-vector-fortran.h
REM seed -59160029 -1824219248 -272703534 471543265 -1170210485 -1497521679 -1765089888 868322279 -1469669891 630298171 -449115985 -901496668 -1191857059 1971202758 531809406 1493666704 1322562123 -252525636 382985541 1078053567 -239328067 -1206179349 -64198557 -818561808 -1256872520 -943330490 1774324686 -1264422349 -1772002227 -1632438509 -1951145830 1708677047 357919421
REM
CELL 1.54180   50.00000   50.00000   50.00000   90.00000   90.00000   90.00000
LATT -1
SFAC C  
C      1  0.4155760000000  0.4830000000000  0.5686330000000 1.0
C      1  0.5844420000000  0.4829990000000  0.4310220000000 1.0
C      1  0.5844430000000  0.5173640000000  0.5686330000000 1.0
C      1  0.4155760000000  0.5173630000000  0.4310220000000 1.0
C      1  0.4389230000000  0.4939080000000  0.4790360000000 1.0
C      1  0.5610950000000  0.4939090000000  0.5206190000000 1.0
C      1  0.5610950000000  0.5064550000000  0.4790360000000 1.0
C      1  0.4389230000000  0.5064550000000  0.5206190000000 1.0
C      1  0.5902640000000  0.5460280000000  0.4767920000000 1.0
C      1  0.4097540000000  0.5460280000000  0.5228630000000 1.0
C      1  0.4097540000000  0.4543350000000  0.4767930000000 1.0
C      1  0.5902640000000  0.4543350000000  0.5228630000000 1.0
C      1  0.4311720000000  0.5679950000000  0.5228190000000 1.0
C      1  0.5688460000000  0.5679950000000  0.4768360000000 1.0
C      1  0.5688460000000  0.4323680000000  0.5228190000000 1.0
C      1  0.4311720000000  0.4323680000000  0.4768360000000 1.0
C      1  0.5098860000000  0.4491760000000  0.5959720000000 1.0
C      1  0.4901330000000  0.4491760000000  0.4036830000000 1.0
C      1  0.4901330000000  0.5511880000000  0.5959720000000 1.0
C      1  0.5098860000000  0.5511870000000  0.4036830000000 1.0
C      1  0.5428320000000  0.5809540000000  0.5654420000000 1.0
C      1  0.4571860000000  0.5809530000000  0.4342130000000 1.0
C      1  0.4571860000000  0.4194100000000  0.5654430000000 1.0
C      1  0.5428320000000  0.4194100000000  0.4342130000000 1.0
C      1  0.5416740000000  0.5626220000000  0.4646420000000 1.0
C      1  0.4583440000000  0.5626230000000  0.5350130000000 1.0
C      1  0.4583440000000  0.4377410000000  0.4646420000000 1.0
C      1  0.5416740000000  0.4377410000000  0.5350130000000 1.0
C      1  0.5087820000000  0.5432350000000  0.4318910000000 1.0
C      1  0.4912360000000  0.5432360000000  0.5677640000000 1.0
C      1  0.4912360000000  0.4571280000000  0.4318910000000 1.0
C      1  0.5087820000000  0.4571280000000  0.5677640000000 1.0
C      1  0.5259630000000  0.5055670000000  0.3938830000000 1.0
C      1  0.4740550000000  0.5055680000000  0.6057730000000 1.0
C      1  0.4740550000000  0.4947950000000  0.3938830000000 1.0
C      1  0.5259630000000  0.4947960000000  0.6057730000000 1.0
C      1  0.5944290000000  0.5061670000000  0.5144730000000 1.0
C      1  0.4055900000000  0.5061670000000  0.4851830000000 1.0
C      1  0.4055900000000  0.4941960000000  0.5144730000000 1.0
C      1  0.5944290000000  0.4941960000000  0.4851830000000 1.0
C      1  0.4803660000000  0.4646060000000  0.5554460000000 1.0
C      1  0.5196520000000  0.4646050000000  0.4442100000000 1.0
C      1  0.5196520000000  0.5357580000000  0.5554450000000 1.0
C      1  0.4803660000000  0.5357570000000  0.4442100000000 1.0
C      1  0.4032760000000  0.4718870000000  0.4532070000000 1.0
C      1  0.5967420000000  0.4718880000000  0.5464480000000 1.0
C      1  0.5967420000000  0.5284760000000  0.4532070000000 1.0
C      1  0.4032760000000  0.5284760000000  0.5464480000000 1.0
C      1  0.5179430000000  0.4813600000000  0.3784340000000 1.0
C      1  0.4820750000000  0.4813610000000  0.6212220000000 1.0
C      1  0.4820750000000  0.5190020000000  0.3784340000000 1.0
C      1  0.5179430000000  0.5190030000000  0.6212210000000 1.0
C      1  0.4885000000000  0.5790040000000  0.6040270000000 1.0
C      1  0.5115180000000  0.5790030000000  0.3956280000000 1.0
C      1  0.5115190000000  0.4213600000000  0.6040280000000 1.0
C      1  0.4885000000000  0.4213590000000  0.3956280000000 1.0
C      1  0.5258890000000  0.5055160000000  0.5509330000000 1.0
C      1  0.4741300000000  0.5055160000000  0.4487220000000 1.0
C      1  0.4741300000000  0.4948470000000  0.5509330000000 1.0
C      1  0.5258890000000  0.4948470000000  0.4487220000000 1.0
C      1  0.4631770000000  0.4057850000000  0.5170590000000 1.0
C      1  0.5368420000000  0.4057840000000  0.4825970000000 1.0
C      1  0.5368420000000  0.5945790000000  0.5170580000000 1.0
C      1  0.4631770000000  0.5945790000000  0.4825960000000 1.0
C      1  0.4347470000000  0.5371860000000  0.4200540000000 1.0
C      1  0.5652710000000  0.5371870000000  0.5796010000000 1.0
C      1  0.5652710000000  0.4631760000000  0.4200550000000 1.0
C      1  0.4347470000000  0.4631770000000  0.5796010000000 1.0
C      1  0.5121400000000  0.3810340000000  0.4462250000000 1.0
C      1  0.4878780000000  0.3810350000000  0.5534310000000 1.0
C      1  0.4878780000000  0.6193280000000  0.4462240000000 1.0
C      1  0.5121400000000  0.6193290000000  0.5534300000000 1.0
C      1  0.4586880000000  0.4502970000000  0.5093500000000 1.0
C      1  0.5413300000000  0.4502970000000  0.4903060000000 1.0
C      1  0.5413300000000  0.5500660000000  0.5093500000000 1.0
C      1  0.4586880000000  0.5500660000000  0.4903050000000 1.0
C      1  0.5617790000000  0.4237590000000  0.4902530000000 1.0
C      1  0.4382400000000  0.4237590000000  0.5094030000000 1.0
C      1  0.4382400000000  0.5766040000000  0.4902530000000 1.0
C      1  0.5617790000000  0.5766040000000  0.5094020000000 1.0
C      1  0.4644790000000  0.5410300000000  0.5527670000000 1.0
C      1  0.5355400000000  0.5410290000000  0.4468880000000 1.0
C      1  0.5355400000000  0.4593340000000  0.5527670000000 1.0
C      1  0.4644790000000  0.4593340000000  0.4468890000000 1.0
C      1  0.4498320000000  0.5139020000000  0.5486670000000 1.0
C      1  0.5501860000000  0.5139020000000  0.4509880000000 1.0
C      1  0.5501860000000  0.4864610000000  0.5486670000000 1.0
C      1  0.4498320000000  0.4864610000000  0.4509880000000 1.0
C      1  0.4564260000000  0.5514250000000  0.4352040000000 1.0
C      1  0.5435920000000  0.5514260000000  0.5644510000000 1.0
C      1  0.5435920000000  0.4489380000000  0.4352040000000 1.0
C      1  0.4564260000000  0.4489380000000  0.5644510000000 1.0
C      1  0.4858030000000  0.4108800000000  0.4968400000000 1.0
C      1  0.5142160000000  0.4108800000000  0.5028160000000 1.0
C      1  0.5142160000000  0.5894830000000  0.4968390000000 1.0
C      1  0.4858030000000  0.5894830000000  0.5028150000000 1.0
C      1  0.5139490000000  0.4978420000000  0.5776120000000 1.0
C      1  0.4860690000000  0.4978410000000  0.4220430000000 1.0
C      1  0.4860690000000  0.5025220000000  0.5776120000000 1.0
C      1  0.5139490000000  0.5025220000000  0.4220430000000 1.0
C      1  0.4227060000000  0.5101160000000  0.5597250000000 1.0
C      1  0.5773130000000  0.5101160000000  0.4399300000000 1.0
C      1  0.5773130000000  0.4902470000000  0.5597250000000 1.0
C      1  0.4227060000000  0.4902470000000  0.4399310000000 1.0
C      1  0.5584460000000  0.4747230000000  0.4943110000000 1.0
C      1  0.4415730000000  0.4747230000000  0.5053450000000 1.0
C      1  0.4415730000000  0.5256400000000  0.4943110000000 1.0
C      1  0.5584460000000  0.5256400000000  0.5053440000000 1.0
C      1  0.5177120000000  0.5114760000000  0.4774920000000 1.0
C      1  0.4823070000000  0.5114770000000  0.5221630000000 1.0
C      1  0.4823070000000  0.4888870000000  0.4774920000000 1.0
C      1  0.5177120000000  0.4888870000000  0.5221630000000 1.0
C      1  0.4098090000000  0.5363800000000  0.4928030000000 1.0
C      1  0.5902100000000  0.5363800000000  0.5068520000000 1.0
C      1  0.5902100000000  0.4639840000000  0.4928030000000 1.0
C      1  0.4098090000000  0.4639840000000  0.5068520000000 1.0
C      1  0.5305520000000  0.4020100000000  0.4543740000000 1.0
C      1  0.4694660000000  0.4020100000000  0.5452820000000 1.0
C      1  0.4694660000000  0.5983530000000  0.4543730000000 1.0
C      1  0.5305520000000  0.5983540000000  0.5452810000000 1.0
C      1  0.4758870000000  0.5631710000000  0.5119160000000 1.0
C      1  0.5241310000000  0.5631710000000  0.4877380000000 1.0
C      1  0.5241310000000  0.4371920000000  0.5119170000000 1.0
C      1  0.4758870000000  0.4371920000000  0.4877390000000 1.0
C      1  0.5850480000000  0.4386730000000  0.4762690000000 1.0
C      1  0.4149710000000  0.4386730000000  0.5233870000000 1.0
C      1  0.4149700000000  0.5616900000000  0.4762690000000 1.0
C      1  0.5850480000000  0.5616900000000  0.5233860000000 1.0
C      1  0.5092470000000  0.4708080000000  0.6153700000000 1.0
C      1  0.4907720000000  0.4708070000000  0.3842860000000 1.0
C      1  0.4907720000000  0.5295560000000  0.6153700000000 1.0
C      1  0.5092470000000  0.5295550000000  0.3842850000000 1.0
C      1  0.5000090000000  0.5001820000000  0.4998280000000 1.0
END
