TITL C-862130-1496-378 1.1027530634298 125000 -1178.09716151631 0 0 198 (C1) n - 1
REM
REM in /home/nfs/bkarasulu/CARBON/AIRSS/Generating-Clusters/TERSOFF/Higher-Symm/FIRE-HFTN
REM
REM
REM
REM
REM
REM ./C.cell (b20cbc046b6831c77cfcea5457e17084)
REM AIRSS Version 0.9.1 bugfix July 2018 build 013d7b7c2542+ Fri, 06 Jul 2018 19:26:36 +0100
REM compiler GCC version 9.2.1 20190827 (Red Hat 9.2.1-1)
REM options -cpp -mtune=generic -march=x86-64 -g -O0 -fpre-include=/usr/include/finclude/math-vector-fortran.h
REM seed 847652365 828993289 -1860903396 -398543743 -1075342504 596252523 -767108311 522823252 -101621351 1373950903 1088277157 -464098192 423797374 761706831 -1756727591 461505479 -408983783 -755969859 934497400 1604316692 1466294172 1297269938 -199433844 1067370864 -1061356533 898378813 771726404 -980586111 443552588 843299262 -87170404 -1937311261 945396782
REM
CELL 1.54180   50.00000   50.00000   50.00000   90.00000   90.00000   90.00000
LATT -1
SFAC C  
C      1  0.3972750000000  0.5430170000000  0.4722840000000 1.0
C      1  0.6023560000000  0.5429330000000  0.5277470000000 1.0
C      1  0.6022770000000  0.5429800000000  0.4721290000000 1.0
C      1  0.3973470000000  0.5430670000000  0.5278180000000 1.0
C      1  0.5290610000000  0.4764130000000  0.6015140000000 1.0
C      1  0.4713740000000  0.4764850000000  0.3983380000000 1.0
C      1  0.4714780000000  0.4765380000000  0.6016110000000 1.0
C      1  0.5289480000000  0.4764420000000  0.3985300000000 1.0
C      1  0.5343000000000  0.5694530000000  0.6061730000000 1.0
C      1  0.4676930000000  0.5712990000000  0.3910500000000 1.0
C      1  0.4673230000000  0.5719630000000  0.6091230000000 1.0
C      1  0.5345110000000  0.5699880000000  0.3937490000000 1.0
C      1  0.5295720000000  0.4282700000000  0.5938510000000 1.0
C      1  0.4707050000000  0.4282570000000  0.4060580000000 1.0
C      1  0.4708560000000  0.4282720000000  0.5939930000000 1.0
C      1  0.5294240000000  0.4282740000000  0.4060910000000 1.0
C      1  0.5279740000000  0.5689200000000  0.4840800000000 1.0
C      1  0.4691770000000  0.5671800000000  0.5155510000000 1.0
C      1  0.4691740000000  0.5672010000000  0.4844830000000 1.0
C      1  0.5279820000000  0.5689120000000  0.5159520000000 1.0
C      1  0.4660840000000  0.5875560000000  0.5839390000000 1.0
C      1  0.5384770000000  0.5835560000000  0.4195110000000 1.0
C      1  0.5383680000000  0.5833080000000  0.5805770000000 1.0
C      1  0.4661870000000  0.5871540000000  0.4160520000000 1.0
C      1  0.5545810000000  0.5646520000000  0.4728620000000 1.0
C      1  0.4426920000000  0.5628190000000  0.5262950000000 1.0
C      1  0.4426940000000  0.5628450000000  0.4737330000000 1.0
C      1  0.5546000000000  0.5646650000000  0.5271340000000 1.0
C      1  0.4690110000000  0.4798560000000  0.4489460000000 1.0
C      1  0.5312170000000  0.4803470000000  0.5509460000000 1.0
C      1  0.5310830000000  0.4803150000000  0.4490480000000 1.0
C      1  0.4691440000000  0.4798070000000  0.5510500000000 1.0
C      1  0.5933440000000  0.5820700000000  0.4344960000000 1.0
C      1  0.4076690000000  0.5836270000000  0.5649380000000 1.0
C      1  0.4076270000000  0.5835370000000  0.4350880000000 1.0
C      1  0.5934360000000  0.5819930000000  0.5654500000000 1.0
C      1  0.5670360000000  0.4764420000000  0.5545810000000 1.0
C      1  0.4331780000000  0.4763050000000  0.4451160000000 1.0
C      1  0.4333120000000  0.4763690000000  0.5550060000000 1.0
C      1  0.5669020000000  0.4765020000000  0.4452930000000 1.0
C      1  0.4295840000000  0.4317040000000  0.4686350000000 1.0
C      1  0.5703620000000  0.4321010000000  0.5312200000000 1.0
C      1  0.5703240000000  0.4321240000000  0.4686420000000 1.0
C      1  0.4296180000000  0.4317290000000  0.5315000000000 1.0
C      1  0.6137690000000  0.4685650000000  0.4235760000000 1.0
C      1  0.3865150000000  0.4685400000000  0.5765390000000 1.0
C      1  0.3863390000000  0.4684390000000  0.4236570000000 1.0
C      1  0.6139470000000  0.4684710000000  0.5762160000000 1.0
C      1  0.6001380000000  0.4664050000000  0.4852430000000 1.0
C      1  0.3997010000000  0.4659930000000  0.5147920000000 1.0
C      1  0.3996690000000  0.4659660000000  0.4853970000000 1.0
C      1  0.6001710000000  0.4663790000000  0.5145600000000 1.0
C      1  0.5746460000000  0.5593180000000  0.5727920000000 1.0
C      1  0.4253540000000  0.5600300000000  0.4271680000000 1.0
C      1  0.4253300000000  0.5600760000000  0.5728440000000 1.0
C      1  0.5745790000000  0.5593750000000  0.4271820000000 1.0
C      1  0.5282100000000  0.4118170000000  0.5459370000000 1.0
C      1  0.4717270000000  0.4115190000000  0.4539020000000 1.0
C      1  0.4717810000000  0.4115140000000  0.5461470000000 1.0
C      1  0.5281560000000  0.4118060000000  0.4540080000000 1.0
C      1  0.4829020000000  0.5049560000000  0.6084320000000 1.0
C      1  0.5179060000000  0.5048330000000  0.3914600000000 1.0
C      1  0.5179570000000  0.5042660000000  0.6095990000000 1.0
C      1  0.4828500000000  0.5043510000000  0.3904470000000 1.0
C      1  0.5149500000000  0.4749540000000  0.4253990000000 1.0
C      1  0.4853880000000  0.4748570000000  0.5746730000000 1.0
C      1  0.4852290000000  0.4749080000000  0.4253070000000 1.0
C      1  0.5151090000000  0.4750050000000  0.5746150000000 1.0
C      1  0.5173840000000  0.5954490000000  0.5639460000000 1.0
C      1  0.4866890000000  0.5872900000000  0.4375930000000 1.0
C      1  0.4866370000000  0.5871950000000  0.5624640000000 1.0
C      1  0.5174350000000  0.5955990000000  0.4361460000000 1.0
C      1  0.3994610000000  0.4887370000000  0.4416080000000 1.0
C      1  0.6007060000000  0.4887600000000  0.5584060000000 1.0
C      1  0.6005630000000  0.4888420000000  0.4414310000000 1.0
C      1  0.3996010000000  0.4888240000000  0.5585410000000 1.0
C      1  0.5875520000000  0.5225300000000  0.4859690000000 1.0
C      1  0.4116820000000  0.5223290000000  0.5139880000000 1.0
C      1  0.4116430000000  0.5222990000000  0.4861180000000 1.0
C      1  0.5875940000000  0.5225020000000  0.5139100000000 1.0
C      1  0.4254030000000  0.4596260000000  0.5279410000000 1.0
C      1  0.5744050000000  0.4600490000000  0.4723040000000 1.0
C      1  0.5744600000000  0.4600210000000  0.5275410000000 1.0
C      1  0.4253510000000  0.4595960000000  0.4722120000000 1.0
C      1  0.5588660000000  0.4746820000000  0.4122780000000 1.0
C      1  0.4414790000000  0.4745500000000  0.5880360000000 1.0
C      1  0.4413870000000  0.4745660000000  0.4120390000000 1.0
C      1  0.5589660000000  0.4746950000000  0.5876450000000 1.0
C      1  0.4821950000000  0.5890570000000  0.4695020000000 1.0
C      1  0.5137100000000  0.5910930000000  0.5305970000000 1.0
C      1  0.5137260000000  0.5911470000000  0.4694950000000 1.0
C      1  0.4821840000000  0.5890250000000  0.5305590000000 1.0
C      1  0.4457450000000  0.4240790000000  0.4465450000000 1.0
C      1  0.5541760000000  0.4244560000000  0.5532220000000 1.0
C      1  0.5541110000000  0.4244500000000  0.4466730000000 1.0
C      1  0.4458080000000  0.4240740000000  0.5535560000000 1.0
C      1  0.5999890000000  0.5899720000000  0.4629320000000 1.0
C      1  0.4007960000000  0.5906150000000  0.5363410000000 1.0
C      1  0.4007940000000  0.5905530000000  0.4636890000000 1.0
C      1  0.6000250000000  0.5899180000000  0.5370050000000 1.0
C      1  0.4707050000000  0.4513530000000  0.5144190000000 1.0
C      1  0.5285400000000  0.4516990000000  0.4855900000000 1.0
C      1  0.5285260000000  0.4517230000000  0.5143680000000 1.0
C      1  0.4707190000000  0.4513740000000  0.4856120000000 1.0
C      1  0.4422830000000  0.4822710000000  0.5144810000000 1.0
C      1  0.5570300000000  0.4825530000000  0.4855720000000 1.0
C      1  0.5570600000000  0.4825350000000  0.5143340000000 1.0
C      1  0.4422550000000  0.4822540000000  0.4856110000000 1.0
C      1  0.4841060000000  0.4926650000000  0.4713410000000 1.0
C      1  0.5157860000000  0.4931530000000  0.5286650000000 1.0
C      1  0.5156920000000  0.4931620000000  0.4713130000000 1.0
C      1  0.4841960000000  0.4926460000000  0.5286600000000 1.0
C      1  0.5664300000000  0.5080030000000  0.4730330000000 1.0
C      1  0.4325520000000  0.5076070000000  0.5269920000000 1.0
C      1  0.4324980000000  0.5075730000000  0.4731000000000 1.0
C      1  0.5664930000000  0.5079690000000  0.5268710000000 1.0
C      1  0.5485330000000  0.5448360000000  0.6141420000000 1.0
C      1  0.4533200000000  0.5457280000000  0.3862260000000 1.0
C      1  0.4533570000000  0.5461580000000  0.6138600000000 1.0
C      1  0.5484600000000  0.5452190000000  0.3857380000000 1.0
C      1  0.4163860000000  0.4118660000000  0.4854720000000 1.0
C      1  0.5836690000000  0.4123160000000  0.5144860000000 1.0
C      1  0.5837050000000  0.4123640000000  0.4853450000000 1.0
C      1  0.4163420000000  0.4119180000000  0.5146950000000 1.0
C      1  0.3862790000000  0.4863340000000  0.4700670000000 1.0
C      1  0.6136680000000  0.4866520000000  0.5299020000000 1.0
C      1  0.6135900000000  0.4867040000000  0.4699030000000 1.0
C      1  0.3863550000000  0.4863880000000  0.5301160000000 1.0
C      1  0.5263410000000  0.5169430000000  0.4851590000000 1.0
C      1  0.4728790000000  0.5158530000000  0.5147720000000 1.0
C      1  0.4728430000000  0.5158700000000  0.4852660000000 1.0
C      1  0.5263770000000  0.5169420000000  0.5148010000000 1.0
C      1  0.5700110000000  0.5369470000000  0.5953730000000 1.0
C      1  0.4317440000000  0.5382120000000  0.4048330000000 1.0
C      1  0.4317830000000  0.5384270000000  0.5952900000000 1.0
C      1  0.5699180000000  0.5371370000000  0.4045030000000 1.0
C      1  0.5556310000000  0.5196410000000  0.5511020000000 1.0
C      1  0.4429770000000  0.5192440000000  0.4486680000000 1.0
C      1  0.4430320000000  0.5192740000000  0.5514520000000 1.0
C      1  0.5555460000000  0.5196760000000  0.4487910000000 1.0
C      1  0.6030850000000  0.5156200000000  0.5700710000000 1.0
C      1  0.3967670000000  0.5156810000000  0.4299660000000 1.0
C      1  0.3969070000000  0.5157800000000  0.5701660000000 1.0
C      1  0.6029300000000  0.5157110000000  0.4297790000000 1.0
C      1  0.5147130000000  0.4108430000000  0.5738210000000 1.0
C      1  0.4854600000000  0.4107660000000  0.4260820000000 1.0
C      1  0.4855690000000  0.4107720000000  0.5739430000000 1.0
C      1  0.5146040000000  0.4108400000000  0.4261480000000 1.0
C      1  0.5137320000000  0.5428180000000  0.5229260000000 1.0
C      1  0.4843300000000  0.5421090000000  0.4771580000000 1.0
C      1  0.4843560000000  0.5420910000000  0.5228690000000 1.0
C      1  0.5137040000000  0.5428330000000  0.4770730000000 1.0
C      1  0.4854270000000  0.4495140000000  0.6090580000000 1.0
C      1  0.5149460000000  0.4494820000000  0.3909460000000 1.0
C      1  0.5151350000000  0.4494660000000  0.6090350000000 1.0
C      1  0.4852360000000  0.4494780000000  0.3909420000000 1.0
C      1  0.4829740000000  0.5185400000000  0.5779830000000 1.0
C      1  0.5180280000000  0.5185760000000  0.4218480000000 1.0
C      1  0.5127110000000  0.5172820000000  0.5815440000000 1.0
C      1  0.4882760000000  0.5171770000000  0.4185390000000 1.0
C      1  0.3901500000000  0.5391360000000  0.5552700000000 1.0
C      1  0.6094040000000  0.5391010000000  0.4446390000000 1.0
C      1  0.6095430000000  0.5390190000000  0.5552170000000 1.0
C      1  0.3900270000000  0.5390490000000  0.4448490000000 1.0
C      1  0.6044100000000  0.5695050000000  0.4842090000000 1.0
C      1  0.3958150000000  0.5696530000000  0.5157450000000 1.0
C      1  0.3957870000000  0.5696260000000  0.4843130000000 1.0
C      1  0.6044470000000  0.5694780000000  0.5157050000000 1.0
C      1  0.6270010000000  0.5080020000000  0.5146460000000 1.0
C      1  0.3724060000000  0.5073530000000  0.4853370000000 1.0
C      1  0.3724470000000  0.5073820000000  0.5148450000000 1.0
C      1  0.6269580000000  0.5080310000000  0.4851590000000 1.0
C      1  0.5139950000000  0.4331620000000  0.5307450000000 1.0
C      1  0.4855830000000  0.4330070000000  0.4692010000000 1.0
C      1  0.4856030000000  0.4330030000000  0.5308180000000 1.0
C      1  0.5139750000000  0.4331530000000  0.4692300000000 1.0
C      1  0.5546800000000  0.4395150000000  0.5807910000000 1.0
C      1  0.4454510000000  0.4393740000000  0.4189770000000 1.0
C      1  0.4455680000000  0.4393590000000  0.5811240000000 1.0
C      1  0.5545600000000  0.4395010000000  0.4191050000000 1.0
C      1  0.5595750000000  0.5488550000000  0.5505080000000 1.0
C      1  0.4382760000000  0.5480700000000  0.4499390000000 1.0
C      1  0.4382660000000  0.5480870000000  0.5501150000000 1.0
C      1  0.5595150000000  0.5488860000000  0.4494420000000 1.0
C      1  0.4707450000000  0.3879360000000  0.4734210000000 1.0
C      1  0.5293090000000  0.3882050000000  0.5265310000000 1.0
C      1  0.5292750000000  0.3881960000000  0.4734200000000 1.0
C      1  0.4707790000000  0.3879290000000  0.5266250000000 1.0
C      1  0.5625910000000  0.5097860000000  0.5795440000000 1.0
C      1  0.4371020000000  0.5096050000000  0.4199860000000 1.0
C      1  0.4372190000000  0.5096270000000  0.5801950000000 1.0
C      1  0.5624510000000  0.5098110000000  0.4202850000000 1.0
C      1  0.4677500000000  0.5234150000000  0.3741540000000 1.0
C      1  0.5333920000000  0.5229260000000  0.6260630000000 1.0
C      1  0.5329050000000  0.5233720000000  0.3742440000000 1.0
C      1  0.4682820000000  0.5239350000000  0.6254810000000 1.0
C      1  0.5147860000000  0.3869960000000  0.4999880000000 1.0
C      1  0.4852820000000  0.3868930000000  0.5000110000000 1.0
END
