TITL C-862505-1648-279 -2.30156573781035e-05 125000 -156.307323576528 0 0 31 (S4) n - 1
REM
REM in /home/nfs/bkarasulu/CARBON/AIRSS/Generating-Clusters/TERSOFF/Higher-Symm/FIRE-HFTN
REM
REM
REM
REM
REM
REM ./C.cell (b20cbc046b6831c77cfcea5457e17084)
REM AIRSS Version 0.9.1 bugfix July 2018 build 013d7b7c2542+ Fri, 06 Jul 2018 19:26:36 +0100
REM compiler GCC version 9.2.1 20190827 (Red Hat 9.2.1-1)
REM options -cpp -mtune=generic -march=x86-64 -g -O0 -fpre-include=/usr/include/finclude/math-vector-fortran.h
REM seed 1768914721 -1921161255 1324589556 -1502393613 -840251009 -562510602 -785274519 -1897704511 592311058 1552606826 -125245991 -1758731933 1172208558 1988735577 1676085108 1883128057 -929464125 -264262851 728001163 1774803790 1126826601 -1006235825 -1228627507 106464252 -600143959 1775217535 -1709873737 432849664 -668139395 1724083745 1759615165 -367514004 1273990048
REM
CELL 1.54180   50.00000   50.00000   50.00000   90.00000   90.00000   90.00000
LATT -1
SFAC C  
C      1  0.4856700000000  0.4539970000000  0.4760120000000 1.0
C      1  0.4784900000000  0.5445680000000  0.5149930000000 1.0
C      1  0.5174740000000  0.4539980000000  0.5221710000000 1.0
C      1  0.5246500000000  0.5445680000000  0.4831890000000 1.0
C      1  0.5274770000000  0.4645780000000  0.4703060000000 1.0
C      1  0.4727850000000  0.5339870000000  0.4731860000000 1.0
C      1  0.4756660000000  0.4645770000000  0.5278770000000 1.0
C      1  0.5303560000000  0.5339880000000  0.5249970000000 1.0
C      1  0.4510520000000  0.4769050000000  0.5197020000000 1.0
C      1  0.5221810000000  0.5216600000000  0.5496100000000 1.0
C      1  0.5520900000000  0.4769060000000  0.4784810000000 1.0
C      1  0.4809600000000  0.5216590000000  0.4485730000000 1.0
C      1  0.4751410000000  0.5174880000000  0.4993860000000 1.0
C      1  0.5018660000000  0.4810760000000  0.5255210000000 1.0
C      1  0.5280000000000  0.5174890000000  0.4987970000000 1.0
C      1  0.5012770000000  0.4810760000000  0.4726620000000 1.0
C      1  0.5289490000000  0.5644600000000  0.5198810000000 1.0
C      1  0.5223610000000  0.4341060000000  0.4717130000000 1.0
C      1  0.4741910000000  0.5644590000000  0.4783020000000 1.0
C      1  0.4807830000000  0.4341050000000  0.5264700000000 1.0
C      1  0.5089810000000  0.4961830000000  0.5499930000000 1.0
C      1  0.5524720000000  0.5023840000000  0.4916810000000 1.0
C      1  0.4941610000000  0.4961820000000  0.4481900000000 1.0
C      1  0.4506700000000  0.5023820000000  0.5065020000000 1.0
C      1  0.4949020000000  0.4323510000000  0.4534580000000 1.0
C      1  0.4559360000000  0.5662130000000  0.5057610000000 1.0
C      1  0.5082420000000  0.4323510000000  0.5447250000000 1.0
C      1  0.5472030000000  0.5662150000000  0.4924220000000 1.0
C      1  0.5015720000000  0.4364410000000  0.4990920000000 1.0
C      1  0.5015700000000  0.5621240000000  0.4990910000000 1.0
C      1  0.5015710000000  0.4992830000000  0.4990910000000 1.0
END
