TITL C-862504-1170-38 -0.0190185890799356 125000 -577.868774070648 0 0 101 (C3) n - 1
REM
REM in /home/nfs/bkarasulu/CARBON/AIRSS/Generating-Clusters/TERSOFF/Higher-Symm/FIRE-HFTN
REM
REM
REM
REM
REM
REM ./C.cell (b20cbc046b6831c77cfcea5457e17084)
REM AIRSS Version 0.9.1 bugfix July 2018 build 013d7b7c2542+ Fri, 06 Jul 2018 19:26:36 +0100
REM compiler GCC version 9.2.1 20190827 (Red Hat 9.2.1-1)
REM options -cpp -mtune=generic -march=x86-64 -g -O0 -fpre-include=/usr/include/finclude/math-vector-fortran.h
REM seed 1357591562 -1751090794 -533795767 -1818122788 2141329430 -1032950338 -1458323339 -1727568039 -1816014557 780050000 1541934183 46436938 1284304919 -1699169059 1067991897 2129371258 529096608 330758452 1758608000 -1074938836 -376380492 1324658425 1660233102 -1143923299 1779641554 -1253239108 -327621090 -1478773768 101424218 1193525791 -93123288 -1352213063 461353907
REM
CELL 1.54180   50.00000   50.00000   50.00000   90.00000   90.00000   90.00000
LATT -1
SFAC C  
C      1  0.5606740000000  0.5194520000000  0.4618690000000 1.0
C      1  0.5019950000000  0.5194520000000  0.5713790000000 1.0
C      1  0.4364960000000  0.5194520000000  0.4658070000000 1.0
C      1  0.5395380000000  0.5711340000000  0.5582240000000 1.0
C      1  0.4291170000000  0.5711340000000  0.5048970000000 1.0
C      1  0.5305100000000  0.5711340000000  0.4359330000000 1.0
C      1  0.4971410000000  0.4728980000000  0.4499280000000 1.0
C      1  0.5441030000000  0.4728980000000  0.5223280000000 1.0
C      1  0.4579220000000  0.4728980000000  0.5267980000000 1.0
C      1  0.4938760000000  0.5509840000000  0.5667400000000 1.0
C      1  0.4445730000000  0.5509840000000  0.4610940000000 1.0
C      1  0.5607170000000  0.5509840000000  0.4712200000000 1.0
C      1  0.4169990000000  0.5042710000000  0.5422820000000 1.0
C      1  0.5041930000000  0.5042710000000  0.4067460000000 1.0
C      1  0.5779730000000  0.5042710000000  0.5500260000000 1.0
C      1  0.5119420000000  0.4687030000000  0.5153700000000 1.0
C      1  0.4800280000000  0.4687030000000  0.5024250000000 1.0
C      1  0.5071960000000  0.4687030000000  0.4812590000000 1.0
C      1  0.5669080000000  0.4277410000000  0.5239960000000 1.0
C      1  0.4450750000000  0.4277410000000  0.5457140000000 1.0
C      1  0.4871830000000  0.4277420000000  0.4293440000000 1.0
C      1  0.4920920000000  0.5388010000000  0.4418880000000 1.0
C      1  0.5535900000000  0.5388000000000  0.5219760000000 1.0
C      1  0.4534830000000  0.5388010000000  0.5351900000000 1.0
C      1  0.5546320000000  0.5867620000000  0.5108360000000 1.0
C      1  0.4626100000000  0.5867620000000  0.5416630000000 1.0
C      1  0.4819240000000  0.5867630000000  0.4465560000000 1.0
C      1  0.5453100000000  0.4436530000000  0.5106600000000 1.0
C      1  0.4674230000000  0.4436530000000  0.5336780000000 1.0
C      1  0.4864320000000  0.4436530000000  0.4547160000000 1.0
C      1  0.4482170000000  0.5045490000000  0.4922370000000 1.0
C      1  0.5319240000000  0.5045490000000  0.4588040000000 1.0
C      1  0.5190240000000  0.5045480000000  0.5480130000000 1.0
C      1  0.4301040000000  0.4745440000000  0.5489550000000 1.0
C      1  0.4918620000000  0.4745440000000  0.4147590000000 1.0
C      1  0.5772000000000  0.4745440000000  0.5353400000000 1.0
C      1  0.4515810000000  0.5130130000000  0.5768380000000 1.0
C      1  0.4569760000000  0.5130130000000  0.4194170000000 1.0
C      1  0.5906090000000  0.5130130000000  0.5027990000000 1.0
C      1  0.4759810000000  0.4998660000000  0.5684230000000 1.0
C      1  0.4520640000000  0.4998670000000  0.4447550000000 1.0
C      1  0.5711210000000  0.4998670000000  0.4858760000000 1.0
C      1  0.4481280000000  0.4550950000000  0.5690880000000 1.0
C      1  0.4654130000000  0.4550960000000  0.4203010000000 1.0
C      1  0.5856240000000  0.4550950000000  0.5096650000000 1.0
C      1  0.4315300000000  0.4329290000000  0.5147470000000 1.0
C      1  0.5207730000000  0.4329290000000  0.4330970000000 1.0
C      1  0.5468620000000  0.4329280000000  0.5512090000000 1.0
C      1  0.5101550000000  0.5924170000000  0.4400860000000 1.0
C      1  0.5461200000000  0.5924170000000  0.5385200000000 1.0
C      1  0.4428910000000  0.5924170000000  0.5204490000000 1.0
C      1  0.5374470000000  0.4395840000000  0.4606760000000 1.0
C      1  0.5146410000000  0.4395840000000  0.5518600000000 1.0
C      1  0.4470770000000  0.4395840000000  0.4865180000000 1.0
C      1  0.5547820000000  0.5203410000000  0.5712270000000 1.0
C      1  0.4102340000000  0.5203410000000  0.5115970000000 1.0
C      1  0.5341490000000  0.5203410000000  0.4162300000000 1.0
C      1  0.5439050000000  0.4957590000000  0.5026970000000 1.0
C      1  0.4750210000000  0.4957590000000  0.5364420000000 1.0
C      1  0.4802390000000  0.4957590000000  0.4599140000000 1.0
C      1  0.5616970000000  0.5072230000000  0.4295130000000 1.0
C      1  0.5295050000000  0.5072220000000  0.5884430000000 1.0
C      1  0.4079640000000  0.5072230000000  0.4810980000000 1.0
C      1  0.4162870000000  0.4586650000000  0.5126210000000 1.0
C      1  0.5302360000000  0.4586660000000  0.4209600000000 1.0
C      1  0.5526420000000  0.4586650000000  0.5654730000000 1.0
C      1  0.4717260000000  0.5592930000000  0.4479960000000 1.0
C      1  0.5584840000000  0.5592930000000  0.5012840000000 1.0
C      1  0.4689560000000  0.5592930000000  0.5497750000000 1.0
C      1  0.5623890000000  0.4590920000000  0.4575560000000 1.0
C      1  0.5048730000000  0.4590920000000  0.5750210000000 1.0
C      1  0.4319030000000  0.4590920000000  0.4664780000000 1.0
C      1  0.5411500000000  0.4846620000000  0.5538750000000 1.0
C      1  0.4320780000000  0.4846620000000  0.5084670000000 1.0
C      1  0.5259380000000  0.4846620000000  0.4367120000000 1.0
C      1  0.5549480000000  0.5711170000000  0.4511140000000 1.0
C      1  0.5141730000000  0.5711160000000  0.5717970000000 1.0
C      1  0.4300450000000  0.5711170000000  0.4761440000000 1.0
C      1  0.4770980000000  0.4334070000000  0.4800010000000 1.0
C      1  0.5280810000000  0.4334070000000  0.4899340000000 1.0
C      1  0.4939870000000  0.4334070000000  0.5291190000000 1.0
C      1  0.4302100000000  0.5447810000000  0.5171680000000 1.0
C      1  0.5193370000000  0.5447810000000  0.4307450000000 1.0
C      1  0.5496180000000  0.5447800000000  0.5511420000000 1.0
C      1  0.4942460000000  0.5213070000000  0.4663900000000 1.0
C      1  0.5312940000000  0.5213070000000  0.5115900000000 1.0
C      1  0.4736260000000  0.5213070000000  0.5210740000000 1.0
C      1  0.5795360000000  0.5232610000000  0.5268670000000 1.0
C      1  0.4362750000000  0.5232610000000  0.5552150000000 1.0
C      1  0.4833550000000  0.5232620000000  0.4169730000000 1.0
C      1  0.4764040000000  0.4701170000000  0.5751230000000 1.0
C      1  0.4460500000000  0.4701180000000  0.4417720000000 1.0
C      1  0.5767120000000  0.4701170000000  0.4821600000000 1.0
C      1  0.5251330000000  0.4763580000000  0.5918010000000 1.0
C      1  0.4072410000000  0.4763580000000  0.4756340000000 1.0
C      1  0.5667910000000  0.4763580000000  0.4316200000000 1.0
C      1  0.5024100000000  0.4920960000000  0.5300920000000 1.0
C      1  0.4720440000000  0.4920960000000  0.4868090000000 1.0
C      1  0.5247120000000  0.4920960000000  0.4821530000000 1.0
C      1  0.4997220000000  0.4296690000000  0.4996850000000 1.0
C      1  0.4997220000000  0.5279960000000  0.4996850000000 1.0
END
