TITL C-862506-1665-35 -0.000363185902535485 125000 -922.322382608075 0 0 153 (C1) n - 1
REM
REM in /home/nfs/bkarasulu/CARBON/AIRSS/Generating-Clusters/TERSOFF/Higher-Symm/FIRE-HFTN
REM
REM
REM
REM
REM
REM ./C.cell (b20cbc046b6831c77cfcea5457e17084)
REM AIRSS Version 0.9.1 bugfix July 2018 build 013d7b7c2542+ Fri, 06 Jul 2018 19:26:36 +0100
REM compiler GCC version 9.2.1 20190827 (Red Hat 9.2.1-1)
REM options -cpp -mtune=generic -march=x86-64 -g -O0 -fpre-include=/usr/include/finclude/math-vector-fortran.h
REM seed 1474493002 1598174142 1632876710 422249509 -530535847 263896290 46877913 -1561337626 2037043605 -2119372618 1922173525 -1332553139 -799596603 1593712959 -574431173 -2023496511 -1786953920 9539327 -528631584 943082820 1403761053 820862457 948653197 -1521452369 -1312678498 -668436357 2062852324 14291144 -218578701 522922938 865980618 851325083 1125234572
REM
CELL 1.54180   50.00000   50.00000   50.00000   90.00000   90.00000   90.00000
LATT -1
SFAC C  
C      1  0.4995740000000  0.4205090000000  0.5825770000000 1.0
C      1  0.5036530000000  0.5781790000000  0.5748370000000 1.0
C      1  0.4981200000000  0.4185330000000  0.4109870000000 1.0
C      1  0.4970740000000  0.5768780000000  0.4259090000000 1.0
C      1  0.4215290000000  0.4996730000000  0.5781770000000 1.0
C      1  0.5823300000000  0.5006790000000  0.5873820000000 1.0
C      1  0.4196940000000  0.5005670000000  0.4193810000000 1.0
C      1  0.5764460000000  0.4969330000000  0.4213960000000 1.0
C      1  0.4972390000000  0.5254130000000  0.5593770000000 1.0
C      1  0.5080000000000  0.4794940000000  0.5690710000000 1.0
C      1  0.5028050000000  0.5206020000000  0.4440210000000 1.0
C      1  0.4948390000000  0.4720590000000  0.4287230000000 1.0
C      1  0.5297130000000  0.4982280000000  0.5713910000000 1.0
C      1  0.4772190000000  0.5059750000000  0.5585580000000 1.0
C      1  0.5226520000000  0.5015950000000  0.4407400000000 1.0
C      1  0.4747630000000  0.4926060000000  0.4302600000000 1.0
C      1  0.5416920000000  0.4369910000000  0.5441410000000 1.0
C      1  0.4606360000000  0.5654730000000  0.5402120000000 1.0
C      1  0.4514860000000  0.4306260000000  0.4501690000000 1.0
C      1  0.5387100000000  0.5624770000000  0.4616470000000 1.0
C      1  0.4412370000000  0.5389070000000  0.5379910000000 1.0
C      1  0.5686690000000  0.4556310000000  0.5475100000000 1.0
C      1  0.4303400000000  0.4548360000000  0.4535300000000 1.0
C      1  0.5623390000000  0.5402240000000  0.4613160000000 1.0
C      1  0.5288890000000  0.5461690000000  0.5411820000000 1.0
C      1  0.4775030000000  0.4521920000000  0.5501330000000 1.0
C      1  0.4708310000000  0.5432100000000  0.4591500000000 1.0
C      1  0.5245840000000  0.4491670000000  0.4623470000000 1.0
C      1  0.5498460000000  0.5273150000000  0.5365360000000 1.0
C      1  0.4554420000000  0.4724000000000  0.5455560000000 1.0
C      1  0.5461550000000  0.4679040000000  0.4565980000000 1.0
C      1  0.4482600000000  0.5245290000000  0.4572510000000 1.0
C      1  0.4606180000000  0.4966450000000  0.4543930000000 1.0
C      1  0.5387440000000  0.4949820000000  0.4628910000000 1.0
C      1  0.5468100000000  0.5015440000000  0.5489470000000 1.0
C      1  0.4756650000000  0.4953430000000  0.5275470000000 1.0
C      1  0.4981120000000  0.4548960000000  0.4512550000000 1.0
C      1  0.4961390000000  0.5321480000000  0.4742050000000 1.0
C      1  0.5022740000000  0.5375830000000  0.5320120000000 1.0
C      1  0.4992360000000  0.4714920000000  0.5417660000000 1.0
C      1  0.5353500000000  0.5137520000000  0.5977950000000 1.0
C      1  0.4691730000000  0.4909880000000  0.5843570000000 1.0
C      1  0.4669560000000  0.5113740000000  0.4065900000000 1.0
C      1  0.5299100000000  0.4886820000000  0.4127500000000 1.0
C      1  0.5129770000000  0.5337340000000  0.5862380000000 1.0
C      1  0.4903540000000  0.4695380000000  0.5931340000000 1.0
C      1  0.5101690000000  0.4661200000000  0.4023220000000 1.0
C      1  0.4885420000000  0.5311430000000  0.4182930000000 1.0
C      1  0.4633940000000  0.5182110000000  0.5996700000000 1.0
C      1  0.5407270000000  0.4813080000000  0.6081800000000 1.0
C      1  0.5360530000000  0.5167540000000  0.4000310000000 1.0
C      1  0.4579060000000  0.4821100000000  0.3932860000000 1.0
C      1  0.5187380000000  0.4609130000000  0.6054640000000 1.0
C      1  0.4849860000000  0.5398670000000  0.5999840000000 1.0
C      1  0.5145620000000  0.5380450000000  0.4021700000000 1.0
C      1  0.4787890000000  0.4604700000000  0.3917000000000 1.0
C      1  0.4631750000000  0.4096980000000  0.5491460000000 1.0
C      1  0.5378620000000  0.5935660000000  0.5512050000000 1.0
C      1  0.5323730000000  0.4108550000000  0.4470090000000 1.0
C      1  0.4629110000000  0.5924140000000  0.4497010000000 1.0
C      1  0.4101130000000  0.4632580000000  0.5474340000000 1.0
C      1  0.5889570000000  0.5359350000000  0.5526270000000 1.0
C      1  0.4072900000000  0.5348140000000  0.4487980000000 1.0
C      1  0.5893780000000  0.4638210000000  0.4508700000000 1.0
C      1  0.5025630000000  0.4104780000000  0.4842010000000 1.0
C      1  0.4969410000000  0.5822190000000  0.4861580000000 1.0
C      1  0.4937960000000  0.4093480000000  0.5108790000000 1.0
C      1  0.5024070000000  0.5843590000000  0.5151830000000 1.0
C      1  0.4160580000000  0.5039420000000  0.4858090000000 1.0
C      1  0.5817190000000  0.4997090000000  0.4862890000000 1.0
C      1  0.4232350000000  0.4959000000000  0.5128250000000 1.0
C      1  0.5864790000000  0.5078050000000  0.5136350000000 1.0
C      1  0.3987880000000  0.5027450000000  0.4417530000000 1.0
C      1  0.5981030000000  0.4947530000000  0.4423190000000 1.0
C      1  0.5972230000000  0.5056420000000  0.5602150000000 1.0
C      1  0.4022160000000  0.4946860000000  0.5549970000000 1.0
C      1  0.5026510000000  0.4027890000000  0.4374620000000 1.0
C      1  0.4956600000000  0.6013770000000  0.4436320000000 1.0
C      1  0.5044450000000  0.6026970000000  0.5568580000000 1.0
C      1  0.4946730000000  0.4030220000000  0.5576960000000 1.0
C      1  0.5242320000000  0.4614450000000  0.5298440000000 1.0
C      1  0.4882650000000  0.5619490000000  0.5293770000000 1.0
C      1  0.4732950000000  0.4492370000000  0.4646300000000 1.0
C      1  0.5112570000000  0.5578410000000  0.4750930000000 1.0
C      1  0.4476110000000  0.5105240000000  0.5249100000000 1.0
C      1  0.5499950000000  0.4771080000000  0.5349240000000 1.0
C      1  0.4527730000000  0.4723620000000  0.4672580000000 1.0
C      1  0.5577670000000  0.5128420000000  0.4733980000000 1.0
C      1  0.4209520000000  0.4448750000000  0.4984080000000 1.0
C      1  0.5764460000000  0.5576650000000  0.5031950000000 1.0
C      1  0.5777340000000  0.4485990000000  0.5005660000000 1.0
C      1  0.4247020000000  0.5533980000000  0.4968160000000 1.0
C      1  0.4443290000000  0.4196610000000  0.4972650000000 1.0
C      1  0.5538380000000  0.5811410000000  0.5020230000000 1.0
C      1  0.4455910000000  0.5786780000000  0.4975160000000 1.0
C      1  0.5514390000000  0.4240050000000  0.4994550000000 1.0
C      1  0.5695450000000  0.4465130000000  0.4291160000000 1.0
C      1  0.4261400000000  0.5499690000000  0.4263500000000 1.0
C      1  0.4287600000000  0.4504350000000  0.5695010000000 1.0
C      1  0.5717970000000  0.5474980000000  0.5753600000000 1.0
C      1  0.4482780000000  0.5717910000000  0.4286080000000 1.0
C      1  0.5440290000000  0.4291730000000  0.4255830000000 1.0
C      1  0.4498160000000  0.4286140000000  0.5710420000000 1.0
C      1  0.5527820000000  0.5718040000000  0.5725350000000 1.0
C      1  0.4146620000000  0.5430000000000  0.5243910000000 1.0
C      1  0.5900930000000  0.4582140000000  0.5281920000000 1.0
C      1  0.5882140000000  0.5479300000000  0.4754010000000 1.0
C      1  0.4077540000000  0.4555250000000  0.4715800000000 1.0
C      1  0.5405140000000  0.4140250000000  0.5273070000000 1.0
C      1  0.4536140000000  0.5904720000000  0.5250380000000 1.0
C      1  0.5438440000000  0.5894370000000  0.4741730000000 1.0
C      1  0.4541600000000  0.4083260000000  0.4686980000000 1.0
C      1  0.4559900000000  0.5692560000000  0.5714150000000 1.0
C      1  0.5468350000000  0.4328960000000  0.5752150000000 1.0
C      1  0.5437740000000  0.5656930000000  0.4308880000000 1.0
C      1  0.4493680000000  0.4287080000000  0.4187360000000 1.0
C      1  0.5711290000000  0.4522350000000  0.5788540000000 1.0
C      1  0.4367930000000  0.5455120000000  0.5684360000000 1.0
C      1  0.5656860000000  0.5442830000000  0.4296220000000 1.0
C      1  0.4285660000000  0.4519380000000  0.4221630000000 1.0
C      1  0.5684440000000  0.4756130000000  0.5955730000000 1.0
C      1  0.4357450000000  0.5244420000000  0.5875400000000 1.0
C      1  0.4306850000000  0.4761460000000  0.4065940000000 1.0
C      1  0.5639520000000  0.5220280000000  0.4117550000000 1.0
C      1  0.4793520000000  0.5674820000000  0.5879240000000 1.0
C      1  0.5244170000000  0.4336470000000  0.5928410000000 1.0
C      1  0.4730490000000  0.4324110000000  0.4028190000000 1.0
C      1  0.5212540000000  0.5655060000000  0.4134080000000 1.0
C      1  0.5300890000000  0.4228400000000  0.4764930000000 1.0
C      1  0.4674530000000  0.5826760000000  0.4776920000000 1.0
C      1  0.4657520000000  0.4155790000000  0.5188390000000 1.0
C      1  0.5323980000000  0.5850730000000  0.5227840000000 1.0
C      1  0.4239010000000  0.5311350000000  0.4752860000000 1.0
C      1  0.5813280000000  0.4694970000000  0.4794720000000 1.0
C      1  0.4211830000000  0.4663300000000  0.5196750000000 1.0
C      1  0.5760860000000  0.5350800000000  0.5240180000000 1.0
C      1  0.6006140000000  0.5155990000000  0.4669780000000 1.0
C      1  0.4008870000000  0.4859940000000  0.4683870000000 1.0
C      1  0.4032610000000  0.5129970000000  0.5295890000000 1.0
C      1  0.5974160000000  0.4886640000000  0.5330340000000 1.0
C      1  0.5140740000000  0.6022330000000  0.4695410000000 1.0
C      1  0.4846620000000  0.4011740000000  0.4633120000000 1.0
C      1  0.5124910000000  0.4023510000000  0.5316500000000 1.0
C      1  0.4844040000000  0.6047870000000  0.5309820000000 1.0
C      1  0.5564310000000  0.4752750000000  0.4246010000000 1.0
C      1  0.4402490000000  0.5214900000000  0.4230990000000 1.0
C      1  0.4420590000000  0.4788060000000  0.5746560000000 1.0
C      1  0.5649230000000  0.5244120000000  0.5938570000000 1.0
C      1  0.4759650000000  0.5570210000000  0.4312400000000 1.0
C      1  0.5217170000000  0.4366900000000  0.4060560000000 1.0
C      1  0.4785480000000  0.4413530000000  0.5801040000000 1.0
C      1  0.5252110000000  0.5582320000000  0.5700430000000 1.0
C      1  0.4953550000000  0.5180660000000  0.5074550000000 1.0
END
