TITL C-862128-1543-174 13.6518113129282 125000 -644.726999975579 0 0 114 (C1) n - 1
REM
REM in /home/nfs/bkarasulu/CARBON/AIRSS/Generating-Clusters/TERSOFF/Higher-Symm/FIRE-HFTN
REM
REM
REM
REM
REM
REM ./C.cell (b20cbc046b6831c77cfcea5457e17084)
REM AIRSS Version 0.9.1 bugfix July 2018 build 013d7b7c2542+ Fri, 06 Jul 2018 19:26:36 +0100
REM compiler GCC version 9.2.1 20190827 (Red Hat 9.2.1-1)
REM options -cpp -mtune=generic -march=x86-64 -g -O0 -fpre-include=/usr/include/finclude/math-vector-fortran.h
REM seed 1059181635 -1389103623 372219128 1406593111 528060311 1600280241 -242168683 -1512672162 200131258 1868022927 -501980592 -442810336 1751473948 249920394 -304951766 -876969217 -680702946 624276855 -1491144830 1572328039 -140230027 1112433654 1272765911 1885366719 -1811717334 2014336291 1369186043 -770425121 1632894392 -1870500327 -95019182 -2067811999 325119607
REM
CELL 1.54180   50.00000   50.00000   50.00000   90.00000   90.00000   90.00000
LATT -1
SFAC C  
C      1  0.5644110000000  0.4875430000000  0.5216350000000 1.0
C      1  0.4578330000000  0.4132980000000  0.4794540000000 1.0
C      1  0.5162780000000  0.4554080000000  0.5603790000000 1.0
C      1  0.4526530000000  0.4279900000000  0.5345020000000 1.0
C      1  0.5641090000000  0.5542760000000  0.5519400000000 1.0
C      1  0.5779920000000  0.5079270000000  0.4740930000000 1.0
C      1  0.4154020000000  0.5225070000000  0.4972980000000 1.0
C      1  0.4386440000000  0.5525000000000  0.4488200000000 1.0
C      1  0.5355510000000  0.5761520000000  0.4764870000000 1.0
C      1  0.4164530000000  0.4443170000000  0.4975490000000 1.0
C      1  0.5300880000000  0.4707560000000  0.5808150000000 1.0
C      1  0.5359630000000  0.4035560000000  0.5011300000000 1.0
C      1  0.4909930000000  0.3980500000000  0.4788600000000 1.0
C      1  0.4432450000000  0.5264230000000  0.5048130000000 1.0
C      1  0.4474030000000  0.4436910000000  0.4870270000000 1.0
C      1  0.5398250000000  0.4553980000000  0.4338880000000 1.0
C      1  0.4546150000000  0.5047020000000  0.5237740000000 1.0
C      1  0.5106830000000  0.4872230000000  0.5983330000000 1.0
C      1  0.5562410000000  0.4381140000000  0.5278410000000 1.0
C      1  0.4847720000000  0.5421690000000  0.5830400000000 1.0
C      1  0.5674990000000  0.5236850000000  0.4226380000000 1.0
C      1  0.4876030000000  0.4346790000000  0.4429150000000 1.0
C      1  0.5215320000000  0.6115270000000  0.5125150000000 1.0
C      1  0.4474750000000  0.5734930000000  0.4978880000000 1.0
C      1  0.5121370000000  0.4627130000000  0.5126970000000 1.0
C      1  0.4617280000000  0.4586650000000  0.5804340000000 1.0
C      1  0.5292710000000  0.6006410000000  0.5385400000000 1.0
C      1  0.4338040000000  0.5452200000000  0.5486070000000 1.0
C      1  0.4611350000000  0.5066700000000  0.4381620000000 1.0
C      1  0.4856050000000  0.5228010000000  0.4364350000000 1.0
C      1  0.4268160000000  0.4684950000000  0.4349150000000 1.0
C      1  0.4865650000000  0.5616580000000  0.4520710000000 1.0
C      1  0.5012860000000  0.5238750000000  0.4119980000000 1.0
C      1  0.5768790000000  0.4749460000000  0.4634080000000 1.0
C      1  0.4752440000000  0.5470050000000  0.5552740000000 1.0
C      1  0.5052430000000  0.5160550000000  0.4573880000000 1.0
C      1  0.4984790000000  0.5684350000000  0.5242540000000 1.0
C      1  0.5154620000000  0.5381290000000  0.5813570000000 1.0
C      1  0.5571700000000  0.5020210000000  0.5478960000000 1.0
C      1  0.4291350000000  0.4919610000000  0.5554710000000 1.0
C      1  0.5121570000000  0.5941420000000  0.4902340000000 1.0
C      1  0.5299220000000  0.5307940000000  0.4663250000000 1.0
C      1  0.4664020000000  0.4777270000000  0.4454830000000 1.0
C      1  0.3986980000000  0.5072250000000  0.5157300000000 1.0
C      1  0.5183230000000  0.4262620000000  0.5588270000000 1.0
C      1  0.4948650000000  0.4992990000000  0.5543360000000 1.0
C      1  0.5232410000000  0.4135800000000  0.4744660000000 1.0
C      1  0.4650150000000  0.5169550000000  0.5827710000000 1.0
C      1  0.4667210000000  0.4302970000000  0.5621640000000 1.0
C      1  0.5186890000000  0.5710830000000  0.4237350000000 1.0
C      1  0.5489920000000  0.5091030000000  0.4043590000000 1.0
C      1  0.5000840000000  0.4703130000000  0.5390360000000 1.0
C      1  0.4439450000000  0.5512180000000  0.5195890000000 1.0
C      1  0.4575590000000  0.4051410000000  0.5149540000000 1.0
C      1  0.4945390000000  0.4554460000000  0.4874810000000 1.0
C      1  0.5649480000000  0.4511300000000  0.4782610000000 1.0
C      1  0.5212070000000  0.5012980000000  0.4109260000000 1.0
C      1  0.5000890000000  0.5238200000000  0.5158620000000 1.0
C      1  0.4868210000000  0.4017000000000  0.5086510000000 1.0
C      1  0.5737480000000  0.4417830000000  0.5045730000000 1.0
C      1  0.5033430000000  0.4222870000000  0.5198110000000 1.0
C      1  0.5425680000000  0.4719490000000  0.5070580000000 1.0
C      1  0.5679380000000  0.5640250000000  0.4866820000000 1.0
C      1  0.4093920000000  0.5249350000000  0.4691450000000 1.0
C      1  0.4318400000000  0.5209050000000  0.4464000000000 1.0
C      1  0.5754130000000  0.5429870000000  0.4662250000000 1.0
C      1  0.6123660000000  0.4849130000000  0.5042690000000 1.0
C      1  0.4630000000000  0.5616890000000  0.4358140000000 1.0
C      1  0.5857400000000  0.5096260000000  0.4415100000000 1.0
C      1  0.5310040000000  0.4925990000000  0.4901190000000 1.0
C      1  0.4863000000000  0.4611470000000  0.4295990000000 1.0
C      1  0.5153410000000  0.4741440000000  0.4286400000000 1.0
C      1  0.4396990000000  0.5193780000000  0.5643010000000 1.0
C      1  0.4919420000000  0.4151120000000  0.5658380000000 1.0
C      1  0.4268280000000  0.4894080000000  0.4551200000000 1.0
C      1  0.5447330000000  0.4367630000000  0.4609870000000 1.0
C      1  0.4067780000000  0.4566590000000  0.5239010000000 1.0
C      1  0.4786680000000  0.4985430000000  0.4846800000000 1.0
C      1  0.4395170000000  0.4806500000000  0.5053320000000 1.0
C      1  0.5025320000000  0.5492600000000  0.5028490000000 1.0
C      1  0.4645210000000  0.5738580000000  0.5483430000000 1.0
C      1  0.4087130000000  0.4858400000000  0.5333450000000 1.0
C      1  0.4636520000000  0.4190850000000  0.4489500000000 1.0
C      1  0.4782220000000  0.5820360000000  0.4900750000000 1.0
C      1  0.4201650000000  0.4834260000000  0.4827690000000 1.0
C      1  0.4679280000000  0.4711390000000  0.4759450000000 1.0
C      1  0.5362320000000  0.5260320000000  0.5383160000000 1.0
C      1  0.5463410000000  0.5398790000000  0.5133640000000 1.0
C      1  0.4637680000000  0.5252530000000  0.4830160000000 1.0
C      1  0.5288280000000  0.5488680000000  0.4902980000000 1.0
C      1  0.5468840000000  0.5081540000000  0.4729150000000 1.0
C      1  0.4822500000000  0.5511060000000  0.4801590000000 1.0
C      1  0.4529220000000  0.4526250000000  0.5166490000000 1.0
C      1  0.5040050000000  0.5014780000000  0.4987410000000 1.0
C      1  0.4694740000000  0.4730960000000  0.5336150000000 1.0
C      1  0.5734070000000  0.5544140000000  0.5167140000000 1.0
C      1  0.5621400000000  0.5482340000000  0.4401960000000 1.0
C      1  0.5331140000000  0.4183400000000  0.5293180000000 1.0
C      1  0.5319650000000  0.5522090000000  0.5584290000000 1.0
C      1  0.5177400000000  0.5746150000000  0.5445670000000 1.0
C      1  0.4508630000000  0.4725030000000  0.5562630000000 1.0
C      1  0.5387290000000  0.5666570000000  0.4445210000000 1.0
C      1  0.5032810000000  0.4365140000000  0.4674950000000 1.0
C      1  0.5877770000000  0.5016840000000  0.5044980000000 1.0
C      1  0.5545490000000  0.4851870000000  0.5726360000000 1.0
C      1  0.5098780000000  0.5508090000000  0.4045490000000 1.0
C      1  0.4793840000000  0.4871450000000  0.5841680000000 1.0
C      1  0.4802830000000  0.5209230000000  0.5376720000000 1.0
C      1  0.5143700000000  0.5093890000000  0.5762310000000 1.0
C      1  0.5778830000000  0.5258880000000  0.5486260000000 1.0
C      1  0.5659900000000  0.4705760000000  0.4359100000000 1.0
C      1  0.5088470000000  0.4874330000000  0.4548600000000 1.0
C      1  0.5918360000000  0.5273710000000  0.5210070000000 1.0
C      1  0.4299300000000  0.5682640000000  0.4732510000000 1.0
END
