TITL C-862502-1143-946 0.000366742016342344 125000 -13.533224980339 0 0 5 (D3h) n - 1
REM
REM in /home/nfs/bkarasulu/CARBON/AIRSS/Generating-Clusters/TERSOFF/Higher-Symm/FIRE-HFTN
REM
REM
REM
REM
REM
REM ./C.cell (b20cbc046b6831c77cfcea5457e17084)
REM AIRSS Version 0.9.1 bugfix July 2018 build 013d7b7c2542+ Fri, 06 Jul 2018 19:26:36 +0100
REM compiler GCC version 9.2.1 20190827 (Red Hat 9.2.1-1)
REM options -cpp -mtune=generic -march=x86-64 -g -O0 -fpre-include=/usr/include/finclude/math-vector-fortran.h
REM seed 1597576013 -2137632171 570320145 797120703 362661795 932200344 1138457361 1349039267 -1423211212 779432445 -786674070 702300634 -1579441399 -44179474 996157244 40147278 620344461 -291192716 -1638560934 1247151962 -1311463506 533209552 -1481260264 1928916854 9161331 1937391459 876530207 1753567275 775762031 894956842 -215127065 -1645008370 -1432217304
REM
CELL 1.54180   50.00000   50.00000   50.00000   90.00000   90.00000   90.00000
LATT -1
SFAC C  
C      1  0.5019610000000  0.5047500000000  0.4758720000000 1.0
C      1  0.5198700000000  0.5047500000000  0.5138220000000 1.0
C      1  0.4780500000000  0.5047500000000  0.5103560000000 1.0
C      1  0.4999600000000  0.4807600000000  0.5000170000000 1.0
C      1  0.4999600000000  0.5287410000000  0.5000170000000 1.0
END
