TITL C-862134-6730-852 -6.03222845745828e-05 125000 -560.819533449416 0 0 104 (C4h) n - 1
REM
REM in /home/nfs/bkarasulu/CARBON/AIRSS/Generating-Clusters/TERSOFF/Higher-Symm/FIRE-HFTN
REM
REM
REM
REM
REM
REM ./C.cell (b20cbc046b6831c77cfcea5457e17084)
REM AIRSS Version 0.9.1 bugfix July 2018 build 013d7b7c2542+ Fri, 06 Jul 2018 19:26:36 +0100
REM compiler GCC version 9.2.1 20190827 (Red Hat 9.2.1-1)
REM options -cpp -mtune=generic -march=x86-64 -g -O0 -fpre-include=/usr/include/finclude/math-vector-fortran.h
REM seed -862267949 -1893457923 -2011327425 -1582533971 -783246161 1602994432 1670487284 1711424851 -265255624 1775951286 -1123938025 633927816 12816610 1867125008 135051013 -69956653 -947435196 121858519 129369634 998234005 -450252756 2039189272 -1611331482 -631415735 27812393 -1889626110 1262642397 -951015741 -817493869 1546185857 -1576586577 -680067761 1801364971
REM
CELL 1.54180   50.00000   50.00000   50.00000   90.00000   90.00000   90.00000
LATT -1
SFAC C  
C      1  0.5383980000000  0.4283380000000  0.5216300000000 1.0
C      1  0.5383980000000  0.4783700000000  0.4283380000000 1.0
C      1  0.5383980000000  0.5716620000000  0.4783700000000 1.0
C      1  0.5383980000000  0.5216300000000  0.5716620000000 1.0
C      1  0.4616020000000  0.4283380000000  0.5216300000000 1.0
C      1  0.4616020000000  0.4783700000000  0.4283380000000 1.0
C      1  0.4616020000000  0.5716620000000  0.4783700000000 1.0
C      1  0.4616020000000  0.5216300000000  0.5716620000000 1.0
C      1  0.4005010000000  0.5226140000000  0.4943170000000 1.0
C      1  0.4005010000000  0.5056830000000  0.5226140000000 1.0
C      1  0.4005010000000  0.4773860000000  0.5056830000000 1.0
C      1  0.4005010000000  0.4943170000000  0.4773860000000 1.0
C      1  0.5994990000000  0.5226140000000  0.4943170000000 1.0
C      1  0.5994990000000  0.5056830000000  0.5226140000000 1.0
C      1  0.5994990000000  0.4773860000000  0.5056830000000 1.0
C      1  0.5994990000000  0.4943170000000  0.4773860000000 1.0
C      1  0.5142690000000  0.5082970000000  0.4114490000000 1.0
C      1  0.5142690000000  0.5885510000000  0.5082970000000 1.0
C      1  0.5142690000000  0.4917030000000  0.5885510000000 1.0
C      1  0.5142690000000  0.4114490000000  0.4917030000000 1.0
C      1  0.4857310000000  0.5082970000000  0.4114490000000 1.0
C      1  0.4857310000000  0.5885510000000  0.5082970000000 1.0
C      1  0.4857310000000  0.4917030000000  0.5885510000000 1.0
C      1  0.4857310000000  0.4114490000000  0.4917030000000 1.0
C      1  0.4705800000000  0.5664040000000  0.5190140000000 1.0
C      1  0.4705800000000  0.4809860000000  0.5664040000000 1.0
C      1  0.4705800000000  0.4335960000000  0.4809860000000 1.0
C      1  0.4705800000000  0.5190140000000  0.4335960000000 1.0
C      1  0.5294200000000  0.5664040000000  0.5190140000000 1.0
C      1  0.5294200000000  0.4809860000000  0.5664040000000 1.0
C      1  0.5294200000000  0.4335960000000  0.4809860000000 1.0
C      1  0.5294200000000  0.5190140000000  0.4335960000000 1.0
C      1  0.5653930000000  0.5639630000000  0.4684110000000 1.0
C      1  0.5653930000000  0.5315890000000  0.5639630000000 1.0
C      1  0.5653930000000  0.4360370000000  0.5315890000000 1.0
C      1  0.5653930000000  0.4684110000000  0.4360370000000 1.0
C      1  0.4346070000000  0.5639630000000  0.4684110000000 1.0
C      1  0.4346070000000  0.5315890000000  0.5639630000000 1.0
C      1  0.4346070000000  0.4360370000000  0.5315890000000 1.0
C      1  0.4346070000000  0.4684110000000  0.4360370000000 1.0
C      1  0.5160940000000  0.5599880000000  0.4639190000000 1.0
C      1  0.5160940000000  0.5360810000000  0.5599880000000 1.0
C      1  0.5160940000000  0.4400120000000  0.5360810000000 1.0
C      1  0.5160940000000  0.4639190000000  0.4400120000000 1.0
C      1  0.4839060000000  0.5599880000000  0.4639190000000 1.0
C      1  0.4839060000000  0.5360810000000  0.5599880000000 1.0
C      1  0.4839060000000  0.4400120000000  0.5360810000000 1.0
C      1  0.4839060000000  0.4639190000000  0.4400120000000 1.0
C      1  0.4446280000000  0.4777520000000  0.5044100000000 1.0
C      1  0.4446280000000  0.4955900000000  0.4777520000000 1.0
C      1  0.4446280000000  0.5222480000000  0.4955900000000 1.0
C      1  0.4446280000000  0.5044100000000  0.5222480000000 1.0
C      1  0.5553720000000  0.4777520000000  0.5044100000000 1.0
C      1  0.5553720000000  0.4955900000000  0.4777520000000 1.0
C      1  0.5553720000000  0.5222480000000  0.4955900000000 1.0
C      1  0.5553720000000  0.5044100000000  0.5222480000000 1.0
C      1  0.5783570000000  0.4845150000000  0.5622490000000 1.0
C      1  0.5783570000000  0.4377510000000  0.4845150000000 1.0
C      1  0.5783570000000  0.5154850000000  0.4377510000000 1.0
C      1  0.5783570000000  0.5622490000000  0.5154850000000 1.0
C      1  0.4216430000000  0.4845150000000  0.5622490000000 1.0
C      1  0.4216430000000  0.4377510000000  0.4845150000000 1.0
C      1  0.4216430000000  0.5154850000000  0.4377510000000 1.0
C      1  0.4216430000000  0.5622490000000  0.5154850000000 1.0
C      1  0.5766560000000  0.4914030000000  0.4557380000000 1.0
C      1  0.5766560000000  0.5442620000000  0.4914030000000 1.0
C      1  0.5766560000000  0.5085970000000  0.5442620000000 1.0
C      1  0.5766560000000  0.4557380000000  0.5085970000000 1.0
C      1  0.4233440000000  0.4914030000000  0.4557380000000 1.0
C      1  0.4233440000000  0.5442620000000  0.4914030000000 1.0
C      1  0.4233440000000  0.5085970000000  0.5442620000000 1.0
C      1  0.4233440000000  0.4557380000000  0.5085970000000 1.0
C      1  0.4847310000000  0.4574730000000  0.4717980000000 1.0
C      1  0.4847310000000  0.5282020000000  0.4574730000000 1.0
C      1  0.4847310000000  0.5425270000000  0.5282020000000 1.0
C      1  0.4847310000000  0.4717980000000  0.5425270000000 1.0
C      1  0.5152690000000  0.4574730000000  0.4717980000000 1.0
C      1  0.5152690000000  0.5282020000000  0.4574730000000 1.0
C      1  0.5152690000000  0.5425270000000  0.5282020000000 1.0
C      1  0.5152690000000  0.4717980000000  0.5425270000000 1.0
C      1  0.4479920000000  0.4392060000000  0.4411360000000 1.0
C      1  0.4479920000000  0.5588640000000  0.4392060000000 1.0
C      1  0.4479920000000  0.5607940000000  0.5588640000000 1.0
C      1  0.4479920000000  0.4411360000000  0.5607940000000 1.0
C      1  0.5520080000000  0.4392060000000  0.4411360000000 1.0
C      1  0.5520080000000  0.5588640000000  0.4392060000000 1.0
C      1  0.5520080000000  0.5607940000000  0.5588640000000 1.0
C      1  0.5520080000000  0.4411360000000  0.5607940000000 1.0
C      1  0.4446460000000  0.5701600000000  0.5310830000000 1.0
C      1  0.4446460000000  0.4689170000000  0.5701600000000 1.0
C      1  0.4446460000000  0.4298400000000  0.4689170000000 1.0
C      1  0.4446460000000  0.5310830000000  0.4298400000000 1.0
C      1  0.5553540000000  0.5701600000000  0.5310830000000 1.0
C      1  0.5553540000000  0.4689170000000  0.5701600000000 1.0
C      1  0.5553540000000  0.4298400000000  0.4689170000000 1.0
C      1  0.5553540000000  0.5310830000000  0.4298400000000 1.0
C      1  0.4817560000000  0.4293400000000  0.5664080000000 1.0
C      1  0.4817560000000  0.4335920000000  0.4293400000000 1.0
C      1  0.4817560000000  0.5706600000000  0.4335920000000 1.0
C      1  0.4817560000000  0.5664080000000  0.5706600000000 1.0
C      1  0.5182440000000  0.4293400000000  0.5664080000000 1.0
C      1  0.5182440000000  0.4335920000000  0.4293400000000 1.0
C      1  0.5182440000000  0.5706600000000  0.4335920000000 1.0
C      1  0.5182440000000  0.5664080000000  0.5706600000000 1.0
END
