TITL C-862128-1543-1084 47.8470344590581 125000 -830.828846927648 0 0 143 (C1) n - 1
REM
REM in /home/nfs/bkarasulu/CARBON/AIRSS/Generating-Clusters/TERSOFF/Higher-Symm/FIRE-HFTN
REM
REM
REM
REM
REM
REM ./C.cell (b20cbc046b6831c77cfcea5457e17084)
REM AIRSS Version 0.9.1 bugfix July 2018 build 013d7b7c2542+ Fri, 06 Jul 2018 19:26:36 +0100
REM compiler GCC version 9.2.1 20190827 (Red Hat 9.2.1-1)
REM options -cpp -mtune=generic -march=x86-64 -g -O0 -fpre-include=/usr/include/finclude/math-vector-fortran.h
REM seed 1454672427 -1663325375 341066304 -1679636036 842757722 -1792781072 1126310848 426579879 -651287109 651396910 945664875 -2131296236 -1252507845 1012877565 -1659227233 -244805542 -840747584 -1120946882 -1559574487 1009348221 -1222357359 1421068369 -815552836 90112259 -806996361 153325083 -381101710 512510087 545155530 1534900421 -1153282851 -834420808 -2113577206
REM
CELL 1.54180   50.00000   50.00000   50.00000   90.00000   90.00000   90.00000
LATT -1
SFAC C  
C      1  0.4005230000000  0.4452070000000  0.5137360000000 1.0
C      1  0.4900260000000  0.3942210000000  0.5034650000000 1.0
C      1  0.4050830000000  0.5070330000000  0.5464590000000 1.0
C      1  0.5020450000000  0.5869090000000  0.5150500000000 1.0
C      1  0.5934400000000  0.4570070000000  0.5281820000000 1.0
C      1  0.5047710000000  0.5631730000000  0.5646330000000 1.0
C      1  0.5413590000000  0.4418330000000  0.5061950000000 1.0
C      1  0.4499000000000  0.3803380000000  0.4197000000000 1.0
C      1  0.4871940000000  0.4518630000000  0.5921990000000 1.0
C      1  0.4414630000000  0.4295350000000  0.4216220000000 1.0
C      1  0.4595430000000  0.4059910000000  0.4626740000000 1.0
C      1  0.4323700000000  0.5494410000000  0.5028450000000 1.0
C      1  0.5464920000000  0.5041620000000  0.4516700000000 1.0
C      1  0.4763170000000  0.5612620000000  0.4744050000000 1.0
C      1  0.5619540000000  0.5158280000000  0.4083050000000 1.0
C      1  0.4124270000000  0.5645700000000  0.4134440000000 1.0
C      1  0.4842180000000  0.4103270000000  0.4787310000000 1.0
C      1  0.5902870000000  0.5589750000000  0.5172280000000 1.0
C      1  0.5206130000000  0.5082760000000  0.6059200000000 1.0
C      1  0.4031550000000  0.4879650000000  0.4447900000000 1.0
C      1  0.5307330000000  0.4268280000000  0.4810960000000 1.0
C      1  0.4988430000000  0.5455340000000  0.4614910000000 1.0
C      1  0.4774500000000  0.5737270000000  0.5031000000000 1.0
C      1  0.5825190000000  0.4287630000000  0.5321100000000 1.0
C      1  0.5529520000000  0.4924310000000  0.5185590000000 1.0
C      1  0.4961820000000  0.5143630000000  0.4588400000000 1.0
C      1  0.6067800000000  0.5287150000000  0.4567520000000 1.0
C      1  0.4973030000000  0.4931990000000  0.5115780000000 1.0
C      1  0.5365500000000  0.4862550000000  0.4717800000000 1.0
C      1  0.4581320000000  0.4616590000000  0.5263850000000 1.0
C      1  0.6036340000000  0.5100630000000  0.5364130000000 1.0
C      1  0.5314570000000  0.5234840000000  0.5846820000000 1.0
C      1  0.4266990000000  0.5690120000000  0.4661260000000 1.0
C      1  0.4728870000000  0.4325410000000  0.5753940000000 1.0
C      1  0.5045850000000  0.4284740000000  0.4686950000000 1.0
C      1  0.4884400000000  0.4122300000000  0.5607580000000 1.0
C      1  0.5510170000000  0.4425330000000  0.4477590000000 1.0
C      1  0.3953780000000  0.5098170000000  0.4630070000000 1.0
C      1  0.4253680000000  0.5970320000000  0.4661270000000 1.0
C      1  0.4790890000000  0.5070580000000  0.4357050000000 1.0
C      1  0.4329620000000  0.5162210000000  0.4149010000000 1.0
C      1  0.4285100000000  0.5691070000000  0.5497010000000 1.0
C      1  0.5046820000000  0.4896360000000  0.4801260000000 1.0
C      1  0.5474590000000  0.4015400000000  0.4750020000000 1.0
C      1  0.6022780000000  0.5559220000000  0.4475940000000 1.0
C      1  0.4635920000000  0.5428790000000  0.5140530000000 1.0
C      1  0.4788280000000  0.4846090000000  0.5877530000000 1.0
C      1  0.5448890000000  0.5371300000000  0.5022830000000 1.0
C      1  0.5898270000000  0.4285340000000  0.4692450000000 1.0
C      1  0.4027520000000  0.5919630000000  0.5125210000000 1.0
C      1  0.4105450000000  0.4004170000000  0.5797330000000 1.0
C      1  0.4799820000000  0.5138940000000  0.5969190000000 1.0
C      1  0.4646820000000  0.5356120000000  0.5841220000000 1.0
C      1  0.5591600000000  0.5146950000000  0.5736330000000 1.0
C      1  0.5908440000000  0.5121140000000  0.4106400000000 1.0
C      1  0.4222150000000  0.4428570000000  0.4668220000000 1.0
C      1  0.4145930000000  0.5660640000000  0.5231280000000 1.0
C      1  0.4101760000000  0.4573870000000  0.5383110000000 1.0
C      1  0.5301930000000  0.4817340000000  0.6044220000000 1.0
C      1  0.5043460000000  0.4379950000000  0.4406810000000 1.0
C      1  0.5535210000000  0.4197810000000  0.5251830000000 1.0
C      1  0.5362490000000  0.4558990000000  0.5517310000000 1.0
C      1  0.5159310000000  0.5780770000000  0.5417520000000 1.0
C      1  0.3965260000000  0.5407250000000  0.5229010000000 1.0
C      1  0.5660860000000  0.4158220000000  0.4548590000000 1.0
C      1  0.5691270000000  0.4643840000000  0.5899930000000 1.0
C      1  0.5711380000000  0.4860930000000  0.5684720000000 1.0
C      1  0.5389310000000  0.5163220000000  0.5207590000000 1.0
C      1  0.4173810000000  0.4325990000000  0.4938820000000 1.0
C      1  0.4988790000000  0.4827200000000  0.5662170000000 1.0
C      1  0.5570760000000  0.4758700000000  0.6145480000000 1.0
C      1  0.5184020000000  0.4428440000000  0.5941120000000 1.0
C      1  0.5929430000000  0.4686840000000  0.5010760000000 1.0
C      1  0.5739980000000  0.5408640000000  0.5729080000000 1.0
C      1  0.5899610000000  0.4836220000000  0.5455750000000 1.0
C      1  0.4540110000000  0.5047280000000  0.4825110000000 1.0
C      1  0.5170230000000  0.3833820000000  0.5122360000000 1.0
C      1  0.5607500000000  0.5723390000000  0.5186780000000 1.0
C      1  0.4222230000000  0.5925200000000  0.4149860000000 1.0
C      1  0.4383150000000  0.5283900000000  0.5760900000000 1.0
C      1  0.5095830000000  0.5581320000000  0.4368080000000 1.0
C      1  0.4700510000000  0.4498420000000  0.4794110000000 1.0
C      1  0.5237350000000  0.6068280000000  0.4460900000000 1.0
C      1  0.4023740000000  0.5194040000000  0.5032950000000 1.0
C      1  0.5259130000000  0.5526820000000  0.5824680000000 1.0
C      1  0.4517100000000  0.5160010000000  0.4368080000000 1.0
C      1  0.5176270000000  0.4088150000000  0.5625910000000 1.0
C      1  0.4323390000000  0.5161490000000  0.5509250000000 1.0
C      1  0.5563350000000  0.5692370000000  0.4291670000000 1.0
C      1  0.4240880000000  0.4253490000000  0.5854540000000 1.0
C      1  0.5310750000000  0.4728020000000  0.4127290000000 1.0
C      1  0.5437600000000  0.3958830000000  0.5062860000000 1.0
C      1  0.5527980000000  0.4609040000000  0.4705920000000 1.0
C      1  0.5390260000000  0.4672380000000  0.5240680000000 1.0
C      1  0.4270160000000  0.5418740000000  0.4012220000000 1.0
C      1  0.5460430000000  0.5788440000000  0.4926780000000 1.0
C      1  0.5214310000000  0.5552050000000  0.4954830000000 1.0
C      1  0.4132950000000  0.4923870000000  0.5079640000000 1.0
C      1  0.4569660000000  0.5752510000000  0.5531550000000 1.0
C      1  0.4449800000000  0.4370380000000  0.5689670000000 1.0
C      1  0.5650290000000  0.5248380000000  0.4589540000000 1.0
C      1  0.5455330000000  0.4968640000000  0.4237630000000 1.0
C      1  0.5986590000000  0.5292800000000  0.5123420000000 1.0
C      1  0.4126780000000  0.4956600000000  0.4182440000000 1.0
C      1  0.5197110000000  0.5420620000000  0.4141120000000 1.0
C      1  0.5671400000000  0.5357370000000  0.4848530000000 1.0
C      1  0.4380240000000  0.4533440000000  0.5458850000000 1.0
C      1  0.4504180000000  0.5530170000000  0.4651170000000 1.0
C      1  0.5786860000000  0.4929110000000  0.5059830000000 1.0
C      1  0.5454060000000  0.5777460000000  0.5420480000000 1.0
C      1  0.4540650000000  0.5147710000000  0.5296600000000 1.0
C      1  0.5948330000000  0.5787880000000  0.4947100000000 1.0
C      1  0.5807010000000  0.4546050000000  0.4798170000000 1.0
C      1  0.5547040000000  0.5625420000000  0.5800010000000 1.0
C      1  0.4760030000000  0.5588680000000  0.5687350000000 1.0
C      1  0.4890900000000  0.4674390000000  0.4664320000000 1.0
C      1  0.4157570000000  0.5299830000000  0.4770600000000 1.0
C      1  0.4440900000000  0.5244480000000  0.4635690000000 1.0
C      1  0.5772060000000  0.5701210000000  0.4498780000000 1.0
C      1  0.3962690000000  0.4799350000000  0.5491970000000 1.0
C      1  0.4142360000000  0.6082780000000  0.4905680000000 1.0
C      1  0.4230040000000  0.6087340000000  0.4396150000000 1.0
C      1  0.4502840000000  0.4583550000000  0.4984540000000 1.0
C      1  0.4011190000000  0.4592960000000  0.4530160000000 1.0
C      1  0.5107290000000  0.5151890000000  0.5241780000000 1.0
C      1  0.5496060000000  0.5433880000000  0.4093250000000 1.0
C      1  0.4994720000000  0.5401270000000  0.5151570000000 1.0
C      1  0.4565920000000  0.3807260000000  0.4478700000000 1.0
C      1  0.5186520000000  0.4741300000000  0.3864700000000 1.0
C      1  0.4433140000000  0.4050490000000  0.4062860000000 1.0
C      1  0.6049440000000  0.5083500000000  0.4359850000000 1.0
C      1  0.5723710000000  0.5824540000000  0.4758990000000 1.0
C      1  0.5227980000000  0.4690450000000  0.5747250000000 1.0
C      1  0.6126330000000  0.5217680000000  0.4858050000000 1.0
C      1  0.4374910000000  0.4840070000000  0.4936750000000 1.0
C      1  0.5294160000000  0.5796550000000  0.4375110000000 1.0
C      1  0.4703710000000  0.4893460000000  0.5247000000000 1.0
C      1  0.4434880000000  0.4294870000000  0.4509610000000 1.0
C      1  0.5374280000000  0.4265690000000  0.5502020000000 1.0
C      1  0.5503640000000  0.4403100000000  0.5880700000000 1.0
C      1  0.5294850000000  0.4474800000000  0.4288060000000 1.0
C      1  0.5154780000000  0.6138970000000  0.4727970000000 1.0
C      1  0.5224080000000  0.5979270000000  0.4957360000000 1.0
END
