TITL C-862130-1496-827 0.101366086312422 125000 -991.020407812398 0 0 183 (C1) n - 1
REM
REM in /home/nfs/bkarasulu/CARBON/AIRSS/Generating-Clusters/TERSOFF/Higher-Symm/FIRE-HFTN
REM
REM
REM
REM
REM
REM ./C.cell (b20cbc046b6831c77cfcea5457e17084)
REM AIRSS Version 0.9.1 bugfix July 2018 build 013d7b7c2542+ Fri, 06 Jul 2018 19:26:36 +0100
REM compiler GCC version 9.2.1 20190827 (Red Hat 9.2.1-1)
REM options -cpp -mtune=generic -march=x86-64 -g -O0 -fpre-include=/usr/include/finclude/math-vector-fortran.h
REM seed -2127813194 -1734016991 416777655 -1769187099 -1659784922 227759274 1871893934 1134147618 2117614052 -541149928 331815156 1789858185 -1434348595 -1108885071 1982147933 -1861101970 -668530085 315742392 258587205 1494429799 1920361966 1987396783 1994978789 -479870062 2106086700 -358461532 604524852 -316780923 2133399173 354172792 1892056794 253285912 1972308213
REM
CELL 1.54180   50.00000   50.00000   50.00000   90.00000   90.00000   90.00000
LATT -1
SFAC C  
C      1  0.5370540000000  0.5874340000000  0.4949310000000 1.0
C      1  0.5306720000000  0.5907160000000  0.5270620000000 1.0
C      1  0.5000830000000  0.5921340000000  0.5425180000000 1.0
C      1  0.4693080000000  0.5902000000000  0.5274470000000 1.0
C      1  0.4628000000000  0.5866430000000  0.4945340000000 1.0
C      1  0.4838040000000  0.5852940000000  0.4690860000000 1.0
C      1  0.5163590000000  0.5844960000000  0.4699120000000 1.0
C      1  0.4726770000000  0.5740690000000  0.4177570000000 1.0
C      1  0.5458040000000  0.5712070000000  0.4284740000000 1.0
C      1  0.5895530000000  0.5760770000000  0.4912930000000 1.0
C      1  0.5636830000000  0.5762900000000  0.5668650000000 1.0
C      1  0.4881900000000  0.5759550000000  0.5925040000000 1.0
C      1  0.4221240000000  0.5754470000000  0.5482520000000 1.0
C      1  0.4167690000000  0.5740140000000  0.4699480000000 1.0
C      1  0.5764180000000  0.5556650000000  0.4255180000000 1.0
C      1  0.6072490000000  0.5568900000000  0.5141350000000 1.0
C      1  0.5561140000000  0.5557550000000  0.5932840000000 1.0
C      1  0.4620050000000  0.5556670000000  0.6028250000000 1.0
C      1  0.3973780000000  0.5556670000000  0.5343790000000 1.0
C      1  0.4102760000000  0.5557290000000  0.4408520000000 1.0
C      1  0.4904960000000  0.5555430000000  0.3946400000000 1.0
C      1  0.5683050000000  0.5167560000000  0.4390740000000 1.0
C      1  0.5879570000000  0.5185860000000  0.5140760000000 1.0
C      1  0.5418110000000  0.5179980000000  0.5768110000000 1.0
C      1  0.4655030000000  0.5182620000000  0.5817020000000 1.0
C      1  0.4146830000000  0.5182250000000  0.5229000000000 1.0
C      1  0.4272170000000  0.5177470000000  0.4467090000000 1.0
C      1  0.4966520000000  0.5161000000000  0.4101010000000 1.0
C      1  0.4289140000000  0.4909160000000  0.5820110000000 1.0
C      1  0.3896030000000  0.4908690000000  0.4953970000000 1.0
C      1  0.4341190000000  0.4901370000000  0.4106360000000 1.0
C      1  0.5286770000000  0.4893010000000  0.3914280000000 1.0
C      1  0.6016620000000  0.4900690000000  0.4544710000000 1.0
C      1  0.5958700000000  0.4913340000000  0.5500820000000 1.0
C      1  0.5202050000000  0.4908130000000  0.6073720000000 1.0
C      1  0.6020080000000  0.5389400000000  0.4648050000000 1.0
C      1  0.5877820000000  0.5391360000000  0.5574910000000 1.0
C      1  0.5096110000000  0.5384210000000  0.6058230000000 1.0
C      1  0.4234940000000  0.5390590000000  0.5728360000000 1.0
C      1  0.3942470000000  0.5392930000000  0.4859490000000 1.0
C      1  0.4462510000000  0.5386370000000  0.4086520000000 1.0
C      1  0.5371880000000  0.5380730000000  0.3984250000000 1.0
C      1  0.5649650000000  0.5259610000000  0.5946110000000 1.0
C      1  0.4654070000000  0.5258960000000  0.6111080000000 1.0
C      1  0.3925010000000  0.5258570000000  0.5422190000000 1.0
C      1  0.3986000000000  0.5264230000000  0.4403310000000 1.0
C      1  0.4828970000000  0.5263790000000  0.3848690000000 1.0
C      1  0.5808220000000  0.5265950000000  0.4129240000000 1.0
C      1  0.6166830000000  0.5272940000000  0.5085740000000 1.0
C      1  0.5503950000000  0.5052000000000  0.5531160000000 1.0
C      1  0.4888130000000  0.5045480000000  0.5747110000000 1.0
C      1  0.4358150000000  0.5050430000000  0.5359640000000 1.0
C      1  0.4281230000000  0.5037920000000  0.4709770000000 1.0
C      1  0.4781570000000  0.5004890000000  0.4250110000000 1.0
C      1  0.5453060000000  0.5012690000000  0.4334330000000 1.0
C      1  0.5778360000000  0.5036600000000  0.4923620000000 1.0
C      1  0.4664080000000  0.4976160000000  0.5082300000000 1.0
C      1  0.4694790000000  0.5017050000000  0.4772300000000 1.0
C      1  0.4952290000000  0.4956290000000  0.4630200000000 1.0
C      1  0.5250570000000  0.5022980000000  0.4700990000000 1.0
C      1  0.5364110000000  0.5022470000000  0.4986190000000 1.0
C      1  0.5199480000000  0.4999690000000  0.5247210000000 1.0
C      1  0.4880110000000  0.5041250000000  0.5328190000000 1.0
C      1  0.5766700000000  0.4174030000000  0.5082250000000 1.0
C      1  0.5417910000000  0.4175200000000  0.5657380000000 1.0
C      1  0.4759300000000  0.4186510000000  0.5724450000000 1.0
C      1  0.4274920000000  0.4185320000000  0.5261030000000 1.0
C      1  0.4334710000000  0.4176140000000  0.4592270000000 1.0
C      1  0.4905240000000  0.4163580000000  0.4223680000000 1.0
C      1  0.5542140000000  0.4166220000000  0.4446090000000 1.0
C      1  0.4519790000000  0.4313690000000  0.5403820000000 1.0
C      1  0.4381390000000  0.4297420000000  0.4870590000000 1.0
C      1  0.4713000000000  0.4270980000000  0.4436520000000 1.0
C      1  0.5253850000000  0.4269400000000  0.4432630000000 1.0
C      1  0.5594780000000  0.4271960000000  0.4849110000000 1.0
C      1  0.5487880000000  0.4280080000000  0.5377830000000 1.0
C      1  0.5025550000000  0.4319590000000  0.5618150000000 1.0
C      1  0.5121130000000  0.4080240000000  0.4638240000000 1.0
C      1  0.5356500000000  0.4071980000000  0.4870050000000 1.0
C      1  0.5318310000000  0.4083830000000  0.5214150000000 1.0
C      1  0.5030020000000  0.4105570000000  0.5388810000000 1.0
C      1  0.4715460000000  0.4118440000000  0.5272190000000 1.0
C      1  0.4609800000000  0.4114970000000  0.4953070000000 1.0
C      1  0.4791070000000  0.4097800000000  0.4673240000000 1.0
C      1  0.4462210000000  0.4782420000000  0.5210830000000 1.0
C      1  0.4475050000000  0.4778550000000  0.4706260000000 1.0
C      1  0.4895740000000  0.4749590000000  0.4414850000000 1.0
C      1  0.5381590000000  0.4774720000000  0.4534240000000 1.0
C      1  0.5586810000000  0.4793500000000  0.4990060000000 1.0
C      1  0.5345840000000  0.4795720000000  0.5433070000000 1.0
C      1  0.4850920000000  0.4799400000000  0.5547660000000 1.0
C      1  0.4522540000000  0.5712910000000  0.5423230000000 1.0
C      1  0.4397880000000  0.5686980000000  0.4900570000000 1.0
C      1  0.4732890000000  0.5675580000000  0.4477630000000 1.0
C      1  0.5280950000000  0.5637020000000  0.4519020000000 1.0
C      1  0.5597310000000  0.5692910000000  0.4887990000000 1.0
C      1  0.5482470000000  0.5711020000000  0.5406770000000 1.0
C      1  0.5011570000000  0.5723140000000  0.5645970000000 1.0
C      1  0.5704930000000  0.4936200000000  0.5960290000000 1.0
C      1  0.4682740000000  0.4932170000000  0.6154700000000 1.0
C      1  0.3900910000000  0.4933480000000  0.5471120000000 1.0
C      1  0.3934890000000  0.4930470000000  0.4427390000000 1.0
C      1  0.4776700000000  0.4923750000000  0.3811240000000 1.0
C      1  0.5793440000000  0.4917780000000  0.4071930000000 1.0
C      1  0.6200780000000  0.4933780000000  0.5042740000000 1.0
C      1  0.5992850000000  0.4489660000000  0.4844530000000 1.0
C      1  0.5737380000000  0.4494590000000  0.5683380000000 1.0
C      1  0.4923620000000  0.4486940000000  0.6012260000000 1.0
C      1  0.4162850000000  0.4487620000000  0.5569220000000 1.0
C      1  0.4027250000000  0.4488930000000  0.4699040000000 1.0
C      1  0.4625260000000  0.4482600000000  0.4056420000000 1.0
C      1  0.5501110000000  0.4479330000000  0.4119260000000 1.0
C      1  0.4166620000000  0.5892850000000  0.5184350000000 1.0
C      1  0.4364990000000  0.5878070000000  0.4471810000000 1.0
C      1  0.5022350000000  0.5892150000000  0.4166620000000 1.0
C      1  0.5659570000000  0.5895240000000  0.4478740000000 1.0
C      1  0.5818960000000  0.5896000000000  0.5207590000000 1.0
C      1  0.5361360000000  0.5899910000000  0.5796910000000 1.0
C      1  0.4611360000000  0.5900240000000  0.5788480000000 1.0
C      1  0.4536270000000  0.4756820000000  0.3944740000000 1.0
C      1  0.5535170000000  0.4748020000000  0.3969710000000 1.0
C      1  0.6125660000000  0.4760850000000  0.4777240000000 1.0
C      1  0.5859780000000  0.4772190000000  0.5735800000000 1.0
C      1  0.4956670000000  0.4765980000000  0.6141850000000 1.0
C      1  0.4082950000000  0.4767690000000  0.5673020000000 1.0
C      1  0.3888540000000  0.4765030000000  0.4700010000000 1.0
C      1  0.4945080000000  0.5260830000000  0.4539450000000 1.0
C      1  0.5256400000000  0.5348980000000  0.4604620000000 1.0
C      1  0.5365570000000  0.5347520000000  0.4940590000000 1.0
C      1  0.5198230000000  0.5331690000000  0.5223290000000 1.0
C      1  0.4887150000000  0.5378310000000  0.5289830000000 1.0
C      1  0.4664230000000  0.5301530000000  0.5079390000000 1.0
C      1  0.4715360000000  0.5374170000000  0.4769380000000 1.0
C      1  0.5516280000000  0.4623360000000  0.5272570000000 1.0
C      1  0.5085340000000  0.4634110000000  0.5551960000000 1.0
C      1  0.4598150000000  0.4625640000000  0.5407520000000 1.0
C      1  0.4409720000000  0.4617420000000  0.4934690000000 1.0
C      1  0.4672630000000  0.4593290000000  0.4500600000000 1.0
C      1  0.5176950000000  0.4600420000000  0.4430660000000 1.0
C      1  0.5547640000000  0.4618850000000  0.4764010000000 1.0
C      1  0.4396380000000  0.5141510000000  0.5671960000000 1.0
C      1  0.4081060000000  0.5138180000000  0.4940230000000 1.0
C      1  0.4470090000000  0.5129370000000  0.4244220000000 1.0
C      1  0.5264610000000  0.5122270000000  0.4099200000000 1.0
C      1  0.5858700000000  0.5134690000000  0.4632180000000 1.0
C      1  0.5791330000000  0.5144690000000  0.5425780000000 1.0
C      1  0.5151270000000  0.5136270000000  0.5894790000000 1.0
C      1  0.5218800000000  0.4330910000000  0.5871110000000 1.0
C      1  0.4456170000000  0.4329690000000  0.5713690000000 1.0
C      1  0.4097970000000  0.4331670000000  0.5018010000000 1.0
C      1  0.4417200000000  0.4322690000000  0.4306490000000 1.0
C      1  0.5175590000000  0.4320150000000  0.4118330000000 1.0
C      1  0.5792710000000  0.4325840000000  0.4590960000000 1.0
C      1  0.5808730000000  0.4336730000000  0.5365300000000 1.0
C      1  0.4018360000000  0.4517680000000  0.5263630000000 1.0
C      1  0.4177680000000  0.4514510000000  0.4399540000000 1.0
C      1  0.4952630000000  0.4508850000000  0.3989400000000 1.0
C      1  0.5753700000000  0.4511520000000  0.4334990000000 1.0
C      1  0.5980770000000  0.4523240000000  0.5174690000000 1.0
C      1  0.5476090000000  0.4518760000000  0.5891580000000 1.0
C      1  0.4597800000000  0.4515280000000  0.5929720000000 1.0
C      1  0.4379920000000  0.5668710000000  0.4204740000000 1.0
C      1  0.5239820000000  0.5666430000000  0.4026660000000 1.0
C      1  0.5914880000000  0.5675800000000  0.4562730000000 1.0
C      1  0.5909620000000  0.5677590000000  0.5446640000000 1.0
C      1  0.5223880000000  0.5668980000000  0.6004270000000 1.0
C      1  0.4358350000000  0.5673600000000  0.5807790000000 1.0
C      1  0.3982860000000  0.5673980000000  0.5001750000000 1.0
C      1  0.6094080000000  0.4773950000000  0.5276380000000 1.0
C      1  0.5463900000000  0.4772470000000  0.6039550000000 1.0
C      1  0.4475820000000  0.4771600000000  0.6006990000000 1.0
C      1  0.3876720000000  0.4771930000000  0.5218390000000 1.0
C      1  0.4122810000000  0.4766130000000  0.4256830000000 1.0
C      1  0.5028530000000  0.4757870000000  0.3849230000000 1.0
C      1  0.5911710000000  0.4758670000000  0.4303170000000 1.0
C      1  0.5210310000000  0.4436780000000  0.5014640000000 1.0
C      1  0.5001580000000  0.4255530000000  0.4999180000000 1.0
C      1  0.4979220000000  0.4865930000000  0.5039380000000 1.0
C      1  0.5145530000000  0.4673060000000  0.4905970000000 1.0
C      1  0.4981990000000  0.5505860000000  0.4877980000000 1.0
C      1  0.4997040000000  0.6049270000000  0.5025600000000 1.0
C      1  0.5000140000000  0.5712700000000  0.5062300000000 1.0
C      1  0.4984870000000  0.3934730000000  0.5007890000000 1.0
END
