TITL C-862503-991-433 4.08439512443887 125000 -662.34461734615 0 0 114 (C1) n - 1
REM
REM in /home/nfs/bkarasulu/CARBON/AIRSS/Generating-Clusters/TERSOFF/Higher-Symm/FIRE-HFTN
REM
REM
REM
REM
REM
REM ./C.cell (b20cbc046b6831c77cfcea5457e17084)
REM AIRSS Version 0.9.1 bugfix July 2018 build 013d7b7c2542+ Fri, 06 Jul 2018 19:26:36 +0100
REM compiler GCC version 9.2.1 20190827 (Red Hat 9.2.1-1)
REM options -cpp -mtune=generic -march=x86-64 -g -O0 -fpre-include=/usr/include/finclude/math-vector-fortran.h
REM seed -1227099972 -246559564 -1455186207 -2064149411 738410412 -691266226 1527808213 -1885334975 547052790 -1753328630 621224091 -1117975471 -1178859363 -1879933629 -1545466603 1324831933 -718047721 1031347506 -1383901253 40328177 -1976518005 -1162481572 -806584672 726690602 694055156 312768888 262030427 1605719911 -519386876 1477698447 -1225289950 -1622845253 1898404088
REM
CELL 1.54180   50.00000   50.00000   50.00000   90.00000   90.00000   90.00000
LATT -1
SFAC C  
C      1  0.4484430000000  0.5729180000000  0.5769420000000 1.0
C      1  0.4459210000000  0.5622740000000  0.5254030000000 1.0
C      1  0.4596510000000  0.5769370000000  0.4777200000000 1.0
C      1  0.4216710000000  0.5036270000000  0.3921260000000 1.0
C      1  0.5602140000000  0.5439350000000  0.5437030000000 1.0
C      1  0.5173310000000  0.4762050000000  0.5776230000000 1.0
C      1  0.5434860000000  0.4926540000000  0.4485730000000 1.0
C      1  0.4426230000000  0.4421050000000  0.4591250000000 1.0
C      1  0.5935140000000  0.5444000000000  0.5005210000000 1.0
C      1  0.4415570000000  0.5088140000000  0.4326990000000 1.0
C      1  0.5226850000000  0.5215040000000  0.4984280000000 1.0
C      1  0.4955940000000  0.4135770000000  0.5258990000000 1.0
C      1  0.5230120000000  0.5421730000000  0.5181530000000 1.0
C      1  0.5571790000000  0.4695190000000  0.4342130000000 1.0
C      1  0.5820680000000  0.5026690000000  0.5534950000000 1.0
C      1  0.5389100000000  0.5344680000000  0.4746400000000 1.0
C      1  0.4248230000000  0.5490010000000  0.4152310000000 1.0
C      1  0.5327260000000  0.5390860000000  0.4438480000000 1.0
C      1  0.5360440000000  0.4985530000000  0.5138360000000 1.0
C      1  0.5007680000000  0.4281760000000  0.5775860000000 1.0
C      1  0.5481930000000  0.5887270000000  0.5197990000000 1.0
C      1  0.3898470000000  0.5238620000000  0.5363280000000 1.0
C      1  0.4714100000000  0.4405850000000  0.4963990000000 1.0
C      1  0.5002130000000  0.5507740000000  0.5317330000000 1.0
C      1  0.4358350000000  0.4880710000000  0.5325140000000 1.0
C      1  0.4911010000000  0.4837740000000  0.5687910000000 1.0
C      1  0.5857720000000  0.5191010000000  0.4570750000000 1.0
C      1  0.4599160000000  0.4193880000000  0.4517060000000 1.0
C      1  0.4851850000000  0.4249190000000  0.5524020000000 1.0
C      1  0.5459520000000  0.4429060000000  0.4457150000000 1.0
C      1  0.5511370000000  0.4345110000000  0.4742130000000 1.0
C      1  0.4882930000000  0.4954950000000  0.5407650000000 1.0
C      1  0.4464300000000  0.5382480000000  0.4325650000000 1.0
C      1  0.5226540000000  0.4478050000000  0.5816240000000 1.0
C      1  0.5492190000000  0.4402390000000  0.5424340000000 1.0
C      1  0.5163510000000  0.4822460000000  0.5293720000000 1.0
C      1  0.5103040000000  0.5783690000000  0.4840410000000 1.0
C      1  0.5789820000000  0.5261050000000  0.5188100000000 1.0
C      1  0.4418070000000  0.4129830000000  0.5143430000000 1.0
C      1  0.5736930000000  0.4775440000000  0.4929910000000 1.0
C      1  0.4338330000000  0.5702610000000  0.5513960000000 1.0
C      1  0.4486590000000  0.5339880000000  0.5184250000000 1.0
C      1  0.4942670000000  0.6199540000000  0.5668310000000 1.0
C      1  0.5589710000000  0.4156160000000  0.5299670000000 1.0
C      1  0.5536550000000  0.5145930000000  0.5888300000000 1.0
C      1  0.4804850000000  0.4085600000000  0.4708300000000 1.0
C      1  0.4778270000000  0.5224810000000  0.6301470000000 1.0
C      1  0.5278220000000  0.4211850000000  0.4875250000000 1.0
C      1  0.4533690000000  0.5824830000000  0.5056740000000 1.0
C      1  0.4928550000000  0.5511430000000  0.5897500000000 1.0
C      1  0.5138100000000  0.3901250000000  0.5289940000000 1.0
C      1  0.4448320000000  0.4961980000000  0.5827970000000 1.0
C      1  0.4820370000000  0.5290990000000  0.5434420000000 1.0
C      1  0.3911350000000  0.5037200000000  0.5155810000000 1.0
C      1  0.5863100000000  0.4719890000000  0.4437440000000 1.0
C      1  0.5194040000000  0.5620580000000  0.4331230000000 1.0
C      1  0.5122840000000  0.4345750000000  0.5105960000000 1.0
C      1  0.4890570000000  0.5245190000000  0.4062730000000 1.0
C      1  0.4584980000000  0.5362080000000  0.5591910000000 1.0
C      1  0.5429830000000  0.3913460000000  0.5266690000000 1.0
C      1  0.5539490000000  0.4951500000000  0.5428600000000 1.0
C      1  0.5360860000000  0.5643360000000  0.4814730000000 1.0
C      1  0.4853390000000  0.4913910000000  0.4751640000000 1.0
C      1  0.4914690000000  0.5642030000000  0.4394500000000 1.0
C      1  0.5180840000000  0.4302630000000  0.4400250000000 1.0
C      1  0.5878720000000  0.4635410000000  0.4717590000000 1.0
C      1  0.5200030000000  0.5953250000000  0.5212210000000 1.0
C      1  0.4456030000000  0.4478900000000  0.4863030000000 1.0
C      1  0.4544760000000  0.4691160000000  0.4205020000000 1.0
C      1  0.4865630000000  0.5732850000000  0.4671300000000 1.0
C      1  0.4722620000000  0.4106580000000  0.5047350000000 1.0
C      1  0.5331790000000  0.5818120000000  0.4169730000000 1.0
C      1  0.6005420000000  0.5379000000000  0.4732390000000 1.0
C      1  0.4476380000000  0.4948720000000  0.4052990000000 1.0
C      1  0.4249650000000  0.4360350000000  0.5028620000000 1.0
C      1  0.4361280000000  0.4641440000000  0.4424480000000 1.0
C      1  0.5626770000000  0.5733020000000  0.5398250000000 1.0
C      1  0.5131310000000  0.5398260000000  0.5700830000000 1.0
C      1  0.5515500000000  0.4760540000000  0.4045770000000 1.0
C      1  0.4906970000000  0.5917270000000  0.5610350000000 1.0
C      1  0.5400700000000  0.4937730000000  0.5703820000000 1.0
C      1  0.4271220000000  0.4899680000000  0.5604850000000 1.0
C      1  0.4118140000000  0.5309540000000  0.3961770000000 1.0
C      1  0.4071460000000  0.4573880000000  0.5112520000000 1.0
C      1  0.5174020000000  0.5002640000000  0.4391570000000 1.0
C      1  0.4745750000000  0.5321000000000  0.6030390000000 1.0
C      1  0.4945670000000  0.4861400000000  0.4482390000000 1.0
C      1  0.4526190000000  0.5241980000000  0.5850800000000 1.0
C      1  0.5448680000000  0.4805730000000  0.4930580000000 1.0
C      1  0.4825300000000  0.4659590000000  0.4300240000000 1.0
C      1  0.5251130000000  0.4523060000000  0.5294060000000 1.0
C      1  0.4750980000000  0.5441870000000  0.4253180000000 1.0
C      1  0.5003630000000  0.5802990000000  0.5364970000000 1.0
C      1  0.4645070000000  0.4834260000000  0.5259130000000 1.0
C      1  0.5156210000000  0.5129610000000  0.4135500000000 1.0
C      1  0.4775490000000  0.5745230000000  0.5794150000000 1.0
C      1  0.5427590000000  0.5356760000000  0.5696740000000 1.0
C      1  0.5236680000000  0.4660230000000  0.4781650000000 1.0
C      1  0.5983520000000  0.4986070000000  0.4408280000000 1.0
C      1  0.4938140000000  0.5143820000000  0.4914110000000 1.0
C      1  0.4984950000000  0.4428290000000  0.4226590000000 1.0
C      1  0.4309410000000  0.4990390000000  0.4848970000000 1.0
C      1  0.4148880000000  0.4865940000000  0.5099440000000 1.0
C      1  0.4977780000000  0.4549640000000  0.4919620000000 1.0
C      1  0.5827740000000  0.5112400000000  0.5816230000000 1.0
C      1  0.5583610000000  0.5127430000000  0.4641600000000 1.0
C      1  0.4461110000000  0.5231480000000  0.4916860000000 1.0
C      1  0.5092440000000  0.4140300000000  0.4646650000000 1.0
C      1  0.5338990000000  0.4984030000000  0.3952050000000 1.0
C      1  0.5482050000000  0.4406220000000  0.5710020000000 1.0
C      1  0.5873100000000  0.4957460000000  0.5124450000000 1.0
C      1  0.4678420000000  0.4791830000000  0.5850580000000 1.0
C      1  0.4288300000000  0.4915990000000  0.4552930000000 1.0
C      1  0.4709460000000  0.5069750000000  0.3921990000000 1.0
END
