TITL C-862501-1041-1410 0.00140258254212582 125000 -1079.52683442363 0 0 178 (C1) n - 1
REM
REM in /home/nfs/bkarasulu/CARBON/AIRSS/Generating-Clusters/TERSOFF/Higher-Symm/FIRE-HFTN
REM
REM
REM
REM
REM
REM ./C.cell (b20cbc046b6831c77cfcea5457e17084)
REM AIRSS Version 0.9.1 bugfix July 2018 build 013d7b7c2542+ Fri, 06 Jul 2018 19:26:36 +0100
REM compiler GCC version 9.2.1 20190827 (Red Hat 9.2.1-1)
REM options -cpp -mtune=generic -march=x86-64 -g -O0 -fpre-include=/usr/include/finclude/math-vector-fortran.h
REM seed 1521521436 1651199271 -158433874 125071098 -251646067 -371079738 2109123136 -1439019271 -1926845146 -201754542 123744404 -862290986 -2028432252 -1741860797 -1156647560 260287308 -555339668 1031928441 289846446 684312134 -1510405025 -1218973021 1466958554 -292611765 1903838986 -1692662802 -1152407164 111964481 2054842844 -705490833 -453419824 -86200018 -141407726
REM
CELL 1.54180   50.00000   50.00000   50.00000   90.00000   90.00000   90.00000
LATT -1
SFAC C  
C      1  0.5915850000000  0.5014180000000  0.5512690000000 1.0
C      1  0.4991650000000  0.5034720000000  0.3933670000000 1.0
C      1  0.4075160000000  0.5012910000000  0.5557460000000 1.0
C      1  0.5930420000000  0.4962680000000  0.4472550000000 1.0
C      1  0.4980140000000  0.4973120000000  0.6060270000000 1.0
C      1  0.4104720000000  0.4988730000000  0.4470420000000 1.0
C      1  0.5775720000000  0.4261540000000  0.5863580000000 1.0
C      1  0.5341360000000  0.4265650000000  0.3936950000000 1.0
C      1  0.3859070000000  0.4261560000000  0.5231640000000 1.0
C      1  0.5758440000000  0.5730900000000  0.4163500000000 1.0
C      1  0.5344890000000  0.5728850000000  0.6071840000000 1.0
C      1  0.3857500000000  0.5731990000000  0.4762120000000 1.0
C      1  0.4568070000000  0.5904630000000  0.5250460000000 1.0
C      1  0.5424010000000  0.5880700000000  0.5225480000000 1.0
C      1  0.4985240000000  0.5906070000000  0.4483040000000 1.0
C      1  0.4589550000000  0.4121750000000  0.4764130000000 1.0
C      1  0.5458250000000  0.4096070000000  0.4763290000000 1.0
C      1  0.4998590000000  0.4089180000000  0.5503630000000 1.0
C      1  0.4774280000000  0.5319910000000  0.4373830000000 1.0
C      1  0.4565680000000  0.5281920000000  0.5492340000000 1.0
C      1  0.5605040000000  0.5260710000000  0.5094660000000 1.0
C      1  0.4766620000000  0.4695250000000  0.5614420000000 1.0
C      1  0.4621100000000  0.4744380000000  0.4538720000000 1.0
C      1  0.5656220000000  0.4685340000000  0.4889310000000 1.0
C      1  0.4607850000000  0.4499220000000  0.4124290000000 1.0
C      1  0.4426510000000  0.4450410000000  0.5829420000000 1.0
C      1  0.6005310000000  0.4451340000000  0.5098420000000 1.0
C      1  0.4577960000000  0.5527430000000  0.5896930000000 1.0
C      1  0.4419110000000  0.5551760000000  0.4175190000000 1.0
C      1  0.5967620000000  0.5503000000000  0.4893770000000 1.0
C      1  0.5831180000000  0.4978890000000  0.4187070000000 1.0
C      1  0.3901590000000  0.4988830000000  0.4695920000000 1.0
C      1  0.5277860000000  0.4980270000000  0.6116560000000 1.0
C      1  0.5818100000000  0.5009060000000  0.5799470000000 1.0
C      1  0.3878100000000  0.5011310000000  0.5326250000000 1.0
C      1  0.5287950000000  0.5017280000000  0.3875250000000 1.0
C      1  0.5869180000000  0.4488630000000  0.4078200000000 1.0
C      1  0.3785270000000  0.4499250000000  0.4705680000000 1.0
C      1  0.5356670000000  0.4490060000000  0.6209340000000 1.0
C      1  0.5856780000000  0.5499250000000  0.5904030000000 1.0
C      1  0.3773990000000  0.5506460000000  0.5301480000000 1.0
C      1  0.5364460000000  0.5507170000000  0.3783760000000 1.0
C      1  0.4053430000000  0.4255860000000  0.5023080000000 1.0
C      1  0.5495310000000  0.4251320000000  0.5812880000000 1.0
C      1  0.5458730000000  0.4271950000000  0.4197010000000 1.0
C      1  0.4045050000000  0.5745870000000  0.4976180000000 1.0
C      1  0.5474830000000  0.5727230000000  0.4194770000000 1.0
C      1  0.5444240000000  0.5726640000000  0.5804470000000 1.0
C      1  0.4112090000000  0.5838190000000  0.5455340000000 1.0
C      1  0.5830600000000  0.5802450000000  0.5509450000000 1.0
C      1  0.5045920000000  0.5842580000000  0.3984520000000 1.0
C      1  0.4144730000000  0.4196490000000  0.4542090000000 1.0
C      1  0.5858080000000  0.4161410000000  0.4461170000000 1.0
C      1  0.5050260000000  0.4155840000000  0.6001340000000 1.0
C      1  0.5463850000000  0.5137540000000  0.4313830000000 1.0
C      1  0.4184710000000  0.5141070000000  0.4965700000000 1.0
C      1  0.5349500000000  0.5127430000000  0.5730080000000 1.0
C      1  0.5449790000000  0.4850520000000  0.5675560000000 1.0
C      1  0.4181020000000  0.4862680000000  0.5076670000000 1.0
C      1  0.5363800000000  0.4863460000000  0.4258340000000 1.0
C      1  0.4896070000000  0.5916980000000  0.5777880000000 1.0
C      1  0.5717010000000  0.5891270000000  0.4674410000000 1.0
C      1  0.4368150000000  0.5947810000000  0.4505740000000 1.0
C      1  0.4920260000000  0.4111030000000  0.4234430000000 1.0
C      1  0.5743810000000  0.4058570000000  0.5312430000000 1.0
C      1  0.4377860000000  0.4055790000000  0.5499520000000 1.0
C      1  0.5025580000000  0.5454550000000  0.5701940000000 1.0
C      1  0.5573640000000  0.5429150000000  0.4595280000000 1.0
C      1  0.4357620000000  0.5491080000000  0.4661190000000 1.0
C      1  0.5064990000000  0.4573340000000  0.4311570000000 1.0
C      1  0.5611210000000  0.4516970000000  0.5391890000000 1.0
C      1  0.4345100000000  0.4517940000000  0.5349410000000 1.0
C      1  0.5209780000000  0.5807130000000  0.5408010000000 1.0
C      1  0.5239010000000  0.5804390000000  0.4583370000000 1.0
C      1  0.4512420000000  0.5837820000000  0.4971100000000 1.0
C      1  0.5242310000000  0.4199730000000  0.4598140000000 1.0
C      1  0.5265490000000  0.4164710000000  0.5409330000000 1.0
C      1  0.4521490000000  0.4177740000000  0.5040960000000 1.0
C      1  0.4427450000000  0.4255950000000  0.4551420000000 1.0
C      1  0.4895460000000  0.4209420000000  0.5763440000000 1.0
C      1  0.5735980000000  0.4205530000000  0.4720840000000 1.0
C      1  0.4394220000000  0.5779610000000  0.5467420000000 1.0
C      1  0.4881430000000  0.5798750000000  0.4219910000000 1.0
C      1  0.5690180000000  0.5749210000000  0.5263020000000 1.0
C      1  0.4786910000000  0.5155270000000  0.6202840000000 1.0
C      1  0.6149660000000  0.5139450000000  0.4576330000000 1.0
C      1  0.4067880000000  0.5162360000000  0.4226710000000 1.0
C      1  0.4790300000000  0.4856110000000  0.3800630000000 1.0
C      1  0.6144660000000  0.4840400000000  0.5422480000000 1.0
C      1  0.4054180000000  0.4824830000000  0.5794530000000 1.0
C      1  0.5398500000000  0.3923200000000  0.4986040000000 1.0
C      1  0.4815680000000  0.3958560000000  0.4696280000000 1.0
C      1  0.4829130000000  0.3923780000000  0.5342050000000 1.0
C      1  0.5373970000000  0.6047890000000  0.4997890000000 1.0
C      1  0.4793190000000  0.6068460000000  0.5318530000000 1.0
C      1  0.4822890000000  0.6076790000000  0.4650000000000 1.0
C      1  0.5522400000000  0.5175130000000  0.4786310000000 1.0
C      1  0.4564160000000  0.5262990000000  0.4616080000000 1.0
C      1  0.4880800000000  0.5211110000000  0.5564980000000 1.0
C      1  0.5553270000000  0.4748890000000  0.5191320000000 1.0
C      1  0.4536250000000  0.4758720000000  0.5399340000000 1.0
C      1  0.4926650000000  0.4830480000000  0.4449990000000 1.0
C      1  0.5730620000000  0.5716660000000  0.5764400000000 1.0
C      1  0.5310540000000  0.5730620000000  0.3958780000000 1.0
C      1  0.3944100000000  0.5733350000000  0.5247990000000 1.0
C      1  0.5745590000000  0.4268450000000  0.4218230000000 1.0
C      1  0.5314580000000  0.4261570000000  0.6038830000000 1.0
C      1  0.3961820000000  0.4276420000000  0.4749010000000 1.0
C      1  0.5724930000000  0.5017990000000  0.5247890000000 1.0
C      1  0.4861880000000  0.5062700000000  0.4225920000000 1.0
C      1  0.4391480000000  0.5026940000000  0.5526360000000 1.0
C      1  0.5743150000000  0.4939230000000  0.4733350000000 1.0
C      1  0.4846420000000  0.4951850000000  0.5766800000000 1.0
C      1  0.4430760000000  0.4986960000000  0.4506740000000 1.0
C      1  0.3880980000000  0.4755710000000  0.5157600000000 1.0
C      1  0.5681070000000  0.4751900000000  0.5885940000000 1.0
C      1  0.5424340000000  0.4755860000000  0.3957420000000 1.0
C      1  0.3889740000000  0.5242560000000  0.4861840000000 1.0
C      1  0.5693610000000  0.5240710000000  0.4108160000000 1.0
C      1  0.5417830000000  0.5237010000000  0.6031420000000 1.0
C      1  0.4316820000000  0.4370010000000  0.5091620000000 1.0
C      1  0.5407410000000  0.4367430000000  0.5554040000000 1.0
C      1  0.5301360000000  0.4411310000000  0.4408730000000 1.0
C      1  0.4315120000000  0.5638190000000  0.4918210000000 1.0
C      1  0.5371200000000  0.5590580000000  0.4438830000000 1.0
C      1  0.5265930000000  0.5602200000000  0.5601240000000 1.0
C      1  0.4993270000000  0.5986490000000  0.5504410000000 1.0
C      1  0.5435780000000  0.5968590000000  0.4730270000000 1.0
C      1  0.4555260000000  0.6011680000000  0.4730060000000 1.0
C      1  0.5014080000000  0.4037130000000  0.4505860000000 1.0
C      1  0.5457710000000  0.3991220000000  0.5258020000000 1.0
C      1  0.4562510000000  0.3997170000000  0.5272290000000 1.0
C      1  0.4877910000000  0.5119810000000  0.5263050000000 1.0
C      1  0.5269130000000  0.4994050000000  0.4829130000000 1.0
C      1  0.4825900000000  0.5220110000000  0.4778510000000 1.0
C      1  0.5020970000000  0.5025330000000  0.4678520000000 1.0
C      1  0.5283020000000  0.4822970000000  0.5069910000000 1.0
C      1  0.4739680000000  0.4866870000000  0.5208230000000 1.0
C      1  0.4575530000000  0.4769270000000  0.3990750000000 1.0
C      1  0.4324810000000  0.4735800000000  0.5898960000000 1.0
C      1  0.6109850000000  0.4738970000000  0.5141570000000 1.0
C      1  0.4560640000000  0.5246500000000  0.6025560000000 1.0
C      1  0.4328350000000  0.5262270000000  0.4113370000000 1.0
C      1  0.6096590000000  0.5230470000000  0.4856780000000 1.0
C      1  0.3792360000000  0.4522950000000  0.5313000000000 1.0
C      1  0.5869660000000  0.4526480000000  0.5880280000000 1.0
C      1  0.5311950000000  0.4521680000000  0.3823360000000 1.0
C      1  0.3795860000000  0.5465990000000  0.4694180000000 1.0
C      1  0.5868620000000  0.5473440000000  0.4133900000000 1.0
C      1  0.5314740000000  0.5469540000000  0.6177340000000 1.0
C      1  0.4525350000000  0.4496920000000  0.4408230000000 1.0
C      1  0.4719060000000  0.4451900000000  0.5768510000000 1.0
C      1  0.5820660000000  0.4447530000000  0.4866470000000 1.0
C      1  0.4473920000000  0.5531330000000  0.5617560000000 1.0
C      1  0.4713120000000  0.5556190000000  0.4217540000000 1.0
C      1  0.5765870000000  0.5507260000000  0.5109670000000 1.0
C      1  0.3802340000000  0.4739230000000  0.5909140000000 1.0
C      1  0.6373580000000  0.4777720000000  0.5588430000000 1.0
C      1  0.4802180000000  0.4777300000000  0.3522300000000 1.0
C      1  0.3809090000000  0.5226350000000  0.4113490000000 1.0
C      1  0.6384360000000  0.5213170000000  0.4423670000000 1.0
C      1  0.4815450000000  0.5234140000000  0.6480030000000 1.0
C      1  0.4884120000000  0.4393310000000  0.4153600000000 1.0
C      1  0.4311240000000  0.4333760000000  0.5579930000000 1.0
C      1  0.5838560000000  0.4339780000000  0.5320150000000 1.0
C      1  0.4853350000000  0.5635750000000  0.5861660000000 1.0
C      1  0.4309720000000  0.5667440000000  0.4427880000000 1.0
C      1  0.5802850000000  0.5607920000000  0.4669160000000 1.0
C      1  0.5450350000000  0.4744240000000  0.6106550000000 1.0
C      1  0.5734770000000  0.4744660000000  0.4041950000000 1.0
C      1  0.3820130000000  0.4750960000000  0.4843410000000 1.0
C      1  0.5462650000000  0.5251270000000  0.3883500000000 1.0
C      1  0.5723870000000  0.5245230000000  0.5942000000000 1.0
C      1  0.3810320000000  0.5250660000000  0.5170460000000 1.0
C      1  0.5950730000000  0.4981240000000  0.4998800000000 1.0
C      1  0.4517020000000  0.4990560000000  0.5832190000000 1.0
C      1  0.4529050000000  0.5020690000000  0.4184890000000 1.0
C      1  0.4858230000000  0.5310890000000  0.5049180000000 1.0
END
