TITL C-862131-2149-683 -0.0154022427725396 125000 -353.561917102267 0 0 62 (C1) n - 1
REM
REM in /home/nfs/bkarasulu/CARBON/AIRSS/Generating-Clusters/TERSOFF/Higher-Symm/FIRE-HFTN
REM
REM
REM
REM
REM
REM ./C.cell (b20cbc046b6831c77cfcea5457e17084)
REM AIRSS Version 0.9.1 bugfix July 2018 build 013d7b7c2542+ Fri, 06 Jul 2018 19:26:36 +0100
REM compiler GCC version 9.2.1 20190827 (Red Hat 9.2.1-1)
REM options -cpp -mtune=generic -march=x86-64 -g -O0 -fpre-include=/usr/include/finclude/math-vector-fortran.h
REM seed 654879971 -2019504236 -1275216641 -743118223 -1978920942 640233915 680930464 1191462596 137046668 -459661349 479216228 98667605 -2006787590 -957394293 603398781 -328161588 -1689998204 -388693522 1935567222 -1679894708 1381554319 20458866 -324566394 614242649 -1322103203 -149263544 -176424737 -593374067 -205073915 -1428255863 -712732881 1315209087 -278983234
REM
CELL 1.54180   50.00000   50.00000   50.00000   90.00000   90.00000   90.00000
LATT -1
SFAC C  
C      1  0.4490260000000  0.4637040000000  0.5242440000000 1.0
C      1  0.4519550000000  0.5325400000000  0.5212510000000 1.0
C      1  0.4404860000000  0.4369390000000  0.5110530000000 1.0
C      1  0.4422280000000  0.5570060000000  0.5045450000000 1.0
C      1  0.4770950000000  0.5639870000000  0.4681860000000 1.0
C      1  0.4730870000000  0.4334900000000  0.4713580000000 1.0
C      1  0.5024970000000  0.5488360000000  0.5413330000000 1.0
C      1  0.5013620000000  0.4515110000000  0.5418920000000 1.0
C      1  0.5215670000000  0.4595420000000  0.5188780000000 1.0
C      1  0.5255920000000  0.5447260000000  0.5210200000000 1.0
C      1  0.5030460000000  0.5310880000000  0.5648860000000 1.0
C      1  0.5025330000000  0.4688340000000  0.5657650000000 1.0
C      1  0.4436940000000  0.4365190000000  0.4811830000000 1.0
C      1  0.4487930000000  0.5550800000000  0.4753400000000 1.0
C      1  0.4967090000000  0.5269520000000  0.4655010000000 1.0
C      1  0.4853090000000  0.4735400000000  0.4661470000000 1.0
C      1  0.4714050000000  0.5146040000000  0.4613940000000 1.0
C      1  0.4565410000000  0.4754780000000  0.4588970000000 1.0
C      1  0.4377200000000  0.4820490000000  0.5016210000000 1.0
C      1  0.4423370000000  0.5120570000000  0.4992240000000 1.0
C      1  0.5332620000000  0.5162180000000  0.4829890000000 1.0
C      1  0.5226190000000  0.4902100000000  0.4752780000000 1.0
C      1  0.5259990000000  0.4853230000000  0.5708370000000 1.0
C      1  0.5262850000000  0.5143590000000  0.5702200000000 1.0
C      1  0.5899290000000  0.4667960000000  0.4694450000000 1.0
C      1  0.5945580000000  0.5350900000000  0.4724840000000 1.0
C      1  0.4835350000000  0.5409860000000  0.5174000000000 1.0
C      1  0.4796190000000  0.4581490000000  0.5189070000000 1.0
C      1  0.5343240000000  0.5172500000000  0.5141450000000 1.0
C      1  0.5174110000000  0.4864070000000  0.5078640000000 1.0
C      1  0.4829310000000  0.4391050000000  0.4422850000000 1.0
C      1  0.4885650000000  0.5594940000000  0.4402470000000 1.0
C      1  0.4554160000000  0.5143950000000  0.5694440000000 1.0
C      1  0.4550250000000  0.4852040000000  0.5707350000000 1.0
C      1  0.5427160000000  0.4738750000000  0.4624070000000 1.0
C      1  0.5489860000000  0.5319980000000  0.4659960000000 1.0
C      1  0.4915630000000  0.4516710000000  0.4903390000000 1.0
C      1  0.4970520000000  0.5495440000000  0.4892580000000 1.0
C      1  0.5025890000000  0.4223580000000  0.5475780000000 1.0
C      1  0.5000680000000  0.5779130000000  0.5476560000000 1.0
C      1  0.5272910000000  0.5650640000000  0.4963550000000 1.0
C      1  0.5237510000000  0.4389370000000  0.4944510000000 1.0
C      1  0.5509850000000  0.5593810000000  0.4772510000000 1.0
C      1  0.5448870000000  0.4467800000000  0.4744420000000 1.0
C      1  0.5744920000000  0.4427920000000  0.4786400000000 1.0
C      1  0.5809290000000  0.5597770000000  0.4832430000000 1.0
C      1  0.5706750000000  0.4870640000000  0.4581980000000 1.0
C      1  0.5741040000000  0.5174190000000  0.4584980000000 1.0
C      1  0.4788100000000  0.5274000000000  0.5800320000000 1.0
C      1  0.4786220000000  0.4726590000000  0.5812820000000 1.0
C      1  0.4979410000000  0.4867780000000  0.4165320000000 1.0
C      1  0.5092890000000  0.5148010000000  0.4162300000000 1.0
C      1  0.4991820000000  0.4675060000000  0.4392860000000 1.0
C      1  0.5075500000000  0.5346730000000  0.4383830000000 1.0
C      1  0.5237340000000  0.5927740000000  0.5058570000000 1.0
C      1  0.5238090000000  0.4109310000000  0.5036150000000 1.0
C      1  0.4362560000000  0.4657910000000  0.4762780000000 1.0
C      1  0.4473020000000  0.5245970000000  0.4728450000000 1.0
C      1  0.5134760000000  0.4031410000000  0.5292010000000 1.0
C      1  0.5104390000000  0.5987180000000  0.5306280000000 1.0
C      1  0.4397770000000  0.4701260000000  0.5513190000000 1.0
C      1  0.4412650000000  0.5280650000000  0.5482020000000 1.0
END
