TITL C-862129-6180-1055 0.000342313100836022 125000 -597.376093824071 0 0 110 (C4h) n - 1
REM
REM in /home/nfs/bkarasulu/CARBON/AIRSS/Generating-Clusters/TERSOFF/Higher-Symm/FIRE-HFTN
REM
REM
REM
REM
REM
REM ./C.cell (b20cbc046b6831c77cfcea5457e17084)
REM AIRSS Version 0.9.1 bugfix July 2018 build 013d7b7c2542+ Fri, 06 Jul 2018 19:26:36 +0100
REM compiler GCC version 9.2.1 20190827 (Red Hat 9.2.1-1)
REM options -cpp -mtune=generic -march=x86-64 -g -O0 -fpre-include=/usr/include/finclude/math-vector-fortran.h
REM seed -1373566388 1266576961 140919663 628051595 -920209851 -48256373 1081551996 1412443324 -1220761004 951764179 -502293786 1067997076 1820160475 109761252 1217385628 1834899803 -1856516664 2007003544 553973978 -829031437 -1705056654 804634024 -1589839707 1013470031 487533030 -1539983565 1404648066 -1936697535 1560677466 1403193906 984915487 1699889769 387697322
REM
CELL 1.54180   50.00000   50.00000   50.00000   90.00000   90.00000   90.00000
LATT -1
SFAC C  
C      1  0.5803870000000  0.5498650000000  0.4511270000000 1.0
C      1  0.5803870000000  0.4513410000000  0.4504910000000 1.0
C      1  0.5803870000000  0.4507060000000  0.5490150000000 1.0
C      1  0.5803870000000  0.5492300000000  0.5496510000000 1.0
C      1  0.4224480000000  0.5498650000000  0.4511270000000 1.0
C      1  0.4224480000000  0.4513410000000  0.4504910000000 1.0
C      1  0.4224480000000  0.4507060000000  0.5490150000000 1.0
C      1  0.4224480000000  0.5492300000000  0.5496510000000 1.0
C      1  0.4866500000000  0.5453330000000  0.5885600000000 1.0
C      1  0.4866500000000  0.5887740000000  0.4550230000000 1.0
C      1  0.4866500000000  0.4552380000000  0.4115820000000 1.0
C      1  0.4866500000000  0.4117970000000  0.5451190000000 1.0
C      1  0.5161840000000  0.5453330000000  0.5885600000000 1.0
C      1  0.5161840000000  0.5887740000000  0.4550230000000 1.0
C      1  0.5161840000000  0.4552380000000  0.4115820000000 1.0
C      1  0.5161840000000  0.4117970000000  0.5451190000000 1.0
C      1  0.4443760000000  0.4444860000000  0.5251060000000 1.0
C      1  0.4443760000000  0.5253210000000  0.5558700000000 1.0
C      1  0.4443760000000  0.5560850000000  0.4750360000000 1.0
C      1  0.4443760000000  0.4752500000000  0.4442720000000 1.0
C      1  0.5584580000000  0.4444860000000  0.5251060000000 1.0
C      1  0.5584580000000  0.5253210000000  0.5558700000000 1.0
C      1  0.5584580000000  0.5560850000000  0.4750360000000 1.0
C      1  0.5584580000000  0.4752500000000  0.4442720000000 1.0
C      1  0.4152010000000  0.5141040000000  0.4824350000000 1.0
C      1  0.4152010000000  0.4826500000000  0.4862530000000 1.0
C      1  0.4152010000000  0.4864670000000  0.5177070000000 1.0
C      1  0.4152010000000  0.5179210000000  0.5138890000000 1.0
C      1  0.5876340000000  0.5141040000000  0.4824350000000 1.0
C      1  0.5876340000000  0.4826500000000  0.4862530000000 1.0
C      1  0.5876340000000  0.4864670000000  0.5177070000000 1.0
C      1  0.5876340000000  0.5179210000000  0.5138890000000 1.0
C      1  0.4541360000000  0.5129870000000  0.4091720000000 1.0
C      1  0.4541360000000  0.4093860000000  0.4873690000000 1.0
C      1  0.4541360000000  0.4875830000000  0.5909700000000 1.0
C      1  0.4541360000000  0.5911840000000  0.5127730000000 1.0
C      1  0.5486990000000  0.5129870000000  0.4091720000000 1.0
C      1  0.5486990000000  0.4093860000000  0.4873690000000 1.0
C      1  0.5486990000000  0.4875830000000  0.5909700000000 1.0
C      1  0.5486990000000  0.5911840000000  0.5127730000000 1.0
C      1  0.5299040000000  0.5864030000000  0.5340780000000 1.0
C      1  0.5299040000000  0.5342920000000  0.4139540000000 1.0
C      1  0.5299040000000  0.4141680000000  0.4660640000000 1.0
C      1  0.5299040000000  0.4662790000000  0.5861880000000 1.0
C      1  0.4729300000000  0.5864030000000  0.5340780000000 1.0
C      1  0.4729300000000  0.5342920000000  0.4139540000000 1.0
C      1  0.4729300000000  0.4141680000000  0.4660640000000 1.0
C      1  0.4729300000000  0.4662790000000  0.5861880000000 1.0
C      1  0.5577510000000  0.5253330000000  0.5236140000000 1.0
C      1  0.5577510000000  0.5238290000000  0.4750230000000 1.0
C      1  0.5577510000000  0.4752380000000  0.4765280000000 1.0
C      1  0.5577510000000  0.4767420000000  0.5251190000000 1.0
C      1  0.4450840000000  0.5253330000000  0.5236140000000 1.0
C      1  0.4450840000000  0.5238290000000  0.4750230000000 1.0
C      1  0.4450840000000  0.4752380000000  0.4765280000000 1.0
C      1  0.4450840000000  0.4767420000000  0.5251190000000 1.0
C      1  0.4735610000000  0.5614360000000  0.4620070000000 1.0
C      1  0.4735610000000  0.4622210000000  0.4389200000000 1.0
C      1  0.4735610000000  0.4391340000000  0.5381350000000 1.0
C      1  0.4735610000000  0.5383500000000  0.5612220000000 1.0
C      1  0.5292740000000  0.5614360000000  0.4620070000000 1.0
C      1  0.5292740000000  0.4622210000000  0.4389200000000 1.0
C      1  0.5292740000000  0.4391340000000  0.5381350000000 1.0
C      1  0.5292740000000  0.5383500000000  0.5612220000000 1.0
C      1  0.4850890000000  0.5597650000000  0.5381400000000 1.0
C      1  0.4850890000000  0.5383550000000  0.4405910000000 1.0
C      1  0.4850890000000  0.4408060000000  0.4620020000000 1.0
C      1  0.4850890000000  0.4622160000000  0.5595510000000 1.0
C      1  0.5177460000000  0.5597650000000  0.5381400000000 1.0
C      1  0.5177460000000  0.5383550000000  0.4405910000000 1.0
C      1  0.5177460000000  0.4408060000000  0.4620020000000 1.0
C      1  0.5177460000000  0.4622160000000  0.5595510000000 1.0
C      1  0.5328300000000  0.4837290000000  0.5424460000000 1.0
C      1  0.5328300000000  0.5426600000000  0.5166270000000 1.0
C      1  0.5328300000000  0.5168420000000  0.4576960000000 1.0
C      1  0.5328300000000  0.4579110000000  0.4835140000000 1.0
C      1  0.4700050000000  0.4837290000000  0.5424460000000 1.0
C      1  0.4700050000000  0.5426600000000  0.5166270000000 1.0
C      1  0.4700050000000  0.5168420000000  0.4576960000000 1.0
C      1  0.4700050000000  0.4579110000000  0.4835140000000 1.0
C      1  0.4162830000000  0.5216850000000  0.4411490000000 1.0
C      1  0.4162830000000  0.4413640000000  0.4786720000000 1.0
C      1  0.4162830000000  0.4788860000000  0.5589920000000 1.0
C      1  0.4162830000000  0.5592070000000  0.5214700000000 1.0
C      1  0.5865520000000  0.5216850000000  0.4411490000000 1.0
C      1  0.5865520000000  0.4413640000000  0.4786720000000 1.0
C      1  0.5865520000000  0.4788860000000  0.5589920000000 1.0
C      1  0.5865520000000  0.5592070000000  0.5214700000000 1.0
C      1  0.4861380000000  0.4790210000000  0.4927320000000 1.0
C      1  0.4861380000000  0.4929470000000  0.5213350000000 1.0
C      1  0.4861380000000  0.5215500000000  0.5074100000000 1.0
C      1  0.4861380000000  0.5076240000000  0.4788070000000 1.0
C      1  0.5166960000000  0.4790210000000  0.4927320000000 1.0
C      1  0.5166960000000  0.4929470000000  0.5213350000000 1.0
C      1  0.5166960000000  0.5215500000000  0.5074100000000 1.0
C      1  0.5166960000000  0.5076240000000  0.4788070000000 1.0
C      1  0.4367560000000  0.5022240000000  0.4299990000000 1.0
C      1  0.4367560000000  0.4302130000000  0.4981320000000 1.0
C      1  0.4367560000000  0.4983470000000  0.5701430000000 1.0
C      1  0.4367560000000  0.5703580000000  0.5020100000000 1.0
C      1  0.5660790000000  0.5022240000000  0.4299990000000 1.0
C      1  0.5660790000000  0.4302130000000  0.4981320000000 1.0
C      1  0.5660790000000  0.4983470000000  0.5701430000000 1.0
C      1  0.5660790000000  0.5703580000000  0.5020100000000 1.0
C      1  0.5014170000000  0.4449500000000  0.5228470000000 1.0
C      1  0.5014170000000  0.4775090000000  0.4447360000000 1.0
C      1  0.5014170000000  0.5230620000000  0.5554060000000 1.0
C      1  0.5014170000000  0.5556200000000  0.4772950000000 1.0
C      1  0.5521300000000  0.5002850000000  0.5000710000000 1.0
C      1  0.4507040000000  0.5002850000000  0.5000710000000 1.0
END
