TITL C-862502-1143-886 -0.000404109282316935 125000 -508.675315787901 0 0 90 (C5) n - 1
REM
REM in /home/nfs/bkarasulu/CARBON/AIRSS/Generating-Clusters/TERSOFF/Higher-Symm/FIRE-HFTN
REM
REM
REM
REM
REM
REM ./C.cell (b20cbc046b6831c77cfcea5457e17084)
REM AIRSS Version 0.9.1 bugfix July 2018 build 013d7b7c2542+ Fri, 06 Jul 2018 19:26:36 +0100
REM compiler GCC version 9.2.1 20190827 (Red Hat 9.2.1-1)
REM options -cpp -mtune=generic -march=x86-64 -g -O0 -fpre-include=/usr/include/finclude/math-vector-fortran.h
REM seed -983002578 -1115685333 1774227994 -1547331998 -821426444 -1215614504 -1942024765 -1686233888 1357401101 -177566650 -1515815812 -1355791559 -1840307974 -523526387 -1441750228 1524877734 742077947 -1500488561 1902633223 1290453032 1727822904 1258682482 -1782964589 -368773989 -422612947 -1902590470 -1294545133 705581785 -49130723 -1824211193 2121967496 2086439909 1053400631
REM
CELL 1.54180   50.00000   50.00000   50.00000   90.00000   90.00000   90.00000
LATT -1
SFAC C  
C      1  0.4720620000000  0.5284200000000  0.5268910000000 1.0
C      1  0.4720620000000  0.4832080000000  0.5353380000000 1.0
C      1  0.4720610000000  0.4612030000000  0.4949500000000 1.0
C      1  0.4720610000000  0.4928140000000  0.4615410000000 1.0
C      1  0.4720620000000  0.5343570000000  0.4812820000000 1.0
C      1  0.5674460000000  0.5345640000000  0.4571570000000 1.0
C      1  0.5674470000000  0.5514260000000  0.5196330000000 1.0
C      1  0.5674470000000  0.4972180000000  0.5549760000000 1.0
C      1  0.5674460000000  0.4468540000000  0.5143430000000 1.0
C      1  0.5674460000000  0.4699350000000  0.4538880000000 1.0
C      1  0.5156200000000  0.4633700000000  0.4394170000000 1.0
C      1  0.5156200000000  0.5462990000000  0.4464410000000 1.0
C      1  0.5156210000000  0.5652440000000  0.5274820000000 1.0
C      1  0.5156210000000  0.4940240000000  0.5705430000000 1.0
C      1  0.5156200000000  0.4310620000000  0.5161160000000 1.0
C      1  0.5391630000000  0.4822220000000  0.5552950000000 1.0
C      1  0.5391620000000  0.4419170000000  0.5001790000000 1.0
C      1  0.5391620000000  0.4818800000000  0.4448150000000 1.0
C      1  0.5391630000000  0.5468840000000  0.4657140000000 1.0
C      1  0.5391630000000  0.5470950000000  0.5339940000000 1.0
C      1  0.5803470000000  0.4853290000000  0.4774330000000 1.0
C      1  0.5803480000000  0.5169280000000  0.4790730000000 1.0
C      1  0.5803480000000  0.5251320000000  0.5096320000000 1.0
C      1  0.5803480000000  0.4986040000000  0.5268790000000 1.0
C      1  0.5803470000000  0.4740040000000  0.5069790000000 1.0
C      1  0.4398280000000  0.5528100000000  0.5501680000000 1.0
C      1  0.4398280000000  0.4686080000000  0.5657270000000 1.0
C      1  0.4398270000000  0.4277900000000  0.4904550000000 1.0
C      1  0.4398270000000  0.4867650000000  0.4283740000000 1.0
C      1  0.4398270000000  0.5640310000000  0.4652790000000 1.0
C      1  0.4994300000000  0.4783760000000  0.5217060000000 1.0
C      1  0.4994300000000  0.4726740000000  0.4861420000000 1.0
C      1  0.4994300000000  0.5047360000000  0.4697290000000 1.0
C      1  0.4994310000000  0.5302530000000  0.4951490000000 1.0
C      1  0.4994310000000  0.5139620000000  0.5272730000000 1.0
C      1  0.5123140000000  0.5193310000000  0.5567630000000 1.0
C      1  0.5123130000000  0.4519890000000  0.5359250000000 1.0
C      1  0.5123120000000  0.4509960000000  0.4654400000000 1.0
C      1  0.5123130000000  0.5177250000000  0.4427150000000 1.0
C      1  0.5123130000000  0.5599580000000  0.4991560000000 1.0
C      1  0.4418280000000  0.5391270000000  0.4420890000000 1.0
C      1  0.4418290000000  0.5671690000000  0.5193160000000 1.0
C      1  0.4418290000000  0.5023860000000  0.5698500000000 1.0
C      1  0.4418280000000  0.4343070000000  0.5238540000000 1.0
C      1  0.4418280000000  0.4570140000000  0.4448930000000 1.0
C      1  0.5389070000000  0.5209810000000  0.5150240000000 1.0
C      1  0.5389070000000  0.4921940000000  0.5245970000000 1.0
C      1  0.5389070000000  0.4741940000000  0.5001770000000 1.0
C      1  0.5389070000000  0.4918560000000  0.4755120000000 1.0
C      1  0.5389070000000  0.5207730000000  0.4846880000000 1.0
C      1  0.4453060000000  0.4823680000000  0.5194440000000 1.0
C      1  0.4453050000000  0.4760600000000  0.4892400000000 1.0
C      1  0.4453060000000  0.5028360000000  0.4739060000000 1.0
C      1  0.4453060000000  0.5256940000000  0.4946340000000 1.0
C      1  0.4453060000000  0.5130440000000  0.5227780000000 1.0
C      1  0.4715900000000  0.5400490000000  0.4519280000000 1.0
C      1  0.4715910000000  0.5580960000000  0.5232340000000 1.0
C      1  0.4715910000000  0.4958560000000  0.5624320000000 1.0
C      1  0.4715900000000  0.4393430000000  0.5153510000000 1.0
C      1  0.4715900000000  0.4666560000000  0.4470560000000 1.0
C      1  0.4657730000000  0.5610790000000  0.5646650000000 1.0
C      1  0.4657730000000  0.4573740000000  0.5780720000000 1.0
C      1  0.4657710000000  0.4125780000000  0.4835860000000 1.0
C      1  0.4657710000000  0.4885960000000  0.4117840000000 1.0
C      1  0.4657720000000  0.5803750000000  0.4618940000000 1.0
C      1  0.5371010000000  0.5061460000000  0.4297020000000 1.0
C      1  0.5371020000000  0.5687560000000  0.4841220000000 1.0
C      1  0.5371020000000  0.5363470000000  0.5604850000000 1.0
C      1  0.5371020000000  0.4537070000000  0.5532590000000 1.0
C      1  0.5371010000000  0.4350420000000  0.4724300000000 1.0
C      1  0.4890760000000  0.5770670000000  0.4160240000000 1.0
C      1  0.4890780000000  0.6036810000000  0.5473450000000 1.0
C      1  0.4890770000000  0.4870110000000  0.6132370000000 1.0
C      1  0.4890760000000  0.3882910000000  0.5226390000000 1.0
C      1  0.4890750000000  0.4439490000000  0.4007550000000 1.0
C      1  0.4897910000000  0.4136720000000  0.5072430000000 1.0
C      1  0.4897900000000  0.4664350000000  0.4201350000000 1.0
C      1  0.4897910000000  0.5655840000000  0.4433980000000 1.0
C      1  0.4897920000000  0.5740980000000  0.5448830000000 1.0
C      1  0.4897920000000  0.4802120000000  0.5843410000000 1.0
C      1  0.4330000000000  0.5231150000000  0.5487460000000 1.0
C      1  0.4329990000000  0.4607840000000  0.5370470000000 1.0
C      1  0.4329990000000  0.4526480000000  0.4741510000000 1.0
C      1  0.4329990000000  0.5099520000000  0.4469780000000 1.0
C      1  0.4330000000000  0.5535030000000  0.4930800000000 1.0
C      1  0.5614190000000  0.5224740000000  0.5687940000000 1.0
C      1  0.5614180000000  0.4415170000000  0.5426320000000 1.0
C      1  0.5614170000000  0.4413810000000  0.4575540000000 1.0
C      1  0.5614180000000  0.5222540000000  0.4311340000000 1.0
C      1  0.5614190000000  0.5723720000000  0.4998840000000 1.0
END
