TITL C-862503-991-441 0.814220389877743 125000 -924.615993887187 0 0 167 (C3) n - 1
REM
REM in /home/nfs/bkarasulu/CARBON/AIRSS/Generating-Clusters/TERSOFF/Higher-Symm/FIRE-HFTN
REM
REM
REM
REM
REM
REM ./C.cell (b20cbc046b6831c77cfcea5457e17084)
REM AIRSS Version 0.9.1 bugfix July 2018 build 013d7b7c2542+ Fri, 06 Jul 2018 19:26:36 +0100
REM compiler GCC version 9.2.1 20190827 (Red Hat 9.2.1-1)
REM options -cpp -mtune=generic -march=x86-64 -g -O0 -fpre-include=/usr/include/finclude/math-vector-fortran.h
REM seed 1947558833 -1307894690 1185753822 1343630208 -1078788079 -484503424 -1831271954 2096206890 894855182 -1953225124 1346865431 -443092159 -216683212 1182760882 -1177557407 295778153 994672555 1868543464 1251317648 388524319 223432859 588615072 -582584283 1237547412 -682951114 -927473514 82802143 2018656497 -945080314 -103590531 1768019910 1391777393 493027661
REM
CELL 1.54180   50.00000   50.00000   50.00000   90.00000   90.00000   90.00000
LATT -1
SFAC C  
C      1  0.5538010000000  0.5655270000000  0.5518330000000 1.0
C      1  0.5179430000000  0.5655270000000  0.4273670000000 1.0
C      1  0.4280810000000  0.5655270000000  0.5206540000000 1.0
C      1  0.5847040000000  0.5671140000000  0.4426880000000 1.0
C      1  0.4079700000000  0.5671140000000  0.4551770000000 1.0
C      1  0.5071520000000  0.5671140000000  0.6019890000000 1.0
C      1  0.6131750000000  0.5755510000000  0.5143450000000 1.0
C      1  0.4557900000000  0.5755510000000  0.3946910000000 1.0
C      1  0.4308600000000  0.5755510000000  0.5908170000000 1.0
C      1  0.5441400000000  0.5295260000000  0.5099430000000 1.0
C      1  0.4864950000000  0.5295260000000  0.4566780000000 1.0
C      1  0.4691890000000  0.5295260000000  0.5332320000000 1.0
C      1  0.5404080000000  0.5392360000000  0.5392980000000 1.0
C      1  0.5137840000000  0.5392360000000  0.4452330000000 1.0
C      1  0.4456330000000  0.5392360000000  0.5153230000000 1.0
C      1  0.4819380000000  0.5038150000000  0.5453410000000 1.0
C      1  0.5482520000000  0.5038150000000  0.4928480000000 1.0
C      1  0.4696350000000  0.5038150000000  0.4616650000000 1.0
C      1  0.5131270000000  0.5969360000000  0.5157080000000 1.0
C      1  0.5069950000000  0.5969360000000  0.4806540000000 1.0
C      1  0.4797030000000  0.5969360000000  0.5034920000000 1.0
C      1  0.4302400000000  0.5928250000000  0.5079860000000 1.0
C      1  0.5417510000000  0.5928250000000  0.5562970000000 1.0
C      1  0.5278340000000  0.5928250000000  0.4355700000000 1.0
C      1  0.5477330000000  0.5012280000000  0.4638630000000 1.0
C      1  0.4447930000000  0.5012280000000  0.4766070000000 1.0
C      1  0.5072990000000  0.5012280000000  0.5593840000000 1.0
C      1  0.4906490000000  0.5779480000000  0.4629620000000 1.0
C      1  0.4725540000000  0.5779480000000  0.5264940000000 1.0
C      1  0.5366220000000  0.5779480000000  0.5103980000000 1.0
C      1  0.5178660000000  0.5404720000000  0.6052260000000 1.0
C      1  0.5821510000000  0.5404720000000  0.4317910000000 1.0
C      1  0.3998090000000  0.5404720000000  0.4628360000000 1.0
C      1  0.4739720000000  0.3775600000000  0.4761160000000 1.0
C      1  0.4922840000000  0.3775600000000  0.5343590000000 1.0
C      1  0.5335690000000  0.3775600000000  0.4893790000000 1.0
C      1  0.5941900000000  0.4414910000000  0.4636900000000 1.0
C      1  0.4214150000000  0.4414910000000  0.4364600000000 1.0
C      1  0.4842200000000  0.4414910000000  0.5997030000000 1.0
C      1  0.3916480000000  0.4440750000000  0.4753610000000 1.0
C      1  0.5327930000000  0.4440760000000  0.6060310000000 1.0
C      1  0.5753840000000  0.4440760000000  0.4184620000000 1.0
C      1  0.5777550000000  0.4745570000000  0.4162260000000 1.0
C      1  0.3885270000000  0.4745570000000  0.4744260000000 1.0
C      1  0.5335430000000  0.4745570000000  0.6092020000000 1.0
C      1  0.5343260000000  0.5531470000000  0.4952130000000 1.0
C      1  0.4786460000000  0.5531470000000  0.4725420000000 1.0
C      1  0.4868530000000  0.5531470000000  0.5320980000000 1.0
C      1  0.4248000000000  0.4557610000000  0.5117990000000 1.0
C      1  0.5477740000000  0.4557620000000  0.5591020000000 1.0
C      1  0.5272520000000  0.4557620000000  0.4289520000000 1.0
C      1  0.4690970000000  0.5189910000000  0.5923490000000 1.0
C      1  0.5953830000000  0.5189910000000  0.4804640000000 1.0
C      1  0.4353450000000  0.5189910000000  0.4270400000000 1.0
C      1  0.5733700000000  0.4193910000000  0.4635520000000 1.0
C      1  0.4317050000000  0.4193910000000  0.4545600000000 1.0
C      1  0.4947500000000  0.4193910000000  0.5817420000000 1.0
C      1  0.4990270000000  0.5178600000000  0.6068970000000 1.0
C      1  0.5930170000000  0.5178600000000  0.4472710000000 1.0
C      1  0.4077820000000  0.5178600000000  0.4456860000000 1.0
C      1  0.5154850000000  0.6018790000000  0.5458950000000 1.0
C      1  0.5319580000000  0.6018790000000  0.4635180000000 1.0
C      1  0.4523820000000  0.6018790000000  0.4904410000000 1.0
C      1  0.5401370000000  0.4611190000000  0.4032640000000 1.0
C      1  0.3961100000000  0.4611190000000  0.5134840000000 1.0
C      1  0.5635780000000  0.4611190000000  0.5831050000000 1.0
C      1  0.5638040000000  0.5873150000000  0.5039360000000 1.0
C      1  0.4714620000000  0.5873150000000  0.4426520000000 1.0
C      1  0.4645590000000  0.5873150000000  0.5532650000000 1.0
C      1  0.4057170000000  0.4577040000000  0.5550430000000 1.0
C      1  0.5947650000000  0.4577050000000  0.5540060000000 1.0
C      1  0.4993430000000  0.4577040000000  0.3908040000000 1.0
C      1  0.4338040000000  0.4684250000000  0.4389640000000 1.0
C      1  0.4801940000000  0.4684250000000  0.5877220000000 1.0
C      1  0.5858270000000  0.4684250000000  0.4731680000000 1.0
C      1  0.4680320000000  0.5342490000000  0.4259300000000 1.0
C      1  0.4517930000000  0.5342490000000  0.5645960000000 1.0
C      1  0.5800000000000  0.5342490000000  0.5093270000000 1.0
C      1  0.4838600000000  0.4644460000000  0.4582840000000 1.0
C      1  0.4718980000000  0.4644460000000  0.5347120000000 1.0
C      1  0.5440670000000  0.4644460000000  0.5068570000000 1.0
C      1  0.4511080000000  0.4358600000000  0.5628660000000 1.0
C      1  0.5788440000000  0.4358600000000  0.5107850000000 1.0
C      1  0.4698730000000  0.4358600000000  0.4262020000000 1.0
C      1  0.5552280000000  0.5332830000000  0.4229620000000 1.0
C      1  0.4056240000000  0.5332830000000  0.4905660000000 1.0
C      1  0.5389730000000  0.5332830000000  0.5863260000000 1.0
C      1  0.5646290000000  0.4796160000000  0.4557620000000 1.0
C      1  0.4293290000000  0.4796160000000  0.4660250000000 1.0
C      1  0.5058670000000  0.4796160000000  0.5780660000000 1.0
C      1  0.5745870000000  0.4628780000000  0.4997620000000 1.0
C      1  0.4624550000000  0.4628770000000  0.4354010000000 1.0
C      1  0.4627830000000  0.4628780000000  0.5646910000000 1.0
C      1  0.3927890000000  0.4911920000000  0.4488610000000 1.0
C      1  0.5092730000000  0.4911920000000  0.6182930000000 1.0
C      1  0.5977630000000  0.4911920000000  0.4326990000000 1.0
C      1  0.4815910000000  0.3998430000000  0.4590670000000 1.0
C      1  0.4737110000000  0.3998430000000  0.5362860000000 1.0
C      1  0.5445240000000  0.3998430000000  0.5045010000000 1.0
C      1  0.4328940000000  0.5218950000000  0.4944980000000 1.0
C      1  0.5287430000000  0.5218950000000  0.5607420000000 1.0
C      1  0.5381880000000  0.5218950000000  0.4446130000000 1.0
C      1  0.4195640000000  0.5201740000000  0.5603980000000 1.0
C      1  0.5924790000000  0.5201740000000  0.5393370000000 1.0
C      1  0.4877820000000  0.5201740000000  0.4001180000000 1.0
C      1  0.4611200000000  0.4152410000000  0.4449280000000 1.0
C      1  0.4717010000000  0.4152410000000  0.5610840000000 1.0
C      1  0.5670040000000  0.4152410000000  0.4938420000000 1.0
C      1  0.4339670000000  0.5747960000000  0.4641510000000 1.0
C      1  0.5019250000000  0.5747960000000  0.5749870000000 1.0
C      1  0.5639330000000  0.5747960000000  0.4607150000000 1.0
C      1  0.4842820000000  0.4874800000000  0.3924210000000 1.0
C      1  0.4146480000000  0.4874800000000  0.5672780000000 1.0
C      1  0.6008950000000  0.4874800000000  0.5401550000000 1.0
C      1  0.5223530000000  0.4245310000000  0.4334710000000 1.0
C      1  0.4311630000000  0.4245310000000  0.5137830000000 1.0
C      1  0.5463100000000  0.4245310000000  0.5526000000000 1.0
C      1  0.5634630000000  0.5018790000000  0.5730320000000 1.0
C      1  0.5314710000000  0.5018790000000  0.4084000000000 1.0
C      1  0.4048910000000  0.5018780000000  0.5184220000000 1.0
C      1  0.4757020000000  0.4419960000000  0.4994450000000 1.0
C      1  0.5116240000000  0.4419960000000  0.5211970000000 1.0
C      1  0.5125000000000  0.4419960000000  0.4792120000000 1.0
C      1  0.5048570000000  0.5556960000000  0.5541740000000 1.0
C      1  0.5444420000000  0.5556960000000  0.4685830000000 1.0
C      1  0.4505260000000  0.5556960000000  0.4770970000000 1.0
C      1  0.4649620000000  0.5664300000000  0.4207870000000 1.0
C      1  0.4488730000000  0.5664300000000  0.5698270000000 1.0
C      1  0.5859900000000  0.5664300000000  0.5092400000000 1.0
C      1  0.3841770000000  0.4867290000000  0.5025160000000 1.0
C      1  0.5600450000000  0.4867290000000  0.5989240000000 1.0
C      1  0.5556030000000  0.4867290000000  0.3984140000000 1.0
C      1  0.4746130000000  0.5108010000000  0.5045890000000 1.0
C      1  0.5166220000000  0.5108010000000  0.5195680000000 1.0
C      1  0.5085900000000  0.5108010000000  0.4756970000000 1.0
C      1  0.5474250000000  0.4751810000000  0.5366510000000 1.0
C      1  0.5079830000000  0.4751810000000  0.4404800000000 1.0
C      1  0.4444170000000  0.4751810000000  0.5227230000000 1.0
C      1  0.4410840000000  0.4845640000000  0.5546810000000 1.0
C      1  0.5767680000000  0.4845650000000  0.5235580000000 1.0
C      1  0.4819730000000  0.4845640000000  0.4216150000000 1.0
C      1  0.4980890000000  0.4677250000000  0.5241270000000 1.0
C      1  0.5218050000000  0.4677250000000  0.4894680000000 1.0
C      1  0.4799310000000  0.4677250000000  0.4862590000000 1.0
C      1  0.4173100000000  0.4280220000000  0.4811730000000 1.0
C      1  0.5249950000000  0.4280220000000  0.5809020000000 1.0
C      1  0.5575200000000  0.4280220000000  0.4377790000000 1.0
C      1  0.4019190000000  0.5499000000000  0.5174130000000 1.0
C      1  0.5640750000000  0.5499000000000  0.5761110000000 1.0
C      1  0.5338310000000  0.5499000000000  0.4063300000000 1.0
C      1  0.5618280000000  0.6004970000000  0.4758440000000 1.0
C      1  0.4481210000000  0.6004970000000  0.4584090000000 1.0
C      1  0.4898760000000  0.6004970000000  0.5656000000000 1.0
C      1  0.4565430000000  0.4071210000000  0.5128530000000 1.0
C      1  0.5328140000000  0.4071210000000  0.5310850000000 1.0
C      1  0.5104680000000  0.4071210000000  0.4559160000000 1.0
C      1  0.4955090000000  0.4345610000000  0.4115790000000 1.0
C      1  0.4256260000000  0.4345610000000  0.5479760000000 1.0
C      1  0.5786910000000  0.4345610000000  0.5402980000000 1.0
C      1  0.4315200000000  0.4902690000000  0.4187960000000 1.0
C      1  0.4638700000000  0.4902690000000  0.5997840000000 1.0
C      1  0.6044350000000  0.4902690000000  0.4812740000000 1.0
C      1  0.5796340000000  0.5253740000000  0.5669740000000 1.0
C      1  0.5181390000000  0.5253730000000  0.3974240000000 1.0
C      1  0.4020520000000  0.5253730000000  0.5354550000000 1.0
C      1  0.4999420000000  0.4910460000000  0.4999510000000 1.0
C      1  0.4999420000000  0.4225250000000  0.4999510000000 1.0
END
