TITL C-862507-1800-67 -0.000226617362813981 125000 -184.364765308512 0 0 35 (Cs) n - 1
REM
REM in /home/nfs/bkarasulu/CARBON/AIRSS/Generating-Clusters/TERSOFF/Higher-Symm/FIRE-HFTN
REM
REM
REM
REM
REM
REM ./C.cell (b20cbc046b6831c77cfcea5457e17084)
REM AIRSS Version 0.9.1 bugfix July 2018 build 013d7b7c2542+ Fri, 06 Jul 2018 19:26:36 +0100
REM compiler GCC version 9.2.1 20190827 (Red Hat 9.2.1-1)
REM options -cpp -mtune=generic -march=x86-64 -g -O0 -fpre-include=/usr/include/finclude/math-vector-fortran.h
REM seed 1713203015 651381280 -1433154061 59993676 -1667138098 -1181329730 586486210 1447584675 -1489433646 558458416 -1746366275 362798147 1809468730 999274219 -360599929 1890998375 -461199309 -1763127389 1736859646 1779651416 2131077740 680793794 730994208 69166317 -64386222 -315937539 912816676 1191327337 -386206474 1290599431 75682526 -465367245 679824647
REM
CELL 1.54180   50.00000   50.00000   50.00000   90.00000   90.00000   90.00000
LATT -1
SFAC C  
C      1  0.4500430000000  0.5507290000000  0.5064620000000 1.0
C      1  0.5511360000000  0.5507240000000  0.5064440000000 1.0
C      1  0.4607070000000  0.4518480000000  0.4985550000000 1.0
C      1  0.5404580000000  0.4518440000000  0.4985410000000 1.0
C      1  0.4855610000000  0.4940400000000  0.5184920000000 1.0
C      1  0.5156160000000  0.4940380000000  0.5184870000000 1.0
C      1  0.5586060000000  0.4712800000000  0.5131630000000 1.0
C      1  0.4425660000000  0.4712870000000  0.5131840000000 1.0
C      1  0.4844660000000  0.4355830000000  0.5120200000000 1.0
C      1  0.5167020000000  0.4355810000000  0.5120140000000 1.0
C      1  0.4777250000000  0.5211810000000  0.5264270000000 1.0
C      1  0.5234580000000  0.5211780000000  0.5264190000000 1.0
C      1  0.5230010000000  0.5545650000000  0.4982170000000 1.0
C      1  0.4781760000000  0.5545670000000  0.4982250000000 1.0
C      1  0.5164590000000  0.5419760000000  0.4714370000000 1.0
C      1  0.4847060000000  0.5419780000000  0.4714430000000 1.0
C      1  0.5256080000000  0.4917350000000  0.4882030000000 1.0
C      1  0.4755570000000  0.4917370000000  0.4882120000000 1.0
C      1  0.5261780000000  0.5584060000000  0.4485250000000 1.0
C      1  0.4749810000000  0.5584090000000  0.4485340000000 1.0
C      1  0.4864940000000  0.4705810000000  0.4712310000000 1.0
C      1  0.5146630000000  0.4705790000000  0.4712250000000 1.0
C      1  0.4680440000000  0.5161690000000  0.4733910000000 1.0
C      1  0.5331190000000  0.5161660000000  0.4733790000000 1.0
C      1  0.4489050000000  0.5242580000000  0.5193090000000 1.0
C      1  0.5522760000000  0.5242530000000  0.5192900000000 1.0
C      1  0.4702890000000  0.4518830000000  0.4561930000000 1.0
C      1  0.5308610000000  0.4518800000000  0.4561830000000 1.0
C      1  0.4366070000000  0.5000570000000  0.5059590000000 1.0
C      1  0.5645660000000  0.5000500000000  0.5059360000000 1.0
C      1  0.4771350000000  0.4472550000000  0.5382940000000 1.0
C      1  0.5240430000000  0.4472520000000  0.5382860000000 1.0
C      1  0.4749570000000  0.4755790000000  0.5395650000000 1.0
C      1  0.5262260000000  0.4755770000000  0.5395560000000 1.0
C      1  0.5005920000000  0.5458200000000  0.5207000000000 1.0
END
