TITL C-862502-1143-928 -0.000134205630838001 125000 -546.322117837449 0 0 103 (Ci) n - 1
REM
REM in /home/nfs/bkarasulu/CARBON/AIRSS/Generating-Clusters/TERSOFF/Higher-Symm/FIRE-HFTN
REM
REM
REM
REM
REM
REM ./C.cell (b20cbc046b6831c77cfcea5457e17084)
REM AIRSS Version 0.9.1 bugfix July 2018 build 013d7b7c2542+ Fri, 06 Jul 2018 19:26:36 +0100
REM compiler GCC version 9.2.1 20190827 (Red Hat 9.2.1-1)
REM options -cpp -mtune=generic -march=x86-64 -g -O0 -fpre-include=/usr/include/finclude/math-vector-fortran.h
REM seed 960070277 891934737 1669564068 368094994 115825077 1513274416 -501606297 -1914052843 -1193229023 908155183 -1799366669 -1280309643 -1061226441 1892948904 -2067025251 -447523364 14483190 1104648721 1742597432 1220553495 1475901512 -1568321977 -1274570578 -1117342702 1435170824 55190028 -1610083535 1187999457 -762823942 -257964841 -1639214984 -813437222 -1809941804
REM
CELL 1.54180   50.00000   50.00000   50.00000   90.00000   90.00000   90.00000
LATT -1
SFAC C  
C      1  0.5775360000000  0.4815320000000  0.5234430000000 1.0
C      1  0.4230760000000  0.5192590000000  0.4764080000000 1.0
C      1  0.4820450000000  0.5171740000000  0.5570210000000 1.0
C      1  0.5185670000000  0.4836160000000  0.4428300000000 1.0
C      1  0.4284770000000  0.4412330000000  0.5368030000000 1.0
C      1  0.5721350000000  0.5595580000000  0.4630480000000 1.0
C      1  0.4186180000000  0.4793130000000  0.5010450000000 1.0
C      1  0.5819930000000  0.5214780000000  0.4988060000000 1.0
C      1  0.4453260000000  0.5398240000000  0.4455960000000 1.0
C      1  0.5552860000000  0.4609670000000  0.5542550000000 1.0
C      1  0.5308430000000  0.4427680000000  0.5455200000000 1.0
C      1  0.4697680000000  0.5580230000000  0.4543310000000 1.0
C      1  0.5620240000000  0.5425520000000  0.4887320000000 1.0
C      1  0.4385870000000  0.4582390000000  0.5111190000000 1.0
C      1  0.5154450000000  0.4078040000000  0.5237160000000 1.0
C      1  0.4851660000000  0.5929870000000  0.4761360000000 1.0
C      1  0.4293110000000  0.4440110000000  0.4810160000000 1.0
C      1  0.5713010000000  0.5567800000000  0.5188350000000 1.0
C      1  0.5532650000000  0.4959880000000  0.5623900000000 1.0
C      1  0.4473460000000  0.5048030000000  0.4374610000000 1.0
C      1  0.4794070000000  0.4541290000000  0.5704540000000 1.0
C      1  0.5212040000000  0.5466620000000  0.4293980000000 1.0
C      1  0.4342510000000  0.5745770000000  0.4820700000000 1.0
C      1  0.5663610000000  0.4262140000000  0.5177810000000 1.0
C      1  0.5541770000000  0.4754270000000  0.4821890000000 1.0
C      1  0.4464350000000  0.5253630000000  0.5176620000000 1.0
C      1  0.4328800000000  0.5551090000000  0.5320370000000 1.0
C      1  0.5677320000000  0.4456810000000  0.4678140000000 1.0
C      1  0.4790770000000  0.5412670000000  0.4169750000000 1.0
C      1  0.5215340000000  0.4595230000000  0.5828760000000 1.0
C      1  0.5676130000000  0.4865300000000  0.4512020000000 1.0
C      1  0.4329980000000  0.5142610000000  0.5486490000000 1.0
C      1  0.5003730000000  0.5364250000000  0.5420160000000 1.0
C      1  0.5002390000000  0.4643660000000  0.4578350000000 1.0
C      1  0.5670390000000  0.5842140000000  0.5038570000000 1.0
C      1  0.4335730000000  0.4165760000000  0.4959940000000 1.0
C      1  0.4425140000000  0.4630340000000  0.5526440000000 1.0
C      1  0.5580980000000  0.5377560000000  0.4472070000000 1.0
C      1  0.4661760000000  0.5497630000000  0.5070530000000 1.0
C      1  0.5344360000000  0.4510280000000  0.4927980000000 1.0
C      1  0.5326010000000  0.4225730000000  0.4786310000000 1.0
C      1  0.4680100000000  0.5782180000000  0.5212200000000 1.0
C      1  0.5064190000000  0.5827480000000  0.4580180000000 1.0
C      1  0.4941930000000  0.4180430000000  0.5418330000000 1.0
C      1  0.5061550000000  0.5620490000000  0.5571440000000 1.0
C      1  0.4944570000000  0.4387410000000  0.4427070000000 1.0
C      1  0.5513160000000  0.4961080000000  0.5120300000000 1.0
C      1  0.4492960000000  0.5046830000000  0.4878210000000 1.0
C      1  0.5256390000000  0.4965090000000  0.4742500000000 1.0
C      1  0.4749730000000  0.5042810000000  0.5256010000000 1.0
C      1  0.5246130000000  0.4268990000000  0.4491930000000 1.0
C      1  0.4759990000000  0.5738920000000  0.5506580000000 1.0
C      1  0.4782020000000  0.5444790000000  0.4815060000000 1.0
C      1  0.5224100000000  0.4563120000000  0.5183450000000 1.0
C      1  0.5496380000000  0.4428310000000  0.4423250000000 1.0
C      1  0.4509740000000  0.5579590000000  0.5575260000000 1.0
C      1  0.4713290000000  0.4590990000000  0.5176350000000 1.0
C      1  0.5292820000000  0.5416920000000  0.4822160000000 1.0
C      1  0.4779510000000  0.5131360000000  0.4282290000000 1.0
C      1  0.5226610000000  0.4876540000000  0.5716220000000 1.0
C      1  0.4906270000000  0.5867630000000  0.5042260000000 1.0
C      1  0.5099840000000  0.4140280000000  0.4956250000000 1.0
C      1  0.5426690000000  0.4164450000000  0.5340740000000 1.0
C      1  0.4579420000000  0.5843460000000  0.4657770000000 1.0
C      1  0.4791480000000  0.5142270000000  0.4808190000000 1.0
C      1  0.5214630000000  0.4865640000000  0.5190320000000 1.0
C      1  0.5058770000000  0.4991360000000  0.4187530000000 1.0
C      1  0.4947350000000  0.5016550000000  0.5810990000000 1.0
C      1  0.4924370000000  0.4664150000000  0.4907370000000 1.0
C      1  0.5081750000000  0.5343760000000  0.5091140000000 1.0
C      1  0.5570400000000  0.5842980000000  0.4752760000000 1.0
C      1  0.4435710000000  0.4164930000000  0.5245750000000 1.0
C      1  0.4792490000000  0.4771590000000  0.5896370000000 1.0
C      1  0.5213630000000  0.5236320000000  0.4102140000000 1.0
C      1  0.5645160000000  0.4221630000000  0.4879300000000 1.0
C      1  0.4360960000000  0.5786280000000  0.5119210000000 1.0
C      1  0.5074210000000  0.4854220000000  0.5445850000000 1.0
C      1  0.4931900000000  0.5153690000000  0.4552660000000 1.0
C      1  0.4949310000000  0.5649980000000  0.4320930000000 1.0
C      1  0.5056810000000  0.4357930000000  0.5677580000000 1.0
C      1  0.4544240000000  0.4811670000000  0.4605020000000 1.0
C      1  0.5461880000000  0.5196240000000  0.5393490000000 1.0
C      1  0.5166650000000  0.5327770000000  0.4552790000000 1.0
C      1  0.4839470000000  0.4680130000000  0.5445720000000 1.0
C      1  0.5759920000000  0.4526160000000  0.5321870000000 1.0
C      1  0.4246200000000  0.5481740000000  0.4676640000000 1.0
C      1  0.4665060000000  0.4271280000000  0.4718090000000 1.0
C      1  0.5341050000000  0.5736630000000  0.5280420000000 1.0
C      1  0.4546510000000  0.5294770000000  0.5642440000000 1.0
C      1  0.5459610000000  0.4713140000000  0.4356070000000 1.0
C      1  0.4479970000000  0.4893310000000  0.5406430000000 1.0
C      1  0.5526140000000  0.5114590000000  0.4592080000000 1.0
C      1  0.5123420000000  0.5678470000000  0.5102800000000 1.0
C      1  0.4882700000000  0.4329440000000  0.4895710000000 1.0
C      1  0.5839830000000  0.5023840000000  0.5451460000000 1.0
C      1  0.4166290000000  0.4984060000000  0.4547050000000 1.0
C      1  0.4612700000000  0.4499580000000  0.4518070000000 1.0
C      1  0.5393420000000  0.5508330000000  0.5480440000000 1.0
C      1  0.5899810000000  0.5275350000000  0.5284630000000 1.0
C      1  0.4106300000000  0.4732560000000  0.4713880000000 1.0
C      1  0.4707910000000  0.4294500000000  0.5275570000000 1.0
C      1  0.5298210000000  0.5713410000000  0.4722940000000 1.0
C      1  0.5003060000000  0.5003950000000  0.4999260000000 1.0
END
