TITL C-862133-5440-214 -0.0168308129292568 125000 -1101.32606259919 0 0 194 (C5) n - 1
REM
REM in /home/nfs/bkarasulu/CARBON/AIRSS/Generating-Clusters/TERSOFF/Higher-Symm/FIRE-HFTN
REM
REM
REM
REM
REM
REM ./C.cell (b20cbc046b6831c77cfcea5457e17084)
REM AIRSS Version 0.9.1 bugfix July 2018 build 013d7b7c2542+ Fri, 06 Jul 2018 19:26:36 +0100
REM compiler GCC version 9.2.1 20190827 (Red Hat 9.2.1-1)
REM options -cpp -mtune=generic -march=x86-64 -g -O0 -fpre-include=/usr/include/finclude/math-vector-fortran.h
REM seed 1242263208 556610899 556737251 -1337623881 -1485600541 1010490769 1393736052 -793819854 -1923447662 -362538876 -1788603660 1901926360 1863566431 -1798599320 1080542283 548457246 75552741 1902570796 1364198530 1287784673 901132578 2056140022 -22594934 1919858509 -654516508 -713931835 255777729 -1668153797 -1720352284 57567453 1856432565 365972903 891010563
REM
CELL 1.54180   50.00000   50.00000   50.00000   90.00000   90.00000   90.00000
LATT -1
SFAC C  
C      1  0.5118500000000  0.5215680000000  0.5972870000000 1.0
C      1  0.5118500000000  0.4136830000000  0.5501290000000 1.0
C      1  0.5118500000000  0.4251950000000  0.4329530000000 1.0
C      1  0.5118500000000  0.5401930000000  0.4076910000000 1.0
C      1  0.5118500000000  0.5997550000000  0.5092550000000 1.0
C      1  0.4829800000000  0.5381990000000  0.6043060000000 1.0
C      1  0.4829790000000  0.4121470000000  0.5681150000000 1.0
C      1  0.4829790000000  0.4076140000000  0.4370500000000 1.0
C      1  0.4829790000000  0.5308640000000  0.3922370000000 1.0
C      1  0.4829800000000  0.6115700000000  0.4956070000000 1.0
C      1  0.4584240000000  0.3837000000000  0.5321600000000 1.0
C      1  0.4584240000000  0.4330190000000  0.3988840000000 1.0
C      1  0.4584240000000  0.5750130000000  0.4046040000000 1.0
C      1  0.4584250000000  0.6134510000000  0.5414160000000 1.0
C      1  0.4584250000000  0.4952130000000  0.6202500000000 1.0
C      1  0.4305620000000  0.4768780000000  0.4067280000000 1.0
C      1  0.4305620000000  0.5811060000000  0.4487410000000 1.0
C      1  0.4305620000000  0.5733570000000  0.5608500000000 1.0
C      1  0.4305620000000  0.4643410000000  0.5881240000000 1.0
C      1  0.4305620000000  0.4047130000000  0.4928720000000 1.0
C      1  0.5746700000000  0.4658590000000  0.4235410000000 1.0
C      1  0.5746700000000  0.5617110000000  0.4434570000000 1.0
C      1  0.5746700000000  0.5723890000000  0.5407720000000 1.0
C      1  0.5746700000000  0.4831370000000  0.5809990000000 1.0
C      1  0.5746700000000  0.4172980000000  0.5085460000000 1.0
C      1  0.4700250000000  0.5354280000000  0.5023930000000 1.0
C      1  0.4700250000000  0.5082160000000  0.5339870000000 1.0
C      1  0.4700250000000  0.4697590000000  0.5178700000000 1.0
C      1  0.4700250000000  0.4732030000000  0.4763150000000 1.0
C      1  0.4700250000000  0.5137890000000  0.4667500000000 1.0
C      1  0.5746910000000  0.5848290000000  0.4649880000000 1.0
C      1  0.5746910000000  0.5590560000000  0.5694120000000 1.0
C      1  0.5746910000000  0.4517780000000  0.5771690000000 1.0
C      1  0.5746910000000  0.4112500000000  0.4775390000000 1.0
C      1  0.5746910000000  0.4934800000000  0.4082070000000 1.0
C      1  0.5105120000000  0.5183390000000  0.5299700000000 1.0
C      1  0.5105120000000  0.4767070000000  0.5262570000000 1.0
C      1  0.5105120000000  0.4673740000000  0.4855150000000 1.0
C      1  0.5105120000000  0.5032380000000  0.4640490000000 1.0
C      1  0.5105120000000  0.5347360000000  0.4915240000000 1.0
C      1  0.4576900000000  0.5224410000000  0.6081340000000 1.0
C      1  0.4576900000000  0.4036370000000  0.5543120000000 1.0
C      1  0.4576900000000  0.4181120000000  0.4246900000000 1.0
C      1  0.4576900000000  0.5458630000000  0.3984020000000 1.0
C      1  0.4576900000000  0.6103420000000  0.5117770000000 1.0
C      1  0.5246820000000  0.4164900000000  0.4865440000000 1.0
C      1  0.5246820000000  0.4865350000000  0.4159730000000 1.0
C      1  0.5246820000000  0.5752970000000  0.4607820000000 1.0
C      1  0.5246820000000  0.5601100000000  0.5590470000000 1.0
C      1  0.5246820000000  0.4619620000000  0.5749680000000 1.0
C      1  0.6099090000000  0.4549650000000  0.4615370000000 1.0
C      1  0.6099090000000  0.5222080000000  0.4448380000000 1.0
C      1  0.6099100000000  0.5588690000000  0.5036290000000 1.0
C      1  0.6099100000000  0.5142840000000  0.5566630000000 1.0
C      1  0.6099090000000  0.4500680000000  0.5306480000000 1.0
C      1  0.4427040000000  0.5387050000000  0.5187160000000 1.0
C      1  0.4427040000000  0.4937040000000  0.5421480000000 1.0
C      1  0.4427040000000  0.4575130000000  0.5065910000000 1.0
C      1  0.4427040000000  0.4801460000000  0.4611830000000 1.0
C      1  0.4427040000000  0.5303260000000  0.4686770000000 1.0
C      1  0.5534940000000  0.5048180000000  0.4641800000000 1.0
C      1  0.5534940000000  0.5350990000000  0.4930670000000 1.0
C      1  0.5534940000000  0.5169830000000  0.5307930000000 1.0
C      1  0.5534940000000  0.4755060000000  0.5252210000000 1.0
C      1  0.5534940000000  0.4679880000000  0.4840530000000 1.0
C      1  0.4808160000000  0.6169090000000  0.4664910000000 1.0
C      1  0.4808160000000  0.5675390000000  0.6003860000000 1.0
C      1  0.4808160000000  0.4249420000000  0.5948080000000 1.0
C      1  0.4808150000000  0.3861810000000  0.4574670000000 1.0
C      1  0.4808160000000  0.5048230000000  0.3781630000000 1.0
C      1  0.5904830000000  0.5326190000000  0.5759420000000 1.0
C      1  0.5904830000000  0.4373980000000  0.5540440000000 1.0
C      1  0.5904830000000  0.4287990000000  0.4567170000000 1.0
C      1  0.5904830000000  0.5187060000000  0.4184630000000 1.0
C      1  0.5904830000000  0.5828710000000  0.4921480000000 1.0
C      1  0.5468410000000  0.4407070000000  0.5774260000000 1.0
C      1  0.5468410000000  0.4075850000000  0.4670890000000 1.0
C      1  0.5468410000000  0.5022860000000  0.4014920000000 1.0
C      1  0.5468410000000  0.5939370000000  0.4712870000000 1.0
C      1  0.5468410000000  0.5558790000000  0.5800200000000 1.0
C      1  0.3894490000000  0.5000130000000  0.4638140000000 1.0
C      1  0.3894490000000  0.5339630000000  0.4883840000000 1.0
C      1  0.3894490000000  0.5210870000000  0.5282650000000 1.0
C      1  0.3894490000000  0.4791780000000  0.5283430000000 1.0
C      1  0.3894490000000  0.4661540000000  0.4885100000000 1.0
C      1  0.5710700000000  0.5143210000000  0.5925370000000 1.0
C      1  0.5710690000000  0.4159610000000  0.5417700000000 1.0
C      1  0.5710690000000  0.4338490000000  0.4325360000000 1.0
C      1  0.5710700000000  0.5432640000000  0.4157930000000 1.0
C      1  0.5710700000000  0.5929990000000  0.5146790000000 1.0
C      1  0.3985880000000  0.5000610000000  0.5562530000000 1.0
C      1  0.3985870000000  0.4460630000000  0.5169950000000 1.0
C      1  0.3985870000000  0.4667140000000  0.4535080000000 1.0
C      1  0.3985880000000  0.5334740000000  0.4535300000000 1.0
C      1  0.3985880000000  0.5540840000000  0.5170300000000 1.0
C      1  0.4783570000000  0.5611870000000  0.4863350000000 1.0
C      1  0.4783570000000  0.5314480000000  0.5535240000000 1.0
C      1  0.4783570000000  0.4583580000000  0.5460020000000 1.0
C      1  0.4783570000000  0.4429250000000  0.4741650000000 1.0
C      1  0.4783570000000  0.5064770000000  0.4372890000000 1.0
C      1  0.4179230000000  0.5158210000000  0.4289610000000 1.0
C      1  0.4179230000000  0.5719950000000  0.4926480000000 1.0
C      1  0.4179230000000  0.5287830000000  0.5657530000000 1.0
C      1  0.4179230000000  0.4459040000000  0.5472470000000 1.0
C      1  0.4179230000000  0.4378920000000  0.4627050000000 1.0
C      1  0.5102890000000  0.4388830000000  0.4054100000000 1.0
C      1  0.5102890000000  0.5706180000000  0.4121990000000 1.0
C      1  0.5102890000000  0.6048700000000  0.5395840000000 1.0
C      1  0.5102890000000  0.4943040000000  0.6115240000000 1.0
C      1  0.5102890000000  0.3917180000000  0.5285990000000 1.0
C      1  0.4813910000000  0.5961990000000  0.4453610000000 1.0
C      1  0.4813910000000  0.5812360000000  0.5741600000000 1.0
C      1  0.4813910000000  0.4541170000000  0.5997300000000 1.0
C      1  0.4813910000000  0.3905160000000  0.4867350000000 1.0
C      1  0.4813910000000  0.4783270000000  0.3913290000000 1.0
C      1  0.4815930000000  0.4647660000000  0.4336250000000 1.0
C      1  0.4815930000000  0.5517820000000  0.4455330000000 1.0
C      1  0.4815930000000  0.5673460000000  0.5319710000000 1.0
C      1  0.4815930000000  0.4899490000000  0.5734840000000 1.0
C      1  0.4815930000000  0.4265510000000  0.5127030000000 1.0
C      1  0.5432180000000  0.5318380000000  0.4028510000000 1.0
C      1  0.5432180000000  0.6017770000000  0.4998130000000 1.0
C      1  0.5432180000000  0.5311720000000  0.5962910000000 1.0
C      1  0.5432180000000  0.4175980000000  0.5589560000000 1.0
C      1  0.5432180000000  0.4180090000000  0.4394030000000 1.0
C      1  0.5459240000000  0.5536290000000  0.4501160000000 1.0
C      1  0.5459240000000  0.5635580000000  0.5351430000000 1.0
C      1  0.5459240000000  0.4857610000000  0.5708610000000 1.0
C      1  0.5459230000000  0.4277500000000  0.5079090000000 1.0
C      1  0.5459230000000  0.4696950000000  0.4332850000000 1.0
C      1  0.4530230000000  0.5457740000000  0.4456030000000 1.0
C      1  0.4530230000000  0.5654240000000  0.5262780000000 1.0
C      1  0.4530230000000  0.4947690000000  0.5698960000000 1.0
C      1  0.4530230000000  0.4314530000000  0.5161780000000 1.0
C      1  0.4530230000000  0.4629750000000  0.4393610000000 1.0
C      1  0.4560960000000  0.4626730000000  0.3971310000000 1.0
C      1  0.4560960000000  0.5858430000000  0.4322650000000 1.0
C      1  0.4560960000000  0.5904910000000  0.5602650000000 1.0
C      1  0.4560960000000  0.4701920000000  0.6042390000000 1.0
C      1  0.4560960000000  0.3911960000000  0.5034160000000 1.0
C      1  0.5074180000000  0.3961630000000  0.4997330000000 1.0
C      1  0.5074180000000  0.4677100000000  0.4007170000000 1.0
C      1  0.5074190000000  0.5839900000000  0.4381640000000 1.0
C      1  0.5074190000000  0.5843070000000  0.5603240000000 1.0
C      1  0.5074190000000  0.4682240000000  0.5983760000000 1.0
C      1  0.4302140000000  0.5060240000000  0.4560530000000 1.0
C      1  0.4302140000000  0.5432020000000  0.4917030000000 1.0
C      1  0.4302140000000  0.5207850000000  0.5380780000000 1.0
C      1  0.4302140000000  0.4697530000000  0.5310880000000 1.0
C      1  0.4302140000000  0.4606300000000  0.4803940000000 1.0
C      1  0.5910510000000  0.4426380000000  0.5077140000000 1.0
C      1  0.5910510000000  0.4744810000000  0.4473840000000 1.0
C      1  0.5910510000000  0.5416990000000  0.4590250000000 1.0
C      1  0.5910520000000  0.5513990000000  0.5265500000000 1.0
C      1  0.5910510000000  0.4901760000000  0.5566420000000 1.0
C      1  0.6195320000000  0.5272050000000  0.5008390000000 1.0
C      1  0.6195320000000  0.5071530000000  0.5256870000000 1.0
C      1  0.6195320000000  0.4773240000000  0.5142940000000 1.0
C      1  0.6195320000000  0.4789410000000  0.4824050000000 1.0
C      1  0.6195320000000  0.5097700000000  0.4740890000000 1.0
C      1  0.5052900000000  0.5115630000000  0.4233230000000 1.0
C      1  0.5052900000000  0.5760410000000  0.4868570000000 1.0
C      1  0.5052900000000  0.5355420000000  0.5678120000000 1.0
C      1  0.5052900000000  0.4460340000000  0.5543110000000 1.0
C      1  0.5052900000000  0.4312140000000  0.4650120000000 1.0
C      1  0.4406140000000  0.5858220000000  0.5097310000000 1.0
C      1  0.4406140000000  0.5168090000000  0.5841820000000 1.0
C      1  0.4406130000000  0.4246760000000  0.5415540000000 1.0
C      1  0.4406130000000  0.4367470000000  0.4407580000000 1.0
C      1  0.4406130000000  0.5363400000000  0.4210900000000 1.0
C      1  0.5813420000000  0.4969330000000  0.4622360000000 1.0
C      1  0.5813420000000  0.5345120000000  0.4849670000000 1.0
C      1  0.5813420000000  0.5245050000000  0.5277310000000 1.0
C      1  0.5813420000000  0.4807420000000  0.5314290000000 1.0
C      1  0.5813420000000  0.4637020000000  0.4909510000000 1.0
C      1  0.4072160000000  0.5751050000000  0.5412560000000 1.0
C      1  0.4072160000000  0.4835160000000  0.5837320000000 1.0
C      1  0.4072160000000  0.4148160000000  0.5097510000000 1.0
C      1  0.4072160000000  0.4639470000000  0.4215520000000 1.0
C      1  0.4072160000000  0.5630110000000  0.4410230000000 1.0
C      1  0.5418920000000  0.4488580000000  0.5272010000000 1.0
C      1  0.5418920000000  0.4578710000000  0.4593210000000 1.0
C      1  0.5418920000000  0.5252130000000  0.4469160000000 1.0
C      1  0.5418920000000  0.5578210000000  0.5071290000000 1.0
C      1  0.5418920000000  0.5106310000000  0.5567480000000 1.0
C      1  0.5039340000000  0.5374110000000  0.4600490000000 1.0
C      1  0.5039340000000  0.5491000000000  0.5227880000000 1.0
C      1  0.5039340000000  0.4930430000000  0.5532930000000 1.0
C      1  0.5039340000000  0.4467100000000  0.5094060000000 1.0
C      1  0.5039340000000  0.4741300000000  0.4517790000000 1.0
C      1  0.4792370000000  0.5000790000000  0.4994630000000 1.0
C      1  0.5127300000000  0.5000790000000  0.4994630000000 1.0
C      1  0.5442410000000  0.5000790000000  0.4994630000000 1.0
C      1  0.3838140000000  0.5000790000000  0.4994630000000 1.0
END
