TITL C-862502-1143-1495 8.1064920322377e-06 125000 -827.198025358181 0 0 158 (C3i) n - 1
REM
REM in /home/nfs/bkarasulu/CARBON/AIRSS/Generating-Clusters/TERSOFF/Higher-Symm/FIRE-HFTN
REM
REM
REM
REM
REM
REM ./C.cell (b20cbc046b6831c77cfcea5457e17084)
REM AIRSS Version 0.9.1 bugfix July 2018 build 013d7b7c2542+ Fri, 06 Jul 2018 19:26:36 +0100
REM compiler GCC version 9.2.1 20190827 (Red Hat 9.2.1-1)
REM options -cpp -mtune=generic -march=x86-64 -g -O0 -fpre-include=/usr/include/finclude/math-vector-fortran.h
REM seed -857112613 -904106574 461343494 -1404420500 -65791961 -79289246 -207499982 746456454 -170522655 -453055213 210784633 -1963673494 1305066564 -717864793 255942458 237925246 -1037928637 -221496138 823106346 -1915084187 669570705 -877505120 445220853 297441592 -1269440392 -1640761252 267340954 1129049421 1819503131 -966701267 2071132155 -1048647198 824970133
REM
CELL 1.54180   50.00000   50.00000   50.00000   90.00000   90.00000   90.00000
LATT -1
SFAC C  
C      1  0.5550810000000  0.4146890000000  0.4721150000000 1.0
C      1  0.4449190000000  0.4819360000000  0.4122210000000 1.0
C      1  0.5550810000000  0.5674290000000  0.4405100000000 1.0
C      1  0.4449190000000  0.5856760000000  0.5286940000000 1.0
C      1  0.5550810000000  0.5184300000000  0.5885890000000 1.0
C      1  0.4449190000000  0.4329360000000  0.5602990000000 1.0
C      1  0.5288980000000  0.4027120000000  0.4847710000000 1.0
C      1  0.4711020000000  0.4649860000000  0.4081760000000 1.0
C      1  0.5288980000000  0.5624570000000  0.4238090000000 1.0
C      1  0.4711020000000  0.5976540000000  0.5160390000000 1.0
C      1  0.5288980000000  0.5353790000000  0.5926340000000 1.0
C      1  0.4711020000000  0.4379080000000  0.5770000000000 1.0
C      1  0.4130740000000  0.5505470000000  0.4544240000000 1.0
C      1  0.5869260000000  0.5651860000000  0.5210310000000 1.0
C      1  0.4130740000000  0.5148210000000  0.5670120000000 1.0
C      1  0.5869260000000  0.4498180000000  0.5463860000000 1.0
C      1  0.4130740000000  0.4351800000000  0.4797790000000 1.0
C      1  0.5869260000000  0.4855440000000  0.4337970000000 1.0
C      1  0.4208700000000  0.4553610000000  0.5610300000000 1.0
C      1  0.5791300000000  0.4252690000000  0.4919010000000 1.0
C      1  0.4208700000000  0.4700900000000  0.4312760000000 1.0
C      1  0.5791300000000  0.5450040000000  0.4397800000000 1.0
C      1  0.4208700000000  0.5750960000000  0.5089090000000 1.0
C      1  0.5791300000000  0.5302750000000  0.5695340000000 1.0
C      1  0.6051370000000  0.5247130000000  0.4823740000000 1.0
C      1  0.3948630000000  0.5280630000000  0.5126340000000 1.0
C      1  0.6051370000000  0.5035320000000  0.5306640000000 1.0
C      1  0.3948630000000  0.4756520000000  0.5184350000000 1.0
C      1  0.6051370000000  0.4723020000000  0.4881760000000 1.0
C      1  0.3948630000000  0.4968330000000  0.4701460000000 1.0
C      1  0.4642090000000  0.4409660000000  0.4945650000000 1.0
C      1  0.5357910000000  0.4756320000000  0.4462020000000 1.0
C      1  0.4642090000000  0.5348490000000  0.4520420000000 1.0
C      1  0.5357910000000  0.5593990000000  0.5062450000000 1.0
C      1  0.4642090000000  0.5247330000000  0.5546080000000 1.0
C      1  0.5357910000000  0.4655160000000  0.5487680000000 1.0
C      1  0.4816890000000  0.5897870000000  0.4550130000000 1.0
C      1  0.5183110000000  0.5842950000000  0.5553080000000 1.0
C      1  0.4816890000000  0.4946910000000  0.6007000000000 1.0
C      1  0.5183110000000  0.4105780000000  0.5457970000000 1.0
C      1  0.4816890000000  0.4160700000000  0.4455010000000 1.0
C      1  0.5183110000000  0.5056740000000  0.4001090000000 1.0
C      1  0.4726100000000  0.4677710000000  0.5809840000000 1.0
C      1  0.5273900000000  0.4141940000000  0.5126260000000 1.0
C      1  0.4726100000000  0.4466050000000  0.4320470000000 1.0
C      1  0.5273900000000  0.5325940000000  0.4198260000000 1.0
C      1  0.4726100000000  0.5861710000000  0.4881840000000 1.0
C      1  0.5273900000000  0.5537600000000  0.5687630000000 1.0
C      1  0.4335540000000  0.5233220000000  0.4822390000000 1.0
C      1  0.5664460000000  0.5274850000000  0.5113610000000 1.0
C      1  0.4335540000000  0.5043450000000  0.5295270000000 1.0
C      1  0.5664460000000  0.4770430000000  0.5185710000000 1.0
C      1  0.4335540000000  0.4728800000000  0.4894490000000 1.0
C      1  0.5664460000000  0.4960200000000  0.4712830000000 1.0
C      1  0.4143170000000  0.4951400000000  0.4470830000000 1.0
C      1  0.5856830000000  0.5438400000000  0.4693770000000 1.0
C      1  0.4143170000000  0.5488820000000  0.5226990000000 1.0
C      1  0.5856830000000  0.5052250000000  0.5537270000000 1.0
C      1  0.4143170000000  0.4565250000000  0.5314330000000 1.0
C      1  0.5856830000000  0.4514830000000  0.4781110000000 1.0
C      1  0.5594210000000  0.4886470000000  0.5464990000000 1.0
C      1  0.4405790000000  0.4544960000000  0.5134620000000 1.0
C      1  0.5594210000000  0.4660320000000  0.4673680000000 1.0
C      1  0.4405790000000  0.5117180000000  0.4543110000000 1.0
C      1  0.5594210000000  0.5458690000000  0.4873480000000 1.0
C      1  0.4405790000000  0.5343340000000  0.5334420000000 1.0
C      1  0.5004200000000  0.5255520000000  0.6047640000000 1.0
C      1  0.4995810000000  0.4224900000000  0.5745550000000 1.0
C      1  0.5004190000000  0.3971200000000  0.4701960000000 1.0
C      1  0.4995800000000  0.4748130000000  0.3960460000000 1.0
C      1  0.5004190000000  0.5778750000000  0.4262540000000 1.0
C      1  0.4995810000000  0.6032450000000  0.5306140000000 1.0
C      1  0.5727100000000  0.5124070000000  0.4255990000000 1.0
C      1  0.4272900000000  0.5710780000000  0.4735890000000 1.0
C      1  0.5727100000000  0.5588540000000  0.5483940000000 1.0
C      1  0.4272900000000  0.4879580000000  0.5752100000000 1.0
C      1  0.5727100000000  0.4292870000000  0.5272210000000 1.0
C      1  0.4272900000000  0.4415110000000  0.4524150000000 1.0
C      1  0.5192060000000  0.4481160000000  0.5832010000000 1.0
C      1  0.4807940000000  0.4024460000000  0.4967120000000 1.0
C      1  0.5192060000000  0.4545120000000  0.4139160000000 1.0
C      1  0.4807940000000  0.5522490000000  0.4176090000000 1.0
C      1  0.5192060000000  0.5979190000000  0.5040970000000 1.0
C      1  0.4807940000000  0.5458530000000  0.5868930000000 1.0
C      1  0.4518820000000  0.4112450000000  0.4856120000000 1.0
C      1  0.5481180000000  0.4685240000000  0.4159860000000 1.0
C      1  0.4518820000000  0.5574620000000  0.4307790000000 1.0
C      1  0.5481180000000  0.5891210000000  0.5151970000000 1.0
C      1  0.4518820000000  0.5318410000000  0.5848240000000 1.0
C      1  0.5481180000000  0.4429030000000  0.5700310000000 1.0
C      1  0.4020600000000  0.4747470000000  0.4884990000000 1.0
C      1  0.5979400000000  0.4977750000000  0.4724240000000 1.0
C      1  0.4020600000000  0.5232110000000  0.4843300000000 1.0
C      1  0.5979400000000  0.5256180000000  0.5123110000000 1.0
C      1  0.4020600000000  0.5025900000000  0.5283860000000 1.0
C      1  0.5979400000000  0.4771540000000  0.5164800000000 1.0
C      1  0.4544500000000  0.5636520000000  0.4865570000000 1.0
C      1  0.5455500000000  0.5439090000000  0.5484470000000 1.0
C      1  0.4544500000000  0.4804410000000  0.5622940000000 1.0
C      1  0.5455500000000  0.4367130000000  0.5142530000000 1.0
C      1  0.4544500000000  0.4564560000000  0.4523630000000 1.0
C      1  0.5455500000000  0.5199250000000  0.4385150000000 1.0
C      1  0.4488840000000  0.5117580000000  0.4131650000000 1.0
C      1  0.5511160000000  0.5815220000000  0.4668100000000 1.0
C      1  0.4488840000000  0.5699460000000  0.5540490000000 1.0
C      1  0.5511160000000  0.4886070000000  0.5876440000000 1.0
C      1  0.4488840000000  0.4188430000000  0.5340000000000 1.0
C      1  0.5511160000000  0.4304190000000  0.4467610000000 1.0
C      1  0.4980980000000  0.4345370000000  0.5344550000000 1.0
C      1  0.5019020000000  0.4378710000000  0.4605790000000 1.0
C      1  0.4980980000000  0.5035170000000  0.4265290000000 1.0
C      1  0.5019020000000  0.5658280000000  0.4663550000000 1.0
C      1  0.4980980000000  0.5624940000000  0.5402300000000 1.0
C      1  0.5019020000000  0.4968480000000  0.5742810000000 1.0
C      1  0.4500130000000  0.5040240000000  0.5967400000000 1.0
C      1  0.5499870000000  0.4186750000000  0.5518990000000 1.0
C      1  0.4500130000000  0.4148330000000  0.4555640000000 1.0
C      1  0.5499870000000  0.4963410000000  0.4040700000000 1.0
C      1  0.4500130000000  0.5816900000000  0.4489100000000 1.0
C      1  0.5499870000000  0.5855320000000  0.5452450000000 1.0
C      1  0.5030510000000  0.4749320000000  0.4378500000000 1.0
C      1  0.4969490000000  0.5417310000000  0.4472600000000 1.0
C      1  0.5030510000000  0.5669820000000  0.5098140000000 1.0
C      1  0.4969490000000  0.5254330000000  0.5629590000000 1.0
C      1  0.5030510000000  0.4586340000000  0.5535500000000 1.0
C      1  0.4969490000000  0.4333830000000  0.4909960000000 1.0
C      1  0.4795420000000  0.5130640000000  0.4725110000000 1.0
C      1  0.5204580000000  0.5307800000000  0.4976130000000 1.0
C      1  0.4795420000000  0.5178990000000  0.5255080000000 1.0
C      1  0.5204580000000  0.4873010000000  0.5282990000000 1.0
C      1  0.4795420000000  0.4695850000000  0.5031960000000 1.0
C      1  0.5204580000000  0.4824660000000  0.4753020000000 1.0
C      1  0.4765450000000  0.4151080000000  0.5252190000000 1.0
C      1  0.5234540000000  0.4361550000000  0.4391350000000 1.0
C      1  0.4765450000000  0.5212300000000  0.4143210000000 1.0
C      1  0.5234550000000  0.5852570000000  0.4755900000000 1.0
C      1  0.4765460000000  0.5642100000000  0.5616740000000 1.0
C      1  0.5234550000000  0.4791350000000  0.5864890000000 1.0
C      1  0.4283750000000  0.5334370000000  0.4302610000000 1.0
C      1  0.5716250000000  0.5775560000000  0.4941320000000 1.0
C      1  0.4283750000000  0.5443020000000  0.5642760000000 1.0
C      1  0.5716250000000  0.4669280000000  0.5705490000000 1.0
C      1  0.4283750000000  0.4228090000000  0.5066780000000 1.0
C      1  0.5716250000000  0.4560630000000  0.4365340000000 1.0
C      1  0.4586510000000  0.5368800000000  0.5026860000000 1.0
C      1  0.5413490000000  0.5165550000000  0.5333260000000 1.0
C      1  0.4586510000000  0.4798580000000  0.5310450000000 1.0
C      1  0.5413490000000  0.4634850000000  0.4981230000000 1.0
C      1  0.4586510000000  0.4838100000000  0.4674840000000 1.0
C      1  0.5413490000000  0.5205070000000  0.4697650000000 1.0
C      1  0.4909100000000  0.5430440000000  0.4894650000000 1.0
C      1  0.5090900000000  0.5310880000000  0.5320540000000 1.0
C      1  0.4909100000000  0.4882260000000  0.5429940000000 1.0
C      1  0.5090900000000  0.4573210000000  0.5113450000000 1.0
C      1  0.4909100000000  0.4692770000000  0.4687560000000 1.0
C      1  0.5090900000000  0.5121390000000  0.4578160000000 1.0
C      1  0.4366500000000  0.5001830000000  0.5004050000000 1.0
C      1  0.5633500000000  0.5001820000000  0.5004050000000 1.0
END
