TITL C-862506-1665-1211 7.73522810211326e-07 125000 -295.194646136255 0 0 49 (C7v) n - 1
REM
REM in /home/nfs/bkarasulu/CARBON/AIRSS/Generating-Clusters/TERSOFF/Higher-Symm/FIRE-HFTN
REM
REM
REM
REM
REM
REM ./C.cell (b20cbc046b6831c77cfcea5457e17084)
REM AIRSS Version 0.9.1 bugfix July 2018 build 013d7b7c2542+ Fri, 06 Jul 2018 19:26:36 +0100
REM compiler GCC version 9.2.1 20190827 (Red Hat 9.2.1-1)
REM options -cpp -mtune=generic -march=x86-64 -g -O0 -fpre-include=/usr/include/finclude/math-vector-fortran.h
REM seed -708455684 1700191410 2030604887 681542218 1452794121 -1975025130 -1711169643 -2100895291 647290150 1214496826 1411690245 -1180624763 1868938840 -534075386 1683763465 1032320379 -190743411 200400638 571559816 69646435 1392276858 -1322894157 1299717633 1958347376 -2045572166 1319016475 2125245549 1922371309 233434195 -1400342316 -1321212334 -992481660 -1526035329
REM
CELL 1.54180   50.00000   50.00000   50.00000   90.00000   90.00000   90.00000
LATT -1
SFAC C  
C      1  0.4925970000000  0.4251990000000  0.4636250000000 1.0
C      1  0.5238230000000  0.4251990000000  0.4715330000000 1.0
C      1  0.5371100000000  0.4251990000000  0.5008770000000 1.0
C      1  0.5224520000000  0.4251990000000  0.5295610000000 1.0
C      1  0.4908870000000  0.4251990000000  0.5359850000000 1.0
C      1  0.4661840000000  0.4251990000000  0.5153110000000 1.0
C      1  0.4669450000000  0.4251990000000  0.4831080000000 1.0
C      1  0.4507410000000  0.5421430000000  0.4748280000000 1.0
C      1  0.4889680000000  0.5421430000000  0.4457930000000 1.0
C      1  0.5355030000000  0.5421430000000  0.4575770000000 1.0
C      1  0.5553030000000  0.5421430000000  0.5013070000000 1.0
C      1  0.5334590000000  0.5421430000000  0.5440520000000 1.0
C      1  0.4864200000000  0.5421430000000  0.5536260000000 1.0
C      1  0.4496070000000  0.5421430000000  0.5228180000000 1.0
C      1  0.4639700000000  0.4980970000000  0.4525620000000 1.0
C      1  0.5146240000000  0.4980970000000  0.4422540000000 1.0
C      1  0.5542660000000  0.4980970000000  0.4754290000000 1.0
C      1  0.5530440000000  0.4980970000000  0.5271070000000 1.0
C      1  0.5118800000000  0.4980970000000  0.5583730000000 1.0
C      1  0.4617690000000  0.4980970000000  0.5456830000000 1.0
C      1  0.4404470000000  0.4980970000000  0.4985930000000 1.0
C      1  0.4930350000000  0.5651010000000  0.4657750000000 1.0
C      1  0.5224150000000  0.5651010000000  0.4732150000000 1.0
C      1  0.5349170000000  0.5651010000000  0.5008250000000 1.0
C      1  0.5211250000000  0.5651010000000  0.5278130000000 1.0
C      1  0.4914260000000  0.5651010000000  0.5338580000000 1.0
C      1  0.4681830000000  0.5651010000000  0.5144060000000 1.0
C      1  0.4688990000000  0.5651010000000  0.4841070000000 1.0
C      1  0.4862700000000  0.4833590000000  0.5542160000000 1.0
C      1  0.4490520000000  0.4833590000000  0.5230690000000 1.0
C      1  0.4501990000000  0.4833590000000  0.4745500000000 1.0
C      1  0.4888470000000  0.4833590000000  0.4451960000000 1.0
C      1  0.5358930000000  0.4833590000000  0.4571100000000 1.0
C      1  0.5559120000000  0.4833590000000  0.5013210000000 1.0
C      1  0.5338270000000  0.4833590000000  0.5445370000000 1.0
C      1  0.5543600000000  0.5273380000000  0.4753860000000 1.0
C      1  0.5531370000000  0.5273380000000  0.5271540000000 1.0
C      1  0.5119000000000  0.5273380000000  0.5584740000000 1.0
C      1  0.4617030000000  0.5273380000000  0.5457620000000 1.0
C      1  0.4403440000000  0.5273380000000  0.4985900000000 1.0
C      1  0.4639070000000  0.5273380000000  0.4524800000000 1.0
C      1  0.5146490000000  0.5273380000000  0.4421530000000 1.0
C      1  0.4668690000000  0.4587630000000  0.4830690000000 1.0
C      1  0.4925800000000  0.4587630000000  0.4635410000000 1.0
C      1  0.5238790000000  0.4587630000000  0.4714670000000 1.0
C      1  0.5371960000000  0.4587630000000  0.5008790000000 1.0
C      1  0.5225040000000  0.4587630000000  0.5296290000000 1.0
C      1  0.4908660000000  0.4587630000000  0.5360680000000 1.0
C      1  0.4661060000000  0.4587630000000  0.5153470000000 1.0
END
