TITL C-862505-1648-109 3.2201608465522e-06 125000 -195.470921609816 0 0 41 (T23) n - 1
REM
REM in /home/nfs/bkarasulu/CARBON/AIRSS/Generating-Clusters/TERSOFF/Higher-Symm/FIRE-HFTN
REM
REM
REM
REM
REM
REM ./C.cell (b20cbc046b6831c77cfcea5457e17084)
REM AIRSS Version 0.9.1 bugfix July 2018 build 013d7b7c2542+ Fri, 06 Jul 2018 19:26:36 +0100
REM compiler GCC version 9.2.1 20190827 (Red Hat 9.2.1-1)
REM options -cpp -mtune=generic -march=x86-64 -g -O0 -fpre-include=/usr/include/finclude/math-vector-fortran.h
REM seed 708833477 -113561130 -1229392799 1075303316 -571105080 379708397 313262201 691092503 -588903224 738638088 233939999 -2016899224 411110177 -939390463 -635177650 887076162 1338971858 -1419448260 923398176 -1743653589 -1084234074 1643945224 1610064845 1186945428 -953873068 1772297615 -558418309 -2069800746 -424940903 -1011791722 -757773426 -712449975 -2104585779
REM
CELL 1.54180   50.00000   50.00000   50.00000   90.00000   90.00000   90.00000
LATT -1
SFAC C  
C      1  0.5038050000000  0.5519750000000  0.4479220000000 1.0
C      1  0.4472740000000  0.5038600000000  0.5525680000000 1.0
C      1  0.5519200000000  0.4473290000000  0.5044530000000 1.0
C      1  0.5038050000000  0.4473290000000  0.5525680000000 1.0
C      1  0.4953890000000  0.4473290000000  0.4479220000000 1.0
C      1  0.4953890000000  0.5519750000000  0.5525680000000 1.0
C      1  0.4472740000000  0.4954440000000  0.4479220000000 1.0
C      1  0.5519200000000  0.4954440000000  0.5525680000000 1.0
C      1  0.5519200000000  0.5038600000000  0.4479220000000 1.0
C      1  0.5519200000000  0.5519750000000  0.4960370000000 1.0
C      1  0.4472740000000  0.5519750000000  0.5044530000000 1.0
C      1  0.4472740000000  0.4473290000000  0.4960370000000 1.0
C      1  0.5062140000000  0.5315650000000  0.4683320000000 1.0
C      1  0.4676840000000  0.5062690000000  0.5321570000000 1.0
C      1  0.5315100000000  0.4677400000000  0.5068610000000 1.0
C      1  0.5062140000000  0.4677400000000  0.5321570000000 1.0
C      1  0.4929810000000  0.4677400000000  0.4683320000000 1.0
C      1  0.4929810000000  0.5315650000000  0.5321570000000 1.0
C      1  0.4676840000000  0.4930360000000  0.4683320000000 1.0
C      1  0.5315100000000  0.4930360000000  0.5321570000000 1.0
C      1  0.5315100000000  0.5062690000000  0.4683320000000 1.0
C      1  0.5315100000000  0.5315650000000  0.4936280000000 1.0
C      1  0.4676840000000  0.5315650000000  0.5068610000000 1.0
C      1  0.4676840000000  0.4677400000000  0.4936280000000 1.0
C      1  0.4189810000000  0.4516810000000  0.4917580000000 1.0
C      1  0.4911100000000  0.4190360000000  0.4522730000000 1.0
C      1  0.4516260000000  0.4911660000000  0.4196280000000 1.0
C      1  0.4189810000000  0.5476230000000  0.5087310000000 1.0
C      1  0.5802130000000  0.5476240000000  0.4917580000000 1.0
C      1  0.5802140000000  0.4516810000000  0.5087300000000 1.0
C      1  0.4911100000000  0.5802690000000  0.5482160000000 1.0
C      1  0.5080830000000  0.5802690000000  0.4522740000000 1.0
C      1  0.5080820000000  0.4190360000000  0.5482150000000 1.0
C      1  0.4516260000000  0.5081390000000  0.5808610000000 1.0
C      1  0.5475680000000  0.5081390000000  0.4196280000000 1.0
C      1  0.5475680000000  0.4911670000000  0.5808610000000 1.0
C      1  0.4814580000000  0.5177910000000  0.4821060000000 1.0
C      1  0.4814580000000  0.4815130000000  0.5183840000000 1.0
C      1  0.5177360000000  0.4815130000000  0.4821060000000 1.0
C      1  0.5177360000000  0.5177910000000  0.5183840000000 1.0
C      1  0.4995970000000  0.4996520000000  0.5002450000000 1.0
END
