TITL C-862506-1665-964 0.000960288906370718 125000 -292.378517618561 0 0 55 (D2) n - 1
REM
REM in /home/nfs/bkarasulu/CARBON/AIRSS/Generating-Clusters/TERSOFF/Higher-Symm/FIRE-HFTN
REM
REM
REM
REM
REM
REM ./C.cell (b20cbc046b6831c77cfcea5457e17084)
REM AIRSS Version 0.9.1 bugfix July 2018 build 013d7b7c2542+ Fri, 06 Jul 2018 19:26:36 +0100
REM compiler GCC version 9.2.1 20190827 (Red Hat 9.2.1-1)
REM options -cpp -mtune=generic -march=x86-64 -g -O0 -fpre-include=/usr/include/finclude/math-vector-fortran.h
REM seed -233001999 -249833228 327470019 1845426928 -1941676472 -1546981917 1351032528 1155965496 -29060910 1279577130 -2134362889 -1442960960 -658300473 1627557156 1498880140 2107425384 1944794463 -234897520 -2079621071 -1894547028 327128575 2071331496 447888000 -443436972 684782149 -2052238716 -420845769 957991582 -787506129 -616375674 -1022408800 -1666937816 -1765778996
REM
CELL 1.54180   50.00000   50.00000   50.00000   90.00000   90.00000   90.00000
LATT -1
SFAC C  
C      1  0.4439480000000  0.4790920000000  0.5357130000000 1.0
C      1  0.4626860000000  0.4804090000000  0.4392780000000 1.0
C      1  0.5565420000000  0.4790920000000  0.4641740000000 1.0
C      1  0.5378040000000  0.4804090000000  0.5606090000000 1.0
C      1  0.5609070000000  0.5218050000000  0.5375070000000 1.0
C      1  0.5360190000000  0.5231220000000  0.4436490000000 1.0
C      1  0.4395830000000  0.5218050000000  0.4623800000000 1.0
C      1  0.4644710000000  0.5231220000000  0.5562380000000 1.0
C      1  0.5158670000000  0.4406130000000  0.5310280000000 1.0
C      1  0.4726790000000  0.4364390000000  0.5204160000000 1.0
C      1  0.4846230000000  0.4406130000000  0.4688590000000 1.0
C      1  0.5278110000000  0.4364390000000  0.4794710000000 1.0
C      1  0.4797710000000  0.5657750000000  0.5275080000000 1.0
C      1  0.5313280000000  0.5616010000000  0.5155680000000 1.0
C      1  0.5207190000000  0.5657750000000  0.4723790000000 1.0
C      1  0.4691620000000  0.5616010000000  0.4843200000000 1.0
C      1  0.4621190000000  0.4605440000000  0.4629980000000 1.0
C      1  0.5341170000000  0.4582010000000  0.4589480000000 1.0
C      1  0.5383720000000  0.4605440000000  0.5368890000000 1.0
C      1  0.4663730000000  0.4582010000000  0.5409390000000 1.0
C      1  0.5412430000000  0.5440130000000  0.4660740000000 1.0
C      1  0.4633020000000  0.5416700000000  0.4618140000000 1.0
C      1  0.4592480000000  0.5440130000000  0.5338130000000 1.0
C      1  0.5371880000000  0.5416700000000  0.5380730000000 1.0
C      1  0.4908530000000  0.5315110000000  0.4556100000000 1.0
C      1  0.5513030000000  0.5313500000000  0.4920180000000 1.0
C      1  0.5096370000000  0.5315110000000  0.5442770000000 1.0
C      1  0.4491870000000  0.5313500000000  0.5078690000000 1.0
C      1  0.5081740000000  0.4708640000000  0.4488870000000 1.0
C      1  0.4559120000000  0.4707030000000  0.4905480000000 1.0
C      1  0.4923160000000  0.4708640000000  0.5510010000000 1.0
C      1  0.5445780000000  0.4707030000000  0.5093390000000 1.0
C      1  0.4939170000000  0.4888440000000  0.4256470000000 1.0
C      1  0.5675650000000  0.4845130000000  0.4954130000000 1.0
C      1  0.5065730000000  0.4888440000000  0.5742400000000 1.0
C      1  0.4329250000000  0.4845130000000  0.5044740000000 1.0
C      1  0.5047810000000  0.5177010000000  0.4326240000000 1.0
C      1  0.4259490000000  0.5133700000000  0.4936110000000 1.0
C      1  0.4957100000000  0.5177010000000  0.5672630000000 1.0
C      1  0.5745410000000  0.5133700000000  0.5062760000000 1.0
C      1  0.4923780000000  0.4892890000000  0.4675600000000 1.0
C      1  0.5206410000000  0.4747920000000  0.4949880000000 1.0
C      1  0.5081120000000  0.4892890000000  0.5323270000000 1.0
C      1  0.4798490000000  0.4747920000000  0.5048990000000 1.0
C      1  0.5052020000000  0.5274220000000  0.4795480000000 1.0
C      1  0.4678620000000  0.5129250000000  0.4920740000000 1.0
C      1  0.4952880000000  0.5274220000000  0.5203390000000 1.0
C      1  0.5326280000000  0.5129250000000  0.5078130000000 1.0
C      1  0.5560680000000  0.5011070000000  0.4441250000000 1.0
C      1  0.4444220000000  0.5011070000000  0.5557620000000 1.0
C      1  0.4412870000000  0.5011070000000  0.4409810000000 1.0
C      1  0.5592040000000  0.5011070000000  0.5589060000000 1.0
C      1  0.5002450000000  0.5655210000000  0.4999440000000 1.0
C      1  0.5002450000000  0.4366930000000  0.4999440000000 1.0
C      1  0.5002450000000  0.5011070000000  0.4999440000000 1.0
END
