TITL C-862131-2149-1092 0.508416142509104 125000 -637.701855657173 0 0 112 (C1) n - 1
REM
REM in /home/nfs/bkarasulu/CARBON/AIRSS/Generating-Clusters/TERSOFF/Higher-Symm/FIRE-HFTN
REM
REM
REM
REM
REM
REM ./C.cell (b20cbc046b6831c77cfcea5457e17084)
REM AIRSS Version 0.9.1 bugfix July 2018 build 013d7b7c2542+ Fri, 06 Jul 2018 19:26:36 +0100
REM compiler GCC version 9.2.1 20190827 (Red Hat 9.2.1-1)
REM options -cpp -mtune=generic -march=x86-64 -g -O0 -fpre-include=/usr/include/finclude/math-vector-fortran.h
REM seed 2008726305 -2005457427 -131092105 -912205787 -1688865688 603914701 -644965954 -1826656678 134317634 128282423 -1683219133 -828694078 1696733717 -38740294 1188693178 2030077698 340760325 652319637 -1909757823 -845308456 117190722 947912439 311936321 264018982 443217473 1134326020 2143636400 -1048685234 -1753198090 796676949 -2031306915 1837922956 1853657323
REM
CELL 1.54180   50.00000   50.00000   50.00000   90.00000   90.00000   90.00000
LATT -1
SFAC C  
C      1  0.5795930000000  0.4667510000000  0.4701970000000 1.0
C      1  0.5831730000000  0.5215720000000  0.4585540000000 1.0
C      1  0.5796530000000  0.4276260000000  0.4862710000000 1.0
C      1  0.5795610000000  0.5765890000000  0.4884960000000 1.0
C      1  0.6018810000000  0.4807400000000  0.4840780000000 1.0
C      1  0.6038440000000  0.5116590000000  0.4766500000000 1.0
C      1  0.5484360000000  0.4639950000000  0.4141990000000 1.0
C      1  0.5571350000000  0.5381080000000  0.4220320000000 1.0
C      1  0.5018140000000  0.4424070000000  0.5082750000000 1.0
C      1  0.5021330000000  0.5583070000000  0.5092230000000 1.0
C      1  0.4612490000000  0.4423410000000  0.4347480000000 1.0
C      1  0.4644760000000  0.5557120000000  0.4323480000000 1.0
C      1  0.4891190000000  0.5635130000000  0.4463290000000 1.0
C      1  0.4868440000000  0.4345590000000  0.4465870000000 1.0
C      1  0.4874790000000  0.5832140000000  0.4700010000000 1.0
C      1  0.4881400000000  0.4158250000000  0.4702970000000 1.0
C      1  0.4685650000000  0.4205320000000  0.4934380000000 1.0
C      1  0.4676190000000  0.5768590000000  0.4922160000000 1.0
C      1  0.4151990000000  0.5551070000000  0.5443300000000 1.0
C      1  0.4150900000000  0.4454900000000  0.5445770000000 1.0
C      1  0.4558910000000  0.5770980000000  0.5225440000000 1.0
C      1  0.4559970000000  0.4236780000000  0.5234390000000 1.0
C      1  0.4691670000000  0.4840500000000  0.4081610000000 1.0
C      1  0.4699520000000  0.5126010000000  0.4076650000000 1.0
C      1  0.4126390000000  0.5265600000000  0.5000040000000 1.0
C      1  0.4107980000000  0.4723230000000  0.4997430000000 1.0
C      1  0.5201480000000  0.4577750000000  0.4144030000000 1.0
C      1  0.5284570000000  0.5426310000000  0.4170490000000 1.0
C      1  0.4625420000000  0.5804060000000  0.5717650000000 1.0
C      1  0.4640190000000  0.4199710000000  0.5721330000000 1.0
C      1  0.6028250000000  0.4831570000000  0.5169100000000 1.0
C      1  0.5978890000000  0.5135360000000  0.5099770000000 1.0
C      1  0.4607520000000  0.5140000000000  0.4566880000000 1.0
C      1  0.4597170000000  0.4850530000000  0.4571000000000 1.0
C      1  0.5628290000000  0.5557870000000  0.4452370000000 1.0
C      1  0.5598310000000  0.4495380000000  0.4373990000000 1.0
C      1  0.5033410000000  0.4842360000000  0.4782120000000 1.0
C      1  0.5043940000000  0.5133670000000  0.4784190000000 1.0
C      1  0.4059070000000  0.4853330000000  0.5246580000000 1.0
C      1  0.4072060000000  0.5135640000000  0.5248300000000 1.0
C      1  0.5515480000000  0.5846210000000  0.5279410000000 1.0
C      1  0.5527360000000  0.4190660000000  0.5259530000000 1.0
C      1  0.5455870000000  0.5292870000000  0.5682700000000 1.0
C      1  0.5457370000000  0.4714810000000  0.5681410000000 1.0
C      1  0.5199960000000  0.4858430000000  0.5691170000000 1.0
C      1  0.5199190000000  0.5148920000000  0.5689980000000 1.0
C      1  0.5044890000000  0.5680950000000  0.5769500000000 1.0
C      1  0.5056870000000  0.4328980000000  0.5759750000000 1.0
C      1  0.5593270000000  0.4891710000000  0.4031290000000 1.0
C      1  0.5699490000000  0.5115400000000  0.4190980000000 1.0
C      1  0.5354240000000  0.4264120000000  0.5470830000000 1.0
C      1  0.5346470000000  0.5751870000000  0.5486470000000 1.0
C      1  0.4735310000000  0.5344040000000  0.5556140000000 1.0
C      1  0.4736590000000  0.4661390000000  0.5559720000000 1.0
C      1  0.4118120000000  0.5299610000000  0.4523720000000 1.0
C      1  0.4103200000000  0.4697860000000  0.4521020000000 1.0
C      1  0.5688460000000  0.4854470000000  0.5558340000000 1.0
C      1  0.5688420000000  0.5153470000000  0.5560920000000 1.0
C      1  0.5567820000000  0.4364780000000  0.5030560000000 1.0
C      1  0.5562010000000  0.5680810000000  0.5045130000000 1.0
C      1  0.4346340000000  0.5479330000000  0.4967900000000 1.0
C      1  0.4330700000000  0.4511230000000  0.4962680000000 1.0
C      1  0.4939870000000  0.4732020000000  0.5769130000000 1.0
C      1  0.4938600000000  0.5274930000000  0.5766200000000 1.0
C      1  0.4235550000000  0.4466090000000  0.4666910000000 1.0
C      1  0.4256030000000  0.5526430000000  0.4671130000000 1.0
C      1  0.5459010000000  0.4425680000000  0.5686850000000 1.0
C      1  0.5457850000000  0.5583000000000  0.5694610000000 1.0
C      1  0.5150510000000  0.4103520000000  0.4792370000000 1.0
C      1  0.5126930000000  0.5920300000000  0.4806100000000 1.0
C      1  0.5422670000000  0.5718590000000  0.4586640000000 1.0
C      1  0.5435630000000  0.4320300000000  0.4560620000000 1.0
C      1  0.4009870000000  0.4853340000000  0.4752760000000 1.0
C      1  0.4020090000000  0.5145060000000  0.4754790000000 1.0
C      1  0.4236340000000  0.4694330000000  0.5592490000000 1.0
C      1  0.4236770000000  0.5312560000000  0.5591710000000 1.0
C      1  0.5247770000000  0.5272620000000  0.4638150000000 1.0
C      1  0.5222400000000  0.4695480000000  0.4629180000000 1.0
C      1  0.4825730000000  0.5796370000000  0.5927100000000 1.0
C      1  0.4846150000000  0.4207940000000  0.5925260000000 1.0
C      1  0.5205490000000  0.6197420000000  0.4834700000000 1.0
C      1  0.5264060000000  0.3837590000000  0.4808010000000 1.0
C      1  0.5581930000000  0.5400530000000  0.5142780000000 1.0
C      1  0.5603530000000  0.4647640000000  0.5123620000000 1.0
C      1  0.4787390000000  0.5255730000000  0.4764700000000 1.0
C      1  0.4772490000000  0.4733160000000  0.4768700000000 1.0
C      1  0.5140710000000  0.5453940000000  0.4423190000000 1.0
C      1  0.5102470000000  0.4527450000000  0.4411330000000 1.0
C      1  0.4561300000000  0.5275320000000  0.4291130000000 1.0
C      1  0.4544310000000  0.4707760000000  0.4300290000000 1.0
C      1  0.5304390000000  0.4361300000000  0.4869780000000 1.0
C      1  0.5302200000000  0.5679480000000  0.4885430000000 1.0
C      1  0.5533670000000  0.5146220000000  0.4639670000000 1.0
C      1  0.5507340000000  0.4801910000000  0.4646170000000 1.0
C      1  0.5802630000000  0.5295010000000  0.5327170000000 1.0
C      1  0.5802490000000  0.4717080000000  0.5320860000000 1.0
C      1  0.5046610000000  0.4320950000000  0.5404020000000 1.0
C      1  0.5041920000000  0.5685350000000  0.5415470000000 1.0
C      1  0.5645840000000  0.5154310000000  0.4963830000000 1.0
C      1  0.5521200000000  0.4864720000000  0.4950960000000 1.0
C      1  0.4488610000000  0.5166150000000  0.5544800000000 1.0
C      1  0.4488940000000  0.4839060000000  0.5545560000000 1.0
C      1  0.4691890000000  0.4529160000000  0.4961350000000 1.0
C      1  0.4707330000000  0.5453500000000  0.4963710000000 1.0
C      1  0.4830730000000  0.4859840000000  0.6011280000000 1.0
C      1  0.4829760000000  0.5149170000000  0.6009560000000 1.0
C      1  0.4288300000000  0.5657910000000  0.5207340000000 1.0
C      1  0.4288830000000  0.4343930000000  0.5212760000000 1.0
C      1  0.4714280000000  0.5666880000000  0.5464150000000 1.0
C      1  0.4720170000000  0.4341120000000  0.5467510000000 1.0
C      1  0.4269330000000  0.5154890000000  0.4318480000000 1.0
C      1  0.4261630000000  0.4839340000000  0.4318750000000 1.0
END
