TITL C-862506-1665-1150 0.602719844691898 125000 -1159.97364703418 0 0 194 (Ci) n - 1
REM
REM in /home/nfs/bkarasulu/CARBON/AIRSS/Generating-Clusters/TERSOFF/Higher-Symm/FIRE-HFTN
REM
REM
REM
REM
REM
REM ./C.cell (b20cbc046b6831c77cfcea5457e17084)
REM AIRSS Version 0.9.1 bugfix July 2018 build 013d7b7c2542+ Fri, 06 Jul 2018 19:26:36 +0100
REM compiler GCC version 9.2.1 20190827 (Red Hat 9.2.1-1)
REM options -cpp -mtune=generic -march=x86-64 -g -O0 -fpre-include=/usr/include/finclude/math-vector-fortran.h
REM seed 1120148026 1222420706 -841256764 -1793684060 -466473477 208218250 -2086227065 1234617873 1315121042 -1668006923 1200211098 1641050032 212190949 -387091916 2139262735 -2004026884 1305469260 -1321050948 -1210407624 -1080698976 1537641855 -1334754048 949321843 1983671479 -1209792169 2015951760 -380922380 -1624841060 -325796064 -1990949450 269225377 -69497758 -689193779
REM
CELL 1.54180   50.00000   50.00000   50.00000   90.00000   90.00000   90.00000
LATT -1
SFAC C  
C      1  0.5209160000000  0.5576790000000  0.5589470000000 1.0
C      1  0.4790840000000  0.4423210000000  0.4410530000000 1.0
C      1  0.5658960000000  0.6001340000000  0.5129910000000 1.0
C      1  0.4341040000000  0.3998660000000  0.4870090000000 1.0
C      1  0.4825450000000  0.4950460000000  0.5488130000000 1.0
C      1  0.5174550000000  0.5049540000000  0.4511870000000 1.0
C      1  0.6331070000000  0.4620690000000  0.5378130000000 1.0
C      1  0.3668930000000  0.5379310000000  0.4621870000000 1.0
C      1  0.5076140000000  0.4747490000000  0.4911490000000 1.0
C      1  0.4923860000000  0.5252510000000  0.5088510000000 1.0
C      1  0.5677130000000  0.4694950000000  0.5894330000000 1.0
C      1  0.4322870000000  0.5305050000000  0.4105670000000 1.0
C      1  0.4486540000000  0.4578780000000  0.5416550000000 1.0
C      1  0.5513460000000  0.5421220000000  0.4583450000000 1.0
C      1  0.5529250000000  0.5345230000000  0.4097010000000 1.0
C      1  0.4470750000000  0.4654770000000  0.5902990000000 1.0
C      1  0.4324750000000  0.5868440000000  0.4864960000000 1.0
C      1  0.5675250000000  0.4131560000000  0.5135040000000 1.0
C      1  0.4794580000000  0.3883550000000  0.4720890000000 1.0
C      1  0.5205420000000  0.6116450000000  0.5279110000000 1.0
C      1  0.5046160000000  0.6119830000000  0.4419770000000 1.0
C      1  0.4953840000000  0.3880170000000  0.5580230000000 1.0
C      1  0.4488430000000  0.4744130000000  0.4874430000000 1.0
C      1  0.5511570000000  0.5255870000000  0.5125570000000 1.0
C      1  0.5197530000000  0.4524510000000  0.3823790000000 1.0
C      1  0.4802470000000  0.5475490000000  0.6176210000000 1.0
C      1  0.5330850000000  0.4547850000000  0.5488520000000 1.0
C      1  0.4669150000000  0.5452150000000  0.4511480000000 1.0
C      1  0.5818100000000  0.5526430000000  0.4982860000000 1.0
C      1  0.4181900000000  0.4473570000000  0.5017140000000 1.0
C      1  0.5579400000000  0.5957390000000  0.4592530000000 1.0
C      1  0.4420600000000  0.4042610000000  0.5407470000000 1.0
C      1  0.3992340000000  0.4705220000000  0.5016420000000 1.0
C      1  0.6007660000000  0.5294780000000  0.4983580000000 1.0
C      1  0.5524700000000  0.5100980000000  0.5624050000000 1.0
C      1  0.4475300000000  0.4899020000000  0.4375950000000 1.0
C      1  0.4448820000000  0.4411520000000  0.3899110000000 1.0
C      1  0.5551180000000  0.5588480000000  0.6100890000000 1.0
C      1  0.5542850000000  0.5285260000000  0.6155170000000 1.0
C      1  0.4457150000000  0.4714740000000  0.3844830000000 1.0
C      1  0.5025860000000  0.5087800000000  0.5681630000000 1.0
C      1  0.4974140000000  0.4912200000000  0.4318370000000 1.0
C      1  0.4185290000000  0.5274630000000  0.5488010000000 1.0
C      1  0.5814710000000  0.4725370000000  0.4511990000000 1.0
C      1  0.4742610000000  0.4716670000000  0.5995000000000 1.0
C      1  0.5257390000000  0.5283330000000  0.4005000000000 1.0
C      1  0.4353730000000  0.4901860000000  0.5100610000000 1.0
C      1  0.5646270000000  0.5098140000000  0.4899390000000 1.0
C      1  0.5952310000000  0.5333010000000  0.4543460000000 1.0
C      1  0.4047690000000  0.4666990000000  0.5456540000000 1.0
C      1  0.4720940000000  0.5787990000000  0.5578650000000 1.0
C      1  0.5279060000000  0.4212010000000  0.4421350000000 1.0
C      1  0.5178850000000  0.4697220000000  0.5691560000000 1.0
C      1  0.4821150000000  0.5302780000000  0.4308440000000 1.0
C      1  0.5132800000000  0.4160660000000  0.4169390000000 1.0
C      1  0.4867200000000  0.5839340000000  0.5830610000000 1.0
C      1  0.4796570000000  0.5278270000000  0.5754500000000 1.0
C      1  0.5203430000000  0.4721730000000  0.4245500000000 1.0
C      1  0.4319090000000  0.4803750000000  0.5385340000000 1.0
C      1  0.5680910000000  0.5196250000000  0.4614660000000 1.0
C      1  0.4904040000000  0.6154530000000  0.4903750000000 1.0
C      1  0.5095960000000  0.3845470000000  0.5096250000000 1.0
C      1  0.5256920000000  0.5159730000000  0.5511760000000 1.0
C      1  0.4743080000000  0.4840270000000  0.4488240000000 1.0
C      1  0.5890240000000  0.5389480000000  0.5833810000000 1.0
C      1  0.4109760000000  0.4610520000000  0.4166190000000 1.0
C      1  0.3863420000000  0.5600920000000  0.4674450000000 1.0
C      1  0.6136580000000  0.4399080000000  0.5325550000000 1.0
C      1  0.5890190000000  0.5819290000000  0.5066800000000 1.0
C      1  0.4109810000000  0.4180710000000  0.4933200000000 1.0
C      1  0.5110260000000  0.4461420000000  0.5004230000000 1.0
C      1  0.4889740000000  0.5538580000000  0.4995770000000 1.0
C      1  0.3639330000000  0.5224550000000  0.4876480000000 1.0
C      1  0.6360670000000  0.4775450000000  0.5123520000000 1.0
C      1  0.4689420000000  0.5712020000000  0.6041760000000 1.0
C      1  0.5310580000000  0.4287980000000  0.3958240000000 1.0
C      1  0.5400830000000  0.5912430000000  0.5223100000000 1.0
C      1  0.4599170000000  0.4087570000000  0.4776900000000 1.0
C      1  0.5456410000000  0.5828170000000  0.4337180000000 1.0
C      1  0.4543590000000  0.4171830000000  0.5662820000000 1.0
C      1  0.5244090000000  0.5341560000000  0.4540080000000 1.0
C      1  0.4755910000000  0.4658440000000  0.5459920000000 1.0
C      1  0.5282460000000  0.4847260000000  0.4697560000000 1.0
C      1  0.4717540000000  0.5152740000000  0.5302440000000 1.0
C      1  0.5565830000000  0.5551360000000  0.4832160000000 1.0
C      1  0.4434170000000  0.4448640000000  0.5167840000000 1.0
C      1  0.5246790000000  0.5207930000000  0.6158280000000 1.0
C      1  0.4753210000000  0.4792070000000  0.3841720000000 1.0
C      1  0.4982170000000  0.4577580000000  0.5871270000000 1.0
C      1  0.5017830000000  0.5422420000000  0.4128730000000 1.0
C      1  0.5093580000000  0.5466780000000  0.6212000000000 1.0
C      1  0.4906420000000  0.4533220000000  0.3788000000000 1.0
C      1  0.5258540000000  0.4881400000000  0.5115170000000 1.0
C      1  0.4741460000000  0.5118600000000  0.4884830000000 1.0
C      1  0.5347970000000  0.4268880000000  0.5817760000000 1.0
C      1  0.4652030000000  0.5731120000000  0.4182240000000 1.0
C      1  0.4401780000000  0.5425210000000  0.5077180000000 1.0
C      1  0.5598220000000  0.4574790000000  0.4922820000000 1.0
C      1  0.4973650000000  0.5737040000000  0.5182320000000 1.0
C      1  0.5026350000000  0.4262960000000  0.4817680000000 1.0
C      1  0.5759120000000  0.5169810000000  0.5983630000000 1.0
C      1  0.4240880000000  0.4830190000000  0.4016370000000 1.0
C      1  0.5172120000000  0.5776840000000  0.5824140000000 1.0
C      1  0.4827880000000  0.4223160000000  0.4175860000000 1.0
C      1  0.5135470000000  0.5013790000000  0.5964050000000 1.0
C      1  0.4864530000000  0.4986210000000  0.4035950000000 1.0
C      1  0.3820550000000  0.5330970000000  0.5095020000000 1.0
C      1  0.6179450000000  0.4669030000000  0.4904980000000 1.0
C      1  0.4304650000000  0.5850990000000  0.4568620000000 1.0
C      1  0.5695350000000  0.4149010000000  0.5431380000000 1.0
C      1  0.5945920000000  0.4281420000000  0.5520460000000 1.0
C      1  0.4054080000000  0.5718580000000  0.4479540000000 1.0
C      1  0.4928020000000  0.4431180000000  0.5468460000000 1.0
C      1  0.5071980000000  0.5568820000000  0.4531540000000 1.0
C      1  0.4157570000000  0.4157910000000  0.5291750000000 1.0
C      1  0.5842430000000  0.5842090000000  0.4708250000000 1.0
C      1  0.4842540000000  0.5603310000000  0.4707430000000 1.0
C      1  0.5157460000000  0.4396690000000  0.5292570000000 1.0
C      1  0.4660820000000  0.5480060000000  0.5559260000000 1.0
C      1  0.5339180000000  0.4519940000000  0.4440740000000 1.0
C      1  0.5032440000000  0.4287690000000  0.5863730000000 1.0
C      1  0.4967560000000  0.5712310000000  0.4136270000000 1.0
C      1  0.3956500000000  0.5156840000000  0.5295910000000 1.0
C      1  0.6043500000000  0.4843160000000  0.4704090000000 1.0
C      1  0.4211260000000  0.5469030000000  0.5993820000000 1.0
C      1  0.5788740000000  0.4530970000000  0.4006180000000 1.0
C      1  0.4733400000000  0.4325790000000  0.3914580000000 1.0
C      1  0.5266600000000  0.5674210000000  0.6085420000000 1.0
C      1  0.5751530000000  0.5653340000000  0.5878840000000 1.0
C      1  0.4248470000000  0.4346660000000  0.4121160000000 1.0
C      1  0.4423590000000  0.4951090000000  0.5609110000000 1.0
C      1  0.5576410000000  0.5048910000000  0.4390890000000 1.0
C      1  0.5996780000000  0.5634690000000  0.4542030000000 1.0
C      1  0.4003220000000  0.4365310000000  0.5457970000000 1.0
C      1  0.5776550000000  0.4359410000000  0.4985190000000 1.0
C      1  0.4223450000000  0.5640590000000  0.5014810000000 1.0
C      1  0.5060820000000  0.3964000000000  0.4828770000000 1.0
C      1  0.4939180000000  0.6036000000000  0.5171230000000 1.0
C      1  0.6049280000000  0.4430420000000  0.5039510000000 1.0
C      1  0.3950720000000  0.5569580000000  0.4960490000000 1.0
C      1  0.4361140000000  0.6116080000000  0.5007960000000 1.0
C      1  0.5638860000000  0.3883920000000  0.4992040000000 1.0
C      1  0.5381880000000  0.5965990000000  0.5708360000000 1.0
C      1  0.4618120000000  0.4034010000000  0.4291640000000 1.0
C      1  0.4456710000000  0.5346050000000  0.5359300000000 1.0
C      1  0.5543290000000  0.4653950000000  0.4640700000000 1.0
C      1  0.5544260000000  0.3874030000000  0.4719810000000 1.0
C      1  0.4455740000000  0.6125970000000  0.5280190000000 1.0
C      1  0.5814360000000  0.4760520000000  0.4200260000000 1.0
C      1  0.4185640000000  0.5239480000000  0.5799740000000 1.0
C      1  0.5351550000000  0.5636870000000  0.5335030000000 1.0
C      1  0.4648450000000  0.4363130000000  0.4664970000000 1.0
C      1  0.4329940000000  0.4175680000000  0.4354850000000 1.0
C      1  0.5670060000000  0.5824320000000  0.5645150000000 1.0
C      1  0.5282940000000  0.4765160000000  0.3963440000000 1.0
C      1  0.4717060000000  0.5234840000000  0.6036560000000 1.0
C      1  0.4533870000000  0.5915470000000  0.4385990000000 1.0
C      1  0.5466130000000  0.4084530000000  0.5614010000000 1.0
C      1  0.5517810000000  0.4749960000000  0.5140890000000 1.0
C      1  0.4482190000000  0.5250040000000  0.4859110000000 1.0
C      1  0.5160970000000  0.5902450000000  0.4264940000000 1.0
C      1  0.4839030000000  0.4097550000000  0.5735060000000 1.0
C      1  0.6083220000000  0.5142630000000  0.4736000000000 1.0
C      1  0.3916780000000  0.4857370000000  0.5264000000000 1.0
C      1  0.4441740000000  0.4452680000000  0.5679340000000 1.0
C      1  0.5558260000000  0.5547320000000  0.4320660000000 1.0
C      1  0.4394590000000  0.5706430000000  0.5973990000000 1.0
C      1  0.5605410000000  0.4293570000000  0.4026010000000 1.0
C      1  0.4419410000000  0.5341300000000  0.4590870000000 1.0
C      1  0.5580590000000  0.4658700000000  0.5409130000000 1.0
C      1  0.5767790000000  0.5673030000000  0.5372920000000 1.0
C      1  0.4232210000000  0.4326970000000  0.4627080000000 1.0
C      1  0.4839860000000  0.4945420000000  0.6440730000000 1.0
C      1  0.5160140000000  0.5054580000000  0.3559270000000 1.0
C      1  0.5397590000000  0.6119970000000  0.4760880000000 1.0
C      1  0.4602410000000  0.3880030000000  0.5239120000000 1.0
C      1  0.5271430000000  0.6184830000000  0.5551890000000 1.0
C      1  0.4728570000000  0.3815170000000  0.4448110000000 1.0
C      1  0.5296310000000  0.3996280000000  0.4637840000000 1.0
C      1  0.4703690000000  0.6003720000000  0.5362160000000 1.0
C      1  0.4767170000000  0.4964810000000  0.6159780000000 1.0
C      1  0.5232830000000  0.5035190000000  0.3840220000000 1.0
C      1  0.4317470000000  0.4621080000000  0.4648250000000 1.0
C      1  0.5682530000000  0.5378920000000  0.5351750000000 1.0
C      1  0.4355860000000  0.5167160000000  0.4365500000000 1.0
C      1  0.5644140000000  0.4832840000000  0.5634500000000 1.0
C      1  0.5528530000000  0.4447020000000  0.5981340000000 1.0
C      1  0.4471470000000  0.5552980000000  0.4018660000000 1.0
C      1  0.4886640000000  0.3835720000000  0.5303370000000 1.0
C      1  0.5113360000000  0.6164280000000  0.4696630000000 1.0
C      1  0.4779080000000  0.4838910000000  0.4795780000000 1.0
C      1  0.5220920000000  0.5161090000000  0.5204220000000 1.0
C      1  0.4293080000000  0.4939610000000  0.5887250000000 1.0
C      1  0.5706920000000  0.5060390000000  0.4112750000000 1.0
END
