TITL C-862502-1143-1035 -7.00916104488034e-06 125000 -270.720579031448 0 0 54 (T23) n - 1
REM
REM in /home/nfs/bkarasulu/CARBON/AIRSS/Generating-Clusters/TERSOFF/Higher-Symm/FIRE-HFTN
REM
REM
REM
REM
REM
REM ./C.cell (b20cbc046b6831c77cfcea5457e17084)
REM AIRSS Version 0.9.1 bugfix July 2018 build 013d7b7c2542+ Fri, 06 Jul 2018 19:26:36 +0100
REM compiler GCC version 9.2.1 20190827 (Red Hat 9.2.1-1)
REM options -cpp -mtune=generic -march=x86-64 -g -O0 -fpre-include=/usr/include/finclude/math-vector-fortran.h
REM seed 938481692 266428605 739990474 716658001 -580274991 -1243879507 1943647664 1006468105 -111572884 91732956 1297453566 -1286026430 -110488226 -314805342 819449085 -14971933 -357780018 -1812069143 418563843 1184480026 243716702 -968422548 176169691 782500037 -366777248 -855713180 1567148704 767851534 -1436867475 -1025064756 671644171 -750519887 -85317564
REM
CELL 1.54180   50.00000   50.00000   50.00000   90.00000   90.00000   90.00000
LATT -1
SFAC C  
C      1  0.4656580000000  0.5076810000000  0.5117760000000 1.0
C      1  0.5075660000000  0.5112770000000  0.4662720000000 1.0
C      1  0.5111620000000  0.4657730000000  0.5081810000000 1.0
C      1  0.5326460000000  0.5076810000000  0.4877570000000 1.0
C      1  0.5326460000000  0.4908530000000  0.5117760000000 1.0
C      1  0.4656580000000  0.4908530000000  0.4877570000000 1.0
C      1  0.4907380000000  0.5112770000000  0.5332610000000 1.0
C      1  0.4907380000000  0.4872580000000  0.4662720000000 1.0
C      1  0.5075660000000  0.4872580000000  0.5332610000000 1.0
C      1  0.4871420000000  0.4657730000000  0.4913520000000 1.0
C      1  0.4871420000000  0.5327620000000  0.5081810000000 1.0
C      1  0.5111620000000  0.5327620000000  0.4913520000000 1.0
C      1  0.5046850000000  0.5424680000000  0.5449460000000 1.0
C      1  0.5423530000000  0.5444470000000  0.5053000000000 1.0
C      1  0.5443320000000  0.5048010000000  0.5429680000000 1.0
C      1  0.4936190000000  0.5424680000000  0.4545870000000 1.0
C      1  0.4936190000000  0.4560660000000  0.5449460000000 1.0
C      1  0.5046850000000  0.4560660000000  0.4545870000000 1.0
C      1  0.4559510000000  0.5444470000000  0.4942330000000 1.0
C      1  0.4559510000000  0.4540880000000  0.5053000000000 1.0
C      1  0.5423530000000  0.4540880000000  0.4942330000000 1.0
C      1  0.4539720000000  0.5048010000000  0.4565660000000 1.0
C      1  0.4539720000000  0.4937340000000  0.5429680000000 1.0
C      1  0.5443320000000  0.4937340000000  0.4565660000000 1.0
C      1  0.4744910000000  0.4498300000000  0.4490060000000 1.0
C      1  0.4497150000000  0.4485060000000  0.4751060000000 1.0
C      1  0.4483910000000  0.4746060000000  0.4503290000000 1.0
C      1  0.5238130000000  0.4498300000000  0.5505280000000 1.0
C      1  0.5238130000000  0.5487050000000  0.4490060000000 1.0
C      1  0.4744910000000  0.5487050000000  0.5505280000000 1.0
C      1  0.5485890000000  0.4485060000000  0.5244280000000 1.0
C      1  0.5485890000000  0.5500280000000  0.4751060000000 1.0
C      1  0.4497150000000  0.5500280000000  0.5244280000000 1.0
C      1  0.5499130000000  0.4746060000000  0.5492040000000 1.0
C      1  0.5499130000000  0.5239280000000  0.4503290000000 1.0
C      1  0.4483910000000  0.5239280000000  0.5492040000000 1.0
C      1  0.5599040000000  0.4766520000000  0.4810720000000 1.0
C      1  0.4765370000000  0.4805730000000  0.5605180000000 1.0
C      1  0.4804570000000  0.5600190000000  0.4771520000000 1.0
C      1  0.4384000000000  0.4766520000000  0.5184610000000 1.0
C      1  0.4384000000000  0.5218820000000  0.4810720000000 1.0
C      1  0.5599040000000  0.5218820000000  0.5184610000000 1.0
C      1  0.5217670000000  0.4805730000000  0.4390150000000 1.0
C      1  0.5217670000000  0.5179620000000  0.5605180000000 1.0
C      1  0.4765370000000  0.5179620000000  0.4390150000000 1.0
C      1  0.5178470000000  0.5600190000000  0.5223820000000 1.0
C      1  0.5178470000000  0.4385160000000  0.4771520000000 1.0
C      1  0.4804570000000  0.4385160000000  0.5223820000000 1.0
C      1  0.4991520000000  0.4992670000000  0.4247190000000 1.0
C      1  0.4991520000000  0.4242200000000  0.4997670000000 1.0
C      1  0.4241040000000  0.4992670000000  0.4997670000000 1.0
C      1  0.4991520000000  0.4992670000000  0.5748140000000 1.0
C      1  0.4991520000000  0.5743150000000  0.4997670000000 1.0
C      1  0.5742000000000  0.4992670000000  0.4997670000000 1.0
END
