TITL C-862134-6730-774 54.2565620378794 125000 -1033.89406917444 0 0 178 (C1) n - 1
REM
REM in /home/nfs/bkarasulu/CARBON/AIRSS/Generating-Clusters/TERSOFF/Higher-Symm/FIRE-HFTN
REM
REM
REM
REM
REM
REM ./C.cell (b20cbc046b6831c77cfcea5457e17084)
REM AIRSS Version 0.9.1 bugfix July 2018 build 013d7b7c2542+ Fri, 06 Jul 2018 19:26:36 +0100
REM compiler GCC version 9.2.1 20190827 (Red Hat 9.2.1-1)
REM options -cpp -mtune=generic -march=x86-64 -g -O0 -fpre-include=/usr/include/finclude/math-vector-fortran.h
REM seed -214934570 -1700311653 -1819916494 -886719013 545244864 -345693897 879673273 1319851934 -151699826 -1209124662 1287421761 2141397416 317946383 464845169 -279154666 -2003587874 -87243633 -1652786367 -468791559 1490946118 -89676799 451196769 831564071 1269903007 1066013150 -516633309 -244280561 -505475823 -295338987 -700547169 -80420966 -1390543035 492396223
REM
CELL 1.54180   50.00000   50.00000   50.00000   90.00000   90.00000   90.00000
LATT -1
SFAC C  
C      1  0.4205190000000  0.5628080000000  0.5672710000000 1.0
C      1  0.4895010000000  0.5648100000000  0.5655210000000 1.0
C      1  0.4560980000000  0.5865700000000  0.5450790000000 1.0
C      1  0.4705210000000  0.5448310000000  0.4461840000000 1.0
C      1  0.5639430000000  0.4346570000000  0.4496010000000 1.0
C      1  0.6005720000000  0.5402020000000  0.5686030000000 1.0
C      1  0.5621220000000  0.5213020000000  0.4157090000000 1.0
C      1  0.5323060000000  0.3875860000000  0.5533280000000 1.0
C      1  0.3663210000000  0.4747860000000  0.5041360000000 1.0
C      1  0.5508830000000  0.5907070000000  0.4460660000000 1.0
C      1  0.4811520000000  0.4720490000000  0.5725600000000 1.0
C      1  0.6000500000000  0.5108000000000  0.5075510000000 1.0
C      1  0.4253520000000  0.5525990000000  0.5379820000000 1.0
C      1  0.4643640000000  0.4129020000000  0.4248210000000 1.0
C      1  0.5730510000000  0.5451760000000  0.5839750000000 1.0
C      1  0.5824790000000  0.4700640000000  0.5707950000000 1.0
C      1  0.5056920000000  0.5146560000000  0.5934590000000 1.0
C      1  0.4101110000000  0.4779580000000  0.6186640000000 1.0
C      1  0.4724560000000  0.4026120000000  0.4873150000000 1.0
C      1  0.4907150000000  0.5677300000000  0.4472270000000 1.0
C      1  0.4427340000000  0.5032010000000  0.4580050000000 1.0
C      1  0.3663940000000  0.5040970000000  0.5055770000000 1.0
C      1  0.5498560000000  0.3848190000000  0.5293260000000 1.0
C      1  0.5026680000000  0.4742010000000  0.4363630000000 1.0
C      1  0.5427800000000  0.4661720000000  0.4200660000000 1.0
C      1  0.3976880000000  0.4365070000000  0.5161960000000 1.0
C      1  0.5331220000000  0.4868770000000  0.5414300000000 1.0
C      1  0.5504210000000  0.5290680000000  0.4780440000000 1.0
C      1  0.5975060000000  0.5802480000000  0.5301540000000 1.0
C      1  0.5184950000000  0.5230240000000  0.4336730000000 1.0
C      1  0.5961290000000  0.5337520000000  0.4606500000000 1.0
C      1  0.4801070000000  0.4681040000000  0.5093550000000 1.0
C      1  0.6213430000000  0.4970640000000  0.4380120000000 1.0
C      1  0.4459280000000  0.4582180000000  0.4673030000000 1.0
C      1  0.4765880000000  0.4437200000000  0.5273500000000 1.0
C      1  0.5324710000000  0.5765640000000  0.5896970000000 1.0
C      1  0.4952110000000  0.3964960000000  0.5263830000000 1.0
C      1  0.5097030000000  0.5589770000000  0.4701470000000 1.0
C      1  0.5278140000000  0.5375810000000  0.4608150000000 1.0
C      1  0.5527590000000  0.5059900000000  0.3919130000000 1.0
C      1  0.5478660000000  0.5941250000000  0.4962510000000 1.0
C      1  0.4230640000000  0.5544480000000  0.4609300000000 1.0
C      1  0.5138690000000  0.5118910000000  0.5137250000000 1.0
C      1  0.5466880000000  0.3998370000000  0.5035470000000 1.0
C      1  0.5238680000000  0.4649400000000  0.5570930000000 1.0
C      1  0.5600040000000  0.4811210000000  0.5009110000000 1.0
C      1  0.4698970000000  0.5341170000000  0.4755640000000 1.0
C      1  0.5551770000000  0.5404310000000  0.5075620000000 1.0
C      1  0.4852980000000  0.5612710000000  0.5163400000000 1.0
C      1  0.4328080000000  0.4985590000000  0.5340200000000 1.0
C      1  0.5944070000000  0.4886880000000  0.4315260000000 1.0
C      1  0.5632940000000  0.5511400000000  0.4160810000000 1.0
C      1  0.3989450000000  0.4762470000000  0.5689570000000 1.0
C      1  0.3886200000000  0.5196670000000  0.5485630000000 1.0
C      1  0.4905820000000  0.5485050000000  0.4909320000000 1.0
C      1  0.5351370000000  0.4569300000000  0.5822210000000 1.0
C      1  0.4006030000000  0.4335680000000  0.5967810000000 1.0
C      1  0.5153760000000  0.4636080000000  0.5035330000000 1.0
C      1  0.4914540000000  0.5393390000000  0.6012370000000 1.0
C      1  0.5233820000000  0.5012600000000  0.6129390000000 1.0
C      1  0.5289680000000  0.5732800000000  0.5393220000000 1.0
C      1  0.5003380000000  0.4103570000000  0.4796890000000 1.0
C      1  0.4856690000000  0.5969740000000  0.4895080000000 1.0
C      1  0.3787320000000  0.4570180000000  0.5241520000000 1.0
C      1  0.5629750000000  0.4261190000000  0.4990660000000 1.0
C      1  0.5626850000000  0.5534780000000  0.5562610000000 1.0
C      1  0.4861840000000  0.5926230000000  0.3747160000000 1.0
C      1  0.5370570000000  0.5121860000000  0.5528390000000 1.0
C      1  0.4572230000000  0.4955100000000  0.5140180000000 1.0
C      1  0.5694830000000  0.5034200000000  0.4395250000000 1.0
C      1  0.4275740000000  0.5453660000000  0.5901670000000 1.0
C      1  0.5741670000000  0.5152790000000  0.4663170000000 1.0
C      1  0.4485730000000  0.4118780000000  0.4733620000000 1.0
C      1  0.4849550000000  0.5759590000000  0.3984120000000 1.0
C      1  0.5172760000000  0.4559610000000  0.6044100000000 1.0
C      1  0.4032580000000  0.4624700000000  0.5950300000000 1.0
C      1  0.4055440000000  0.5337330000000  0.5061180000000 1.0
C      1  0.3908440000000  0.5040530000000  0.5721560000000 1.0
C      1  0.5222380000000  0.4387880000000  0.5203980000000 1.0
C      1  0.3769090000000  0.4632800000000  0.5527030000000 1.0
C      1  0.5521570000000  0.5077590000000  0.6149580000000 1.0
C      1  0.5462200000000  0.4361510000000  0.5362400000000 1.0
C      1  0.5315370000000  0.4865090000000  0.5120940000000 1.0
C      1  0.5875350000000  0.4672460000000  0.5407110000000 1.0
C      1  0.6016260000000  0.5641080000000  0.5064700000000 1.0
C      1  0.4858770000000  0.3923580000000  0.4233020000000 1.0
C      1  0.5634400000000  0.4537490000000  0.5847860000000 1.0
C      1  0.4724680000000  0.4407890000000  0.4185070000000 1.0
C      1  0.4721300000000  0.6093870000000  0.5374740000000 1.0
C      1  0.4981930000000  0.4251270000000  0.5256850000000 1.0
C      1  0.4353900000000  0.5881690000000  0.5653770000000 1.0
C      1  0.4716290000000  0.3952920000000  0.5611100000000 1.0
C      1  0.4975500000000  0.5011950000000  0.5676110000000 1.0
C      1  0.5488570000000  0.5725200000000  0.5163220000000 1.0
C      1  0.5178060000000  0.4271850000000  0.4345480000000 1.0
C      1  0.5696800000000  0.5154330000000  0.5928300000000 1.0
C      1  0.5045330000000  0.5659300000000  0.5916460000000 1.0
C      1  0.4578720000000  0.5072230000000  0.4837810000000 1.0
C      1  0.4147190000000  0.5224950000000  0.5332270000000 1.0
C      1  0.5127580000000  0.4955390000000  0.4198520000000 1.0
C      1  0.4912570000000  0.5322400000000  0.4247870000000 1.0
C      1  0.4538330000000  0.4643970000000  0.4177950000000 1.0
C      1  0.5734890000000  0.4423730000000  0.5254060000000 1.0
C      1  0.4326050000000  0.4611450000000  0.4401130000000 1.0
C      1  0.4676680000000  0.4224460000000  0.5718890000000 1.0
C      1  0.4201450000000  0.5232980000000  0.4539820000000 1.0
C      1  0.5363670000000  0.5877620000000  0.5632920000000 1.0
C      1  0.5058360000000  0.6007560000000  0.4682890000000 1.0
C      1  0.5236760000000  0.3920650000000  0.4838310000000 1.0
C      1  0.3858280000000  0.5198040000000  0.4898690000000 1.0
C      1  0.4643660000000  0.4471760000000  0.5534830000000 1.0
C      1  0.4636610000000  0.5540130000000  0.5705110000000 1.0
C      1  0.4691890000000  0.4762020000000  0.4781880000000 1.0
C      1  0.5446110000000  0.4380890000000  0.4278740000000 1.0
C      1  0.4069750000000  0.5643480000000  0.5121540000000 1.0
C      1  0.5689080000000  0.5683060000000  0.4397500000000 1.0
C      1  0.4983480000000  0.5212580000000  0.5393020000000 1.0
C      1  0.4988780000000  0.4479660000000  0.4251350000000 1.0
C      1  0.4440850000000  0.5270290000000  0.4033330000000 1.0
C      1  0.5266250000000  0.3824330000000  0.4550200000000 1.0
C      1  0.5541270000000  0.4419650000000  0.4762540000000 1.0
C      1  0.5256680000000  0.4518770000000  0.4775790000000 1.0
C      1  0.5908170000000  0.4247590000000  0.4450950000000 1.0
C      1  0.5833810000000  0.4948260000000  0.4870120000000 1.0
C      1  0.5038900000000  0.5568730000000  0.5401900000000 1.0
C      1  0.5134320000000  0.3977960000000  0.4324070000000 1.0
C      1  0.5499990000000  0.5342730000000  0.5396840000000 1.0
C      1  0.4682630000000  0.5130780000000  0.4188060000000 1.0
C      1  0.5106040000000  0.6024970000000  0.3627190000000 1.0
C      1  0.4195120000000  0.5108440000000  0.4004080000000 1.0
C      1  0.6431700000000  0.4930370000000  0.4842610000000 1.0
C      1  0.4548060000000  0.3874350000000  0.5374580000000 1.0
C      1  0.5896970000000  0.4966550000000  0.5808150000000 1.0
C      1  0.4903310000000  0.6100040000000  0.5151230000000 1.0
C      1  0.4224700000000  0.4311820000000  0.5301620000000 1.0
C      1  0.4465330000000  0.5480800000000  0.4267630000000 1.0
C      1  0.6003130000000  0.4967520000000  0.5344450000000 1.0
C      1  0.4031960000000  0.5007130000000  0.4228970000000 1.0
C      1  0.5020540000000  0.3845200000000  0.5531250000000 1.0
C      1  0.5049990000000  0.4948480000000  0.3908170000000 1.0
C      1  0.4769530000000  0.4987070000000  0.3804140000000 1.0
C      1  0.4566140000000  0.5590000000000  0.5294280000000 1.0
C      1  0.4870880000000  0.5464970000000  0.3971440000000 1.0
C      1  0.5344270000000  0.5929230000000  0.4704150000000 1.0
C      1  0.4709980000000  0.3858360000000  0.5118730000000 1.0
C      1  0.5557330000000  0.5631580000000  0.6010910000000 1.0
C      1  0.4675600000000  0.5287810000000  0.3799380000000 1.0
C      1  0.6064780000000  0.5116300000000  0.5610000000000 1.0
C      1  0.4601660000000  0.4923760000000  0.4352810000000 1.0
C      1  0.4814710000000  0.5872980000000  0.4256110000000 1.0
C      1  0.5453710000000  0.4772260000000  0.3929940000000 1.0
C      1  0.6280070000000  0.5138580000000  0.4974640000000 1.0
C      1  0.3936100000000  0.5140200000000  0.4626790000000 1.0
C      1  0.4538140000000  0.5898100000000  0.4370940000000 1.0
C      1  0.4554620000000  0.4782250000000  0.3889980000000 1.0
C      1  0.5474050000000  0.4846950000000  0.4409670000000 1.0
C      1  0.4619110000000  0.5788220000000  0.4861900000000 1.0
C      1  0.6007000000000  0.4743520000000  0.4738570000000 1.0
C      1  0.4757270000000  0.4303620000000  0.5985340000000 1.0
C      1  0.4675870000000  0.5291920000000  0.5368590000000 1.0
C      1  0.4249950000000  0.5027810000000  0.6183990000000 1.0
C      1  0.6004650000000  0.5769890000000  0.4800670000000 1.0
C      1  0.5112610000000  0.4851360000000  0.6340180000000 1.0
C      1  0.4458090000000  0.5751240000000  0.4614640000000 1.0
C      1  0.6385670000000  0.4838950000000  0.4571870000000 1.0
C      1  0.4068820000000  0.4746880000000  0.4365670000000 1.0
C      1  0.4361380000000  0.4504890000000  0.5471640000000 1.0
C      1  0.5919950000000  0.5615750000000  0.4570310000000 1.0
C      1  0.4964760000000  0.4790090000000  0.4643520000000 1.0
C      1  0.5081600000000  0.4336050000000  0.4634960000000 1.0
C      1  0.5706670000000  0.5780250000000  0.5409130000000 1.0
C      1  0.4577170000000  0.5388400000000  0.5967990000000 1.0
C      1  0.5410580000000  0.4613160000000  0.3691510000000 1.0
C      1  0.4241510000000  0.4756360000000  0.5514210000000 1.0
C      1  0.4889520000000  0.4564520000000  0.5988480000000 1.0
C      1  0.5864580000000  0.5382950000000  0.5083380000000 1.0
C      1  0.3646670000000  0.5159900000000  0.5322530000000 1.0
C      1  0.4439900000000  0.4091950000000  0.4449620000000 1.0
END
