TITL C-862131-2149-866 -0.000144790584869561 125000 -240.604342878212 0 0 44 (D4) n - 1
REM
REM in /home/nfs/bkarasulu/CARBON/AIRSS/Generating-Clusters/TERSOFF/Higher-Symm/FIRE-HFTN
REM
REM
REM
REM
REM
REM ./C.cell (b20cbc046b6831c77cfcea5457e17084)
REM AIRSS Version 0.9.1 bugfix July 2018 build 013d7b7c2542+ Fri, 06 Jul 2018 19:26:36 +0100
REM compiler GCC version 9.2.1 20190827 (Red Hat 9.2.1-1)
REM options -cpp -mtune=generic -march=x86-64 -g -O0 -fpre-include=/usr/include/finclude/math-vector-fortran.h
REM seed 1860311133 -14384152 -1763870191 -1377682099 100686212 -1056918771 -892963613 1508622509 -313983524 -960132330 -190451385 -550192113 1475305238 -150631768 162291105 -354954194 1750078825 -2091860887 -1938145999 168544073 170803656 1639482211 -384175130 632464561 397161350 -1555144007 -1841301760 1818237773 1164644522 -1877482795 1031507870 -1552973123 -1065901540
REM
CELL 1.54180   50.00000   50.00000   50.00000   90.00000   90.00000   90.00000
LATT -1
SFAC C  
C      1  0.5546100000000  0.4804950000000  0.4705980000000 1.0
C      1  0.5294020000000  0.4804950000000  0.5546100000000 1.0
C      1  0.4453900000000  0.4804950000000  0.5294020000000 1.0
C      1  0.4705980000000  0.4804950000000  0.4453900000000 1.0
C      1  0.4453900000000  0.5226310000000  0.4705980000000 1.0
C      1  0.4705980000000  0.5226310000000  0.5546100000000 1.0
C      1  0.5546100000000  0.5226310000000  0.5294020000000 1.0
C      1  0.5294020000000  0.5226310000000  0.4453900000000 1.0
C      1  0.5166600000000  0.5225070000000  0.4853960000000 1.0
C      1  0.5146040000000  0.5225070000000  0.5166600000000 1.0
C      1  0.4833400000000  0.5225070000000  0.5146040000000 1.0
C      1  0.4853960000000  0.5225070000000  0.4833400000000 1.0
C      1  0.4833400000000  0.4806190000000  0.4853960000000 1.0
C      1  0.4853960000000  0.4806190000000  0.5166600000000 1.0
C      1  0.5166600000000  0.4806190000000  0.5146040000000 1.0
C      1  0.5146040000000  0.4806190000000  0.4833400000000 1.0
C      1  0.5287200000000  0.5659780000000  0.5340070000000 1.0
C      1  0.4659930000000  0.5659780000000  0.5287200000000 1.0
C      1  0.4712800000000  0.5659780000000  0.4659930000000 1.0
C      1  0.5340070000000  0.5659780000000  0.4712800000000 1.0
C      1  0.4712800000000  0.4371490000000  0.5340070000000 1.0
C      1  0.5340070000000  0.4371490000000  0.5287200000000 1.0
C      1  0.5287200000000  0.4371490000000  0.4659930000000 1.0
C      1  0.4659930000000  0.4371490000000  0.4712800000000 1.0
C      1  0.4463880000000  0.4472740000000  0.4907220000000 1.0
C      1  0.5092780000000  0.4472740000000  0.4463880000000 1.0
C      1  0.5536120000000  0.4472740000000  0.5092780000000 1.0
C      1  0.4907220000000  0.4472740000000  0.5536120000000 1.0
C      1  0.5536120000000  0.5558520000000  0.4907220000000 1.0
C      1  0.4907220000000  0.5558520000000  0.4463880000000 1.0
C      1  0.4463880000000  0.5558520000000  0.5092780000000 1.0
C      1  0.5092780000000  0.5558520000000  0.5536120000000 1.0
C      1  0.4523860000000  0.4539210000000  0.5188050000000 1.0
C      1  0.4811950000000  0.4539210000000  0.4523860000000 1.0
C      1  0.5476140000000  0.4539210000000  0.4811950000000 1.0
C      1  0.5188050000000  0.4539210000000  0.5476140000000 1.0
C      1  0.5476140000000  0.5492050000000  0.5188050000000 1.0
C      1  0.5188050000000  0.5492050000000  0.4523860000000 1.0
C      1  0.4523860000000  0.5492050000000  0.4811950000000 1.0
C      1  0.4811950000000  0.5492050000000  0.5476140000000 1.0
C      1  0.4674720000000  0.5015630000000  0.4674720000000 1.0
C      1  0.5325280000000  0.5015630000000  0.4674720000000 1.0
C      1  0.4674720000000  0.5015630000000  0.5325280000000 1.0
C      1  0.5325280000000  0.5015630000000  0.5325280000000 1.0
END
