TITL C-862128-1543-64 7.85814451585394e-06 125000 -627.118177718848 0 0 134 (C4) n - 1
REM
REM in /home/nfs/bkarasulu/CARBON/AIRSS/Generating-Clusters/TERSOFF/Higher-Symm/FIRE-HFTN
REM
REM
REM
REM
REM
REM ./C.cell (b20cbc046b6831c77cfcea5457e17084)
REM AIRSS Version 0.9.1 bugfix July 2018 build 013d7b7c2542+ Fri, 06 Jul 2018 19:26:36 +0100
REM compiler GCC version 9.2.1 20190827 (Red Hat 9.2.1-1)
REM options -cpp -mtune=generic -march=x86-64 -g -O0 -fpre-include=/usr/include/finclude/math-vector-fortran.h
REM seed -354305825 1062985921 -676047604 -1270604778 714315521 8330040 342687831 1949995427 1442939390 2014153090 -934223733 1516420262 -1063512349 629438533 1345502131 1310889946 -1521805676 1398390892 -1820676091 -1963169218 1273502517 1499505447 70026707 -1267855750 -116203458 1245478293 1359238688 -1176798464 -2083670992 1736402114 941219656 545456402 505738838
REM
CELL 1.54180   50.00000   50.00000   50.00000   90.00000   90.00000   90.00000
LATT -1
SFAC C  
C      1  0.5561840000000  0.4422230000000  0.5604570000000 1.0
C      1  0.5574710000000  0.5565920000000  0.5604570000000 1.0
C      1  0.4431020000000  0.5578790000000  0.5604570000000 1.0
C      1  0.4418150000000  0.4435100000000  0.5604570000000 1.0
C      1  0.4431020000000  0.4422230000000  0.4420610000000 1.0
C      1  0.4418150000000  0.5565920000000  0.4420610000000 1.0
C      1  0.5561840000000  0.5578790000000  0.4420610000000 1.0
C      1  0.5574710000000  0.4435100000000  0.4420610000000 1.0
C      1  0.4728080000000  0.4366570000000  0.4450090000000 1.0
C      1  0.5630370000000  0.4732160000000  0.4450090000000 1.0
C      1  0.5264780000000  0.5634450000000  0.4450090000000 1.0
C      1  0.4362490000000  0.5268860000000  0.4450090000000 1.0
C      1  0.5264780000000  0.4366570000000  0.5575080000000 1.0
C      1  0.4362490000000  0.4732160000000  0.5575080000000 1.0
C      1  0.4728080000000  0.5634450000000  0.5575080000000 1.0
C      1  0.5630370000000  0.5268860000000  0.5575080000000 1.0
C      1  0.5874370000000  0.5329730000000  0.4875910000000 1.0
C      1  0.4667210000000  0.5878450000000  0.4875910000000 1.0
C      1  0.4118490000000  0.4671290000000  0.4875910000000 1.0
C      1  0.5325650000000  0.4122570000000  0.4875910000000 1.0
C      1  0.4118490000000  0.5329730000000  0.5149270000000 1.0
C      1  0.5325650000000  0.5878450000000  0.5149270000000 1.0
C      1  0.5874370000000  0.4671290000000  0.5149270000000 1.0
C      1  0.4667220000000  0.4122570000000  0.5149270000000 1.0
C      1  0.5754020000000  0.5365810000000  0.4590360000000 1.0
C      1  0.4631130000000  0.5758100000000  0.4590360000000 1.0
C      1  0.4238840000000  0.4635210000000  0.4590360000000 1.0
C      1  0.5361730000000  0.4242920000000  0.4590360000000 1.0
C      1  0.4238840000000  0.5365810000000  0.5434810000000 1.0
C      1  0.5361730000000  0.5758100000000  0.5434810000000 1.0
C      1  0.5754020000000  0.4635210000000  0.5434810000000 1.0
C      1  0.4631130000000  0.4242920000000  0.5434810000000 1.0
C      1  0.5093110000000  0.5574540000000  0.4177900000000 1.0
C      1  0.4422400000000  0.5097190000000  0.4177900000000 1.0
C      1  0.4899760000000  0.4426480000000  0.4177900000000 1.0
C      1  0.5570460000000  0.4903830000000  0.4177900000000 1.0
C      1  0.4899760000000  0.5574540000000  0.5847280000000 1.0
C      1  0.5570460000000  0.5097190000000  0.5847280000000 1.0
C      1  0.5093110000000  0.4426480000000  0.5847280000000 1.0
C      1  0.4422400000000  0.4903830000000  0.5847280000000 1.0
C      1  0.5850010000000  0.4893670000000  0.4666550000000 1.0
C      1  0.5103270000000  0.5854090000000  0.4666550000000 1.0
C      1  0.4142850000000  0.5107350000000  0.4666550000000 1.0
C      1  0.4889590000000  0.4146930000000  0.4666550000000 1.0
C      1  0.4142850000000  0.4893670000000  0.5358630000000 1.0
C      1  0.4889590000000  0.5854090000000  0.5358630000000 1.0
C      1  0.5850010000000  0.5107350000000  0.5358630000000 1.0
C      1  0.5103270000000  0.4146930000000  0.5358630000000 1.0
C      1  0.4513050000000  0.5299920000000  0.5745760000000 1.0
C      1  0.4697030000000  0.4517130000000  0.5745760000000 1.0
C      1  0.5479810000000  0.4701110000000  0.5745760000000 1.0
C      1  0.5295840000000  0.5483890000000  0.5745760000000 1.0
C      1  0.5479810000000  0.5299920000000  0.4279420000000 1.0
C      1  0.5295840000000  0.4517130000000  0.4279420000000 1.0
C      1  0.4513050000000  0.4701100000000  0.4279420000000 1.0
C      1  0.4697030000000  0.5483890000000  0.4279420000000 1.0
C      1  0.4880090000000  0.4221140000000  0.5640580000000 1.0
C      1  0.5775810000000  0.4884170000000  0.5640580000000 1.0
C      1  0.5112770000000  0.5779890000000  0.5640580000000 1.0
C      1  0.4217060000000  0.5116850000000  0.5640580000000 1.0
C      1  0.5112770000000  0.4221130000000  0.4384590000000 1.0
C      1  0.4217060000000  0.4884170000000  0.4384590000000 1.0
C      1  0.4880090000000  0.5779880000000  0.4384590000000 1.0
C      1  0.5775810000000  0.5116850000000  0.4384590000000 1.0
C      1  0.4733990000000  0.4838310000000  0.5233020000000 1.0
C      1  0.5158630000000  0.4738070000000  0.5233020000000 1.0
C      1  0.5258870000000  0.5162710000000  0.5233020000000 1.0
C      1  0.4834230000000  0.5262950000000  0.5233020000000 1.0
C      1  0.5258870000000  0.4838310000000  0.4792160000000 1.0
C      1  0.4834230000000  0.4738070000000  0.4792160000000 1.0
C      1  0.4733990000000  0.5162710000000  0.4792160000000 1.0
C      1  0.5158630000000  0.5262950000000  0.4792160000000 1.0
C      1  0.5473300000000  0.4761910000000  0.5327850000000 1.0
C      1  0.5235030000000  0.5477380000000  0.5327850000000 1.0
C      1  0.4519560000000  0.5239110000000  0.5327850000000 1.0
C      1  0.4757840000000  0.4523640000000  0.5327850000000 1.0
C      1  0.4519560000000  0.4761910000000  0.4697330000000 1.0
C      1  0.4757830000000  0.5477380000000  0.4697330000000 1.0
C      1  0.5473300000000  0.5239110000000  0.4697330000000 1.0
C      1  0.5235030000000  0.4523640000000  0.4697330000000 1.0
C      1  0.4022060000000  0.4605400000000  0.5298240000000 1.0
C      1  0.5391540000000  0.4026140000000  0.5298240000000 1.0
C      1  0.5970800000000  0.5395620000000  0.5298240000000 1.0
C      1  0.4601320000000  0.5974880000000  0.5298240000000 1.0
C      1  0.5970800000000  0.4605400000000  0.4726930000000 1.0
C      1  0.4601320000000  0.4026140000000  0.4726930000000 1.0
C      1  0.4022060000000  0.5395620000000  0.4726930000000 1.0
C      1  0.5391540000000  0.5974880000000  0.4726930000000 1.0
C      1  0.4946160000000  0.4603970000000  0.4554600000000 1.0
C      1  0.5392970000000  0.4950240000000  0.4554600000000 1.0
C      1  0.5046700000000  0.5397050000000  0.4554600000000 1.0
C      1  0.4599890000000  0.5050780000000  0.4554600000000 1.0
C      1  0.5046700000000  0.4603970000000  0.5470570000000 1.0
C      1  0.4599890000000  0.4950240000000  0.5470570000000 1.0
C      1  0.4946160000000  0.5397050000000  0.5470570000000 1.0
C      1  0.5392970000000  0.5050780000000  0.5470570000000 1.0
C      1  0.5586090000000  0.5829130000000  0.4947470000000 1.0
C      1  0.4167810000000  0.5590170000000  0.4947470000000 1.0
C      1  0.4406770000000  0.4171890000000  0.4947470000000 1.0
C      1  0.5825050000000  0.4410850000000  0.4947470000000 1.0
C      1  0.4406770000000  0.5829130000000  0.5077710000000 1.0
C      1  0.5825050000000  0.5590170000000  0.5077710000000 1.0
C      1  0.5586090000000  0.4171890000000  0.5077710000000 1.0
C      1  0.4167810000000  0.4410850000000  0.5077710000000 1.0
C      1  0.4774740000000  0.5130660000000  0.4257350000000 1.0
C      1  0.4866280000000  0.4778820000000  0.4257350000000 1.0
C      1  0.5218120000000  0.4870360000000  0.4257350000000 1.0
C      1  0.5126580000000  0.5222200000000  0.4257350000000 1.0
C      1  0.5218120000000  0.5130660000000  0.5767820000000 1.0
C      1  0.5126580000000  0.4778820000000  0.5767820000000 1.0
C      1  0.4774740000000  0.4870360000000  0.5767820000000 1.0
C      1  0.4866280000000  0.5222200000000  0.5767820000000 1.0
C      1  0.5565320000000  0.4553140000000  0.4822260000000 1.0
C      1  0.5443800000000  0.5569400000000  0.4822260000000 1.0
C      1  0.4427540000000  0.5447880000000  0.4822260000000 1.0
C      1  0.4549060000000  0.4431620000000  0.4822260000000 1.0
C      1  0.4427540000000  0.4553140000000  0.5202920000000 1.0
C      1  0.4549060000000  0.5569400000000  0.5202920000000 1.0
C      1  0.5565320000000  0.5447880000000  0.5202920000000 1.0
C      1  0.5443800000000  0.4431620000000  0.5202920000000 1.0
C      1  0.4789500000000  0.5506970000000  0.5026320000000 1.0
C      1  0.4489970000000  0.4793580000000  0.5026320000000 1.0
C      1  0.5203360000000  0.4494050000000  0.5026320000000 1.0
C      1  0.5502890000000  0.5207440000000  0.5026320000000 1.0
C      1  0.5203360000000  0.5506970000000  0.4998860000000 1.0
C      1  0.5502890000000  0.4793580000000  0.4998860000000 1.0
C      1  0.4789500000000  0.4494050000000  0.4998860000000 1.0
C      1  0.4489970000000  0.5207440000000  0.4998860000000 1.0
C      1  0.4996430000000  0.4199060000000  0.5012590000000 1.0
C      1  0.5797880000000  0.5000510000000  0.5012590000000 1.0
C      1  0.4194980000000  0.5000510000000  0.5012590000000 1.0
C      1  0.4996430000000  0.5801960000000  0.5012590000000 1.0
C      1  0.4996430000000  0.5000510000000  0.5155940000000 1.0
C      1  0.4996430000000  0.5000510000000  0.4869230000000 1.0
END
