TITL C-862502-1143-798 -0.00502757494901294 125000 -817.224647864474 0 0 139 (C1) n - 1
REM
REM in /home/nfs/bkarasulu/CARBON/AIRSS/Generating-Clusters/TERSOFF/Higher-Symm/FIRE-HFTN
REM
REM
REM
REM
REM
REM ./C.cell (b20cbc046b6831c77cfcea5457e17084)
REM AIRSS Version 0.9.1 bugfix July 2018 build 013d7b7c2542+ Fri, 06 Jul 2018 19:26:36 +0100
REM compiler GCC version 9.2.1 20190827 (Red Hat 9.2.1-1)
REM options -cpp -mtune=generic -march=x86-64 -g -O0 -fpre-include=/usr/include/finclude/math-vector-fortran.h
REM seed 1859165540 -1155484964 -1739221724 545704735 80074845 -142837986 -147792825 -137583736 169871943 1261862719 157083816 33850145 -1711572779 -1172748866 -395091378 -1376493238 1861409775 -982333929 -401089055 -1427952411 -1878705330 -439855787 -1910154139 -516670846 -1873727838 704258134 1195776039 268221057 -161064617 -930028375 -664269641 -1596196490 1303845809
REM
CELL 1.54180   50.00000   50.00000   50.00000   90.00000   90.00000   90.00000
LATT -1
SFAC C  
C      1  0.5696490000000  0.4236240000000  0.4854390000000 1.0
C      1  0.4444590000000  0.5433740000000  0.4496720000000 1.0
C      1  0.4280840000000  0.4699840000000  0.5855310000000 1.0
C      1  0.4255880000000  0.4845040000000  0.5060610000000 1.0
C      1  0.4921170000000  0.4985090000000  0.4335120000000 1.0
C      1  0.4845840000000  0.5505450000000  0.4160970000000 1.0
C      1  0.4832030000000  0.4426070000000  0.5384330000000 1.0
C      1  0.5779530000000  0.5262500000000  0.5716640000000 1.0
C      1  0.4420620000000  0.4684770000000  0.5249230000000 1.0
C      1  0.5301790000000  0.4628230000000  0.4437250000000 1.0
C      1  0.4897930000000  0.4275590000000  0.5131230000000 1.0
C      1  0.4551560000000  0.5899610000000  0.4807110000000 1.0
C      1  0.4442820000000  0.4802290000000  0.4175710000000 1.0
C      1  0.4293370000000  0.4331830000000  0.4764520000000 1.0
C      1  0.4284210000000  0.5350850000000  0.5559310000000 1.0
C      1  0.4406210000000  0.5179870000000  0.5922600000000 1.0
C      1  0.5188260000000  0.5049760000000  0.4815610000000 1.0
C      1  0.4931780000000  0.4176340000000  0.4525090000000 1.0
C      1  0.4677980000000  0.5279890000000  0.4570030000000 1.0
C      1  0.5593020000000  0.5109460000000  0.5263760000000 1.0
C      1  0.4594750000000  0.5442700000000  0.5826860000000 1.0
C      1  0.5280910000000  0.5907290000000  0.5188700000000 1.0
C      1  0.5093220000000  0.5824340000000  0.5844710000000 1.0
C      1  0.4653350000000  0.4507680000000  0.4185270000000 1.0
C      1  0.5046880000000  0.4512700000000  0.4949690000000 1.0
C      1  0.5141300000000  0.5533440000000  0.5784230000000 1.0
C      1  0.5443840000000  0.4637660000000  0.5273150000000 1.0
C      1  0.5013690000000  0.5280670000000  0.4317890000000 1.0
C      1  0.5665780000000  0.5022740000000  0.5849260000000 1.0
C      1  0.5741800000000  0.5662010000000  0.5261190000000 1.0
C      1  0.4341720000000  0.5366050000000  0.4237950000000 1.0
C      1  0.4550070000000  0.4689400000000  0.5970840000000 1.0
C      1  0.5007810000000  0.5116280000000  0.5325870000000 1.0
C      1  0.4236630000000  0.5084770000000  0.4263150000000 1.0
C      1  0.5578300000000  0.4595380000000  0.4123370000000 1.0
C      1  0.5420610000000  0.4204210000000  0.5396370000000 1.0
C      1  0.5516240000000  0.4008330000000  0.4914800000000 1.0
C      1  0.5390740000000  0.5074920000000  0.5950660000000 1.0
C      1  0.5778670000000  0.4668430000000  0.4565830000000 1.0
C      1  0.5496340000000  0.4877630000000  0.5430260000000 1.0
C      1  0.5843070000000  0.5142800000000  0.4489900000000 1.0
C      1  0.4882060000000  0.5558770000000  0.5195170000000 1.0
C      1  0.5109230000000  0.4284400000000  0.4292380000000 1.0
C      1  0.5336550000000  0.4026320000000  0.5165310000000 1.0
C      1  0.4630150000000  0.4976110000000  0.6018240000000 1.0
C      1  0.4686230000000  0.4321250000000  0.5626220000000 1.0
C      1  0.4489770000000  0.5696450000000  0.5700410000000 1.0
C      1  0.4910880000000  0.5077710000000  0.5945100000000 1.0
C      1  0.4898450000000  0.5500680000000  0.4926310000000 1.0
C      1  0.4365920000000  0.4381250000000  0.5243030000000 1.0
C      1  0.4891160000000  0.5355640000000  0.5830350000000 1.0
C      1  0.4909410000000  0.5737010000000  0.4431330000000 1.0
C      1  0.4954520000000  0.5019770000000  0.4982990000000 1.0
C      1  0.5824310000000  0.4684520000000  0.4268780000000 1.0
C      1  0.4775110000000  0.5255120000000  0.4838070000000 1.0
C      1  0.5294650000000  0.5525200000000  0.5504520000000 1.0
C      1  0.5624760000000  0.5047120000000  0.4974610000000 1.0
C      1  0.5692040000000  0.5587470000000  0.4578060000000 1.0
C      1  0.4518940000000  0.5772980000000  0.5409540000000 1.0
C      1  0.4934050000000  0.4737250000000  0.5700490000000 1.0
C      1  0.4072940000000  0.4929610000000  0.5428950000000 1.0
C      1  0.4086670000000  0.4756900000000  0.4599030000000 1.0
C      1  0.4572890000000  0.5219910000000  0.5043200000000 1.0
C      1  0.5411880000000  0.4874800000000  0.4844650000000 1.0
C      1  0.4601990000000  0.4320860000000  0.5049090000000 1.0
C      1  0.5802010000000  0.4395040000000  0.5087760000000 1.0
C      1  0.4547820000000  0.5467180000000  0.4064540000000 1.0
C      1  0.5114930000000  0.4772650000000  0.4234310000000 1.0
C      1  0.4856840000000  0.4854140000000  0.5455150000000 1.0
C      1  0.4071750000000  0.4694710000000  0.4893460000000 1.0
C      1  0.4124290000000  0.5453100000000  0.5335180000000 1.0
C      1  0.5055710000000  0.3971310000000  0.4730840000000 1.0
C      1  0.5966330000000  0.4650760000000  0.5039200000000 1.0
C      1  0.5020100000000  0.5980580000000  0.5356200000000 1.0
C      1  0.5942230000000  0.4794450000000  0.4776540000000 1.0
C      1  0.4358440000000  0.4196480000000  0.4503490000000 1.0
C      1  0.4710440000000  0.4956900000000  0.4118820000000 1.0
C      1  0.3993680000000  0.4636250000000  0.5313650000000 1.0
C      1  0.5225080000000  0.4309480000000  0.5614470000000 1.0
C      1  0.5236620000000  0.5695820000000  0.4390200000000 1.0
C      1  0.4716860000000  0.4691010000000  0.5267350000000 1.0
C      1  0.4583190000000  0.4459740000000  0.4784920000000 1.0
C      1  0.5062500000000  0.6033330000000  0.5642050000000 1.0
C      1  0.4309090000000  0.5666700000000  0.5210150000000 1.0
C      1  0.4507250000000  0.5175250000000  0.5515420000000 1.0
C      1  0.4769300000000  0.5098890000000  0.3869700000000 1.0
C      1  0.5344540000000  0.3903330000000  0.4698540000000 1.0
C      1  0.4792500000000  0.5799390000000  0.5298240000000 1.0
C      1  0.5996400000000  0.4863310000000  0.5259140000000 1.0
C      1  0.5690670000000  0.5364690000000  0.4368130000000 1.0
C      1  0.4196490000000  0.4958600000000  0.5728470000000 1.0
C      1  0.5464640000000  0.5089350000000  0.3985080000000 1.0
C      1  0.5465320000000  0.5748680000000  0.5382780000000 1.0
C      1  0.5495150000000  0.4769010000000  0.4593360000000 1.0
C      1  0.4857080000000  0.4742500000000  0.5015590000000 1.0
C      1  0.4013440000000  0.5177130000000  0.5266860000000 1.0
C      1  0.5517940000000  0.5833710000000  0.4669610000000 1.0
C      1  0.4869760000000  0.4406060000000  0.4713180000000 1.0
C      1  0.5286440000000  0.4541550000000  0.5818500000000 1.0
C      1  0.5230370000000  0.5344270000000  0.5288720000000 1.0
C      1  0.5680590000000  0.4372910000000  0.4587950000000 1.0
C      1  0.5352680000000  0.5432840000000  0.5020590000000 1.0
C      1  0.5426780000000  0.4347350000000  0.4337310000000 1.0
C      1  0.5485870000000  0.5326410000000  0.4160440000000 1.0
C      1  0.5364320000000  0.5394490000000  0.5944590000000 1.0
C      1  0.4364200000000  0.4735530000000  0.4472640000000 1.0
C      1  0.5271880000000  0.5822180000000  0.4857270000000 1.0
C      1  0.5989110000000  0.5426100000000  0.5281900000000 1.0
C      1  0.4579730000000  0.4723540000000  0.4651770000000 1.0
C      1  0.4754750000000  0.4540000000000  0.5825220000000 1.0
C      1  0.5611300000000  0.4411180000000  0.5315140000000 1.0
C      1  0.5629030000000  0.5520430000000  0.5027900000000 1.0
C      1  0.4154510000000  0.5234340000000  0.4771180000000 1.0
C      1  0.5244980000000  0.4979140000000  0.5554970000000 1.0
C      1  0.4315790000000  0.5110990000000  0.4983140000000 1.0
C      1  0.4411700000000  0.4271290000000  0.5518040000000 1.0
C      1  0.5640420000000  0.5478720000000  0.5865720000000 1.0
C      1  0.4258570000000  0.5502740000000  0.4707990000000 1.0
C      1  0.5051500000000  0.4034250000000  0.5050750000000 1.0
C      1  0.4088250000000  0.4411280000000  0.5046390000000 1.0
C      1  0.4352510000000  0.5700750000000  0.4908620000000 1.0
C      1  0.5779590000000  0.5273960000000  0.5425500000000 1.0
C      1  0.5025340000000  0.5685310000000  0.4752360000000 1.0
C      1  0.5896220000000  0.5125630000000  0.4809210000000 1.0
C      1  0.5378090000000  0.4820740000000  0.4071880000000 1.0
C      1  0.6030320000000  0.5145660000000  0.5114090000000 1.0
C      1  0.4822120000000  0.4887230000000  0.4607590000000 1.0
C      1  0.5316680000000  0.4656370000000  0.5015140000000 1.0
C      1  0.5810850000000  0.4838070000000  0.5498090000000 1.0
C      1  0.4615460000000  0.4253330000000  0.4371000000000 1.0
C      1  0.4911200000000  0.5354730000000  0.3886850000000 1.0
C      1  0.5161430000000  0.4877820000000  0.5852350000000 1.0
C      1  0.5797780000000  0.5444580000000  0.4815030000000 1.0
C      1  0.5253080000000  0.5315660000000  0.4765910000000 1.0
C      1  0.5229920000000  0.5404410000000  0.4484110000000 1.0
C      1  0.4962110000000  0.4517750000000  0.4158970000000 1.0
C      1  0.4083110000000  0.5049290000000  0.4530530000000 1.0
C      1  0.4684180000000  0.5204350000000  0.5301980000000 1.0
C      1  0.4662650000000  0.5904320000000  0.4528950000000 1.0
END
