TITL C-862133-5440-267 -2.46157119919323e-07 125000 -135.468192565876 0 0 28 (C7v) n - 1
REM
REM in /home/nfs/bkarasulu/CARBON/AIRSS/Generating-Clusters/TERSOFF/Higher-Symm/FIRE-HFTN
REM
REM
REM
REM
REM
REM ./C.cell (b20cbc046b6831c77cfcea5457e17084)
REM AIRSS Version 0.9.1 bugfix July 2018 build 013d7b7c2542+ Fri, 06 Jul 2018 19:26:36 +0100
REM compiler GCC version 9.2.1 20190827 (Red Hat 9.2.1-1)
REM options -cpp -mtune=generic -march=x86-64 -g -O0 -fpre-include=/usr/include/finclude/math-vector-fortran.h
REM seed 1457236784 -1337213242 -1040521125 1580317024 -1847888952 874908169 -264445510 -619335647 1233994426 2036363127 -1818904694 -1334231897 -838768141 1368854158 -2069854252 -864294411 354861642 1757678207 1310488316 -1123425189 -568635203 -572805611 -1408457331 -1199636250 1973206045 192293140 -1072354750 -1435519258 -1372083932 626208571 -1383032568 -1808602416 1508670058
REM
CELL 1.54180   50.00000   50.00000   50.00000   90.00000   90.00000   90.00000
LATT -1
SFAC C  
C      1  0.5157780000000  0.5317760000000  0.4504380000000 1.0
C      1  0.5157780000000  0.4810630000000  0.4442550000000 1.0
C      1  0.5157780000000  0.4446100000000  0.4800490000000 1.0
C      1  0.5157780000000  0.4498670000000  0.5308670000000 1.0
C      1  0.5157780000000  0.4928750000000  0.5584410000000 1.0
C      1  0.5157780000000  0.5412480000000  0.5420080000000 1.0
C      1  0.5157780000000  0.5585610000000  0.4939420000000 1.0
C      1  0.4662200000000  0.4775160000000  0.5350690000000 1.0
C      1  0.4662200000000  0.5134000000000  0.5394440000000 1.0
C      1  0.4662200000000  0.5391930000000  0.5141170000000 1.0
C      1  0.4662200000000  0.5354730000000  0.4781590000000 1.0
C      1  0.4662200000000  0.5050410000000  0.4586480000000 1.0
C      1  0.4662200000000  0.4708130000000  0.4702760000000 1.0
C      1  0.4662200000000  0.4585630000000  0.5042860000000 1.0
C      1  0.4868410000000  0.4807460000000  0.4433220000000 1.0
C      1  0.4868410000000  0.4436830000000  0.4797160000000 1.0
C      1  0.4868410000000  0.4490280000000  0.5313830000000 1.0
C      1  0.4868410000000  0.4927560000000  0.5594190000000 1.0
C      1  0.4868410000000  0.5419390000000  0.5427110000000 1.0
C      1  0.4868410000000  0.5595410000000  0.4938410000000 1.0
C      1  0.4868410000000  0.5323080000000  0.4496090000000 1.0
C      1  0.5311600000000  0.4890940000000  0.4678980000000 1.0
C      1  0.5311600000000  0.4681020000000  0.4885110000000 1.0
C      1  0.5311600000000  0.4711290000000  0.5177760000000 1.0
C      1  0.5311600000000  0.4958970000000  0.5336550000000 1.0
C      1  0.5311600000000  0.5237540000000  0.5241920000000 1.0
C      1  0.5311600000000  0.5337240000000  0.4965110000000 1.0
C      1  0.5311600000000  0.5182990000000  0.4714580000000 1.0
END
