TITL C-862131-2149-1253 -0.00581781152753741 125000 -161.948996807724 0 0 29 (C1) n - 1
REM
REM in /home/nfs/bkarasulu/CARBON/AIRSS/Generating-Clusters/TERSOFF/Higher-Symm/FIRE-HFTN
REM
REM
REM
REM
REM
REM ./C.cell (b20cbc046b6831c77cfcea5457e17084)
REM AIRSS Version 0.9.1 bugfix July 2018 build 013d7b7c2542+ Fri, 06 Jul 2018 19:26:36 +0100
REM compiler GCC version 9.2.1 20190827 (Red Hat 9.2.1-1)
REM options -cpp -mtune=generic -march=x86-64 -g -O0 -fpre-include=/usr/include/finclude/math-vector-fortran.h
REM seed -162409380 -1873027180 -1953831639 -1618501364 1268886983 -1820470595 6893591 1191730887 610939977 1388734676 790920331 -1247748962 -1582201762 203406559 -1345091123 762460826 807480029 -170620018 1888940245 725740630 -1140699440 1689629744 1769651829 -425840809 -100633565 -286050887 872120887 1053556403 -42554151 -289135541 -354872276 231282500 2034478375
REM
CELL 1.54180   50.00000   50.00000   50.00000   90.00000   90.00000   90.00000
LATT -1
SFAC C  
C      1  0.5222840000000  0.4509160000000  0.5006650000000 1.0
C      1  0.5195070000000  0.4759690000000  0.4574620000000 1.0
C      1  0.4768740000000  0.4502980000000  0.4739700000000 1.0
C      1  0.4746380000000  0.4475680000000  0.5249860000000 1.0
C      1  0.5166140000000  0.4714230000000  0.5466850000000 1.0
C      1  0.5190320000000  0.5512560000000  0.5041790000000 1.0
C      1  0.5140040000000  0.5226510000000  0.5474210000000 1.0
C      1  0.4722460000000  0.5400170000000  0.5218490000000 1.0
C      1  0.4654060000000  0.5435100000000  0.4697080000000 1.0
C      1  0.5144670000000  0.5272420000000  0.4582750000000 1.0
C      1  0.4863460000000  0.4691750000000  0.5443830000000 1.0
C      1  0.5328490000000  0.4564250000000  0.5272180000000 1.0
C      1  0.5354660000000  0.4588790000000  0.4757630000000 1.0
C      1  0.4895270000000  0.4725130000000  0.4566780000000 1.0
C      1  0.4532600000000  0.4465200000000  0.4982150000000 1.0
C      1  0.4840440000000  0.5240250000000  0.4574300000000 1.0
C      1  0.5276150000000  0.5470330000000  0.4759990000000 1.0
C      1  0.5294570000000  0.5419650000000  0.5307860000000 1.0
C      1  0.4839840000000  0.5211460000000  0.5435400000000 1.0
C      1  0.4544730000000  0.5414350000000  0.4970450000000 1.0
C      1  0.4743850000000  0.4969620000000  0.4509630000000 1.0
C      1  0.4718310000000  0.4946400000000  0.5482130000000 1.0
C      1  0.5264010000000  0.4975090000000  0.5557070000000 1.0
C      1  0.5291090000000  0.5028740000000  0.4510050000000 1.0
C      1  0.5625050000000  0.4505740000000  0.4693430000000 1.0
C      1  0.4858420000000  0.4847480000000  0.5053820000000 1.0
C      1  0.4979590000000  0.5075670000000  0.4934680000000 1.0
C      1  0.4940060000000  0.4560510000000  0.5001540000000 1.0
C      1  0.4953390000000  0.5343200000000  0.5036080000000 1.0
END
