TITL C-862131-2149-991 0.000646633096720063 125000 -533.192814609628 0 0 97 (C2) n - 1
REM
REM in /home/nfs/bkarasulu/CARBON/AIRSS/Generating-Clusters/TERSOFF/Higher-Symm/FIRE-HFTN
REM
REM
REM
REM
REM
REM ./C.cell (b20cbc046b6831c77cfcea5457e17084)
REM AIRSS Version 0.9.1 bugfix July 2018 build 013d7b7c2542+ Fri, 06 Jul 2018 19:26:36 +0100
REM compiler GCC version 9.2.1 20190827 (Red Hat 9.2.1-1)
REM options -cpp -mtune=generic -march=x86-64 -g -O0 -fpre-include=/usr/include/finclude/math-vector-fortran.h
REM seed -2100715668 -767304547 -1134288667 -445975161 1877042638 -1543114240 -1240423575 -8038760 642557661 -121058809 1427655135 -1092082293 -219176869 2095618693 769664094 -953425797 1723689909 -893337114 -1697631235 814567966 647910788 1638947482 1337299558 -1487540926 -1070836698 -331036834 1883781372 -1581054385 1096712292 1461114034 -2146186571 -123966875 205837383
REM
CELL 1.54180   50.00000   50.00000   50.00000   90.00000   90.00000   90.00000
LATT -1
SFAC C  
C      1  0.5115430000000  0.4097820000000  0.5500970000000 1.0
C      1  0.5115430000000  0.5902580000000  0.4492410000000 1.0
C      1  0.5052270000000  0.5867910000000  0.5000500000000 1.0
C      1  0.5052270000000  0.4132480000000  0.4992880000000 1.0
C      1  0.4965350000000  0.4961990000000  0.4265690000000 1.0
C      1  0.4965360000000  0.5038400000000  0.5727690000000 1.0
C      1  0.4896720000000  0.5386850000000  0.4201330000000 1.0
C      1  0.4896720000000  0.4613550000000  0.5792050000000 1.0
C      1  0.5257160000000  0.4731730000000  0.5153230000000 1.0
C      1  0.5257160000000  0.5268670000000  0.4840150000000 1.0
C      1  0.5658110000000  0.5061150000000  0.4453740000000 1.0
C      1  0.5658110000000  0.4939250000000  0.5539640000000 1.0
C      1  0.5320660000000  0.4877520000000  0.4701030000000 1.0
C      1  0.5320660000000  0.5122880000000  0.5292350000000 1.0
C      1  0.4384530000000  0.5438870000000  0.4358890000000 1.0
C      1  0.4384530000000  0.4561530000000  0.5634490000000 1.0
C      1  0.4823750000000  0.5359780000000  0.4616700000000 1.0
C      1  0.4823750000000  0.4640610000000  0.5376680000000 1.0
C      1  0.4637500000000  0.4235860000000  0.5301180000000 1.0
C      1  0.4637500000000  0.5764530000000  0.4692200000000 1.0
C      1  0.5746630000000  0.5396150000000  0.4887920000000 1.0
C      1  0.5746630000000  0.4604240000000  0.5105460000000 1.0
C      1  0.5054050000000  0.4938160000000  0.4555910000000 1.0
C      1  0.5054050000000  0.5062230000000  0.5437470000000 1.0
C      1  0.4809840000000  0.4785870000000  0.4706070000000 1.0
C      1  0.4809850000000  0.5214520000000  0.5287310000000 1.0
C      1  0.4585300000000  0.4737050000000  0.5752950000000 1.0
C      1  0.4585300000000  0.5263340000000  0.4240440000000 1.0
C      1  0.4387280000000  0.5529440000000  0.5113510000000 1.0
C      1  0.4387280000000  0.4470950000000  0.4879880000000 1.0
C      1  0.4831980000000  0.4306080000000  0.4460550000000 1.0
C      1  0.4831980000000  0.5694320000000  0.5532830000000 1.0
C      1  0.5648620000000  0.5345960000000  0.4552660000000 1.0
C      1  0.5648620000000  0.4654430000000  0.5440720000000 1.0
C      1  0.4577320000000  0.5167470000000  0.5006690000000 1.0
C      1  0.4577320000000  0.4832920000000  0.4986690000000 1.0
C      1  0.4812700000000  0.5841950000000  0.5215310000000 1.0
C      1  0.4812700000000  0.4158440000000  0.4778070000000 1.0
C      1  0.4652580000000  0.5658990000000  0.5022690000000 1.0
C      1  0.4652580000000  0.4341400000000  0.4970690000000 1.0
C      1  0.5731090000000  0.4640990000000  0.4758590000000 1.0
C      1  0.5731090000000  0.5359400000000  0.5234790000000 1.0
C      1  0.4863590000000  0.4548340000000  0.5097340000000 1.0
C      1  0.4863590000000  0.5452050000000  0.4896040000000 1.0
C      1  0.5314650000000  0.4275860000000  0.4940020000000 1.0
C      1  0.5314650000000  0.5724530000000  0.5053360000000 1.0
C      1  0.5016210000000  0.4496360000000  0.4636460000000 1.0
C      1  0.5016210000000  0.5504030000000  0.5356920000000 1.0
C      1  0.5383480000000  0.4981900000000  0.4299190000000 1.0
C      1  0.5383480000000  0.5018490000000  0.5694190000000 1.0
C      1  0.4995820000000  0.4822490000000  0.4964690000000 1.0
C      1  0.4995820000000  0.5177910000000  0.5028690000000 1.0
C      1  0.4639480000000  0.5102650000000  0.4673210000000 1.0
C      1  0.4639490000000  0.4897750000000  0.5320170000000 1.0
C      1  0.5427210000000  0.5506770000000  0.4872210000000 1.0
C      1  0.5427210000000  0.4493620000000  0.5121170000000 1.0
C      1  0.4537070000000  0.5023260000000  0.5707550000000 1.0
C      1  0.4537070000000  0.4977130000000  0.4285840000000 1.0
C      1  0.4200030000000  0.4930400000000  0.5141270000000 1.0
C      1  0.4200030000000  0.5069990000000  0.4852120000000 1.0
C      1  0.5263800000000  0.4666810000000  0.4261010000000 1.0
C      1  0.5263810000000  0.5333580000000  0.5732370000000 1.0
C      1  0.5462460000000  0.4635090000000  0.4649170000000 1.0
C      1  0.5462460000000  0.5365300000000  0.5344210000000 1.0
C      1  0.4364860000000  0.4595750000000  0.4615350000000 1.0
C      1  0.4364860000000  0.5404640000000  0.5378030000000 1.0
C      1  0.4403680000000  0.5539840000000  0.4630360000000 1.0
C      1  0.4403680000000  0.4460550000000  0.5363020000000 1.0
C      1  0.4317560000000  0.5367290000000  0.4866990000000 1.0
C      1  0.4317560000000  0.4633110000000  0.5126390000000 1.0
C      1  0.4750090000000  0.4781050000000  0.4150510000000 1.0
C      1  0.4750090000000  0.5219350000000  0.5842870000000 1.0
C      1  0.5825710000000  0.5095330000000  0.5345320000000 1.0
C      1  0.5825700000000  0.4905060000000  0.4648050000000 1.0
C      1  0.5894230000000  0.5078720000000  0.4872310000000 1.0
C      1  0.5894230000000  0.4921680000000  0.5121060000000 1.0
C      1  0.4348780000000  0.4907180000000  0.4584640000000 1.0
C      1  0.4348780000000  0.5093210000000  0.5408740000000 1.0
C      1  0.4630760000000  0.5424940000000  0.5499880000000 1.0
C      1  0.4630750000000  0.4575450000000  0.4493500000000 1.0
C      1  0.5211310000000  0.5298950000000  0.4308250000000 1.0
C      1  0.5211310000000  0.4701450000000  0.5685130000000 1.0
C      1  0.5089920000000  0.4767920000000  0.5409970000000 1.0
C      1  0.5089910000000  0.5232480000000  0.4583410000000 1.0
C      1  0.4942190000000  0.4129840000000  0.5268140000000 1.0
C      1  0.4942190000000  0.5870550000000  0.4725240000000 1.0
C      1  0.4768300000000  0.4403730000000  0.5570190000000 1.0
C      1  0.4768300000000  0.5596660000000  0.4423190000000 1.0
C      1  0.5377970000000  0.4221190000000  0.5531510000000 1.0
C      1  0.5377960000000  0.5779210000000  0.4461870000000 1.0
C      1  0.5424650000000  0.4506570000000  0.5569570000000 1.0
C      1  0.5424650000000  0.5493830000000  0.4423810000000 1.0
C      1  0.4958120000000  0.5455930000000  0.5769340000000 1.0
C      1  0.4958120000000  0.4544460000000  0.4224050000000 1.0
C      1  0.5287880000000  0.5580490000000  0.5301950000000 1.0
C      1  0.5287880000000  0.4419900000000  0.4691430000000 1.0
C      1  0.5374250000000  0.5000200000000  0.4996690000000 1.0
END
