TITL C-862502-1143-439 -2.80856796727829e-05 125000 -350.310753489052 0 0 63 (C1) n - 1
REM
REM in /home/nfs/bkarasulu/CARBON/AIRSS/Generating-Clusters/TERSOFF/Higher-Symm/FIRE-HFTN
REM
REM
REM
REM
REM
REM ./C.cell (b20cbc046b6831c77cfcea5457e17084)
REM AIRSS Version 0.9.1 bugfix July 2018 build 013d7b7c2542+ Fri, 06 Jul 2018 19:26:36 +0100
REM compiler GCC version 9.2.1 20190827 (Red Hat 9.2.1-1)
REM options -cpp -mtune=generic -march=x86-64 -g -O0 -fpre-include=/usr/include/finclude/math-vector-fortran.h
REM seed 1089409389 648132444 -1760564146 -1050382981 384926288 1909557414 -1177518411 1639565499 376853569 -2130688337 -60211355 1450619912 638733713 1352388788 1723204262 -1783879425 362550901 -277927742 58971589 -35040598 -1997239190 762851889 1562893638 -485950842 -2129099742 -1706944014 2057022913 1328685022 1873844535 432591688 230165534 -845210320 -787806568
REM
CELL 1.54180   50.00000   50.00000   50.00000   90.00000   90.00000   90.00000
LATT -1
SFAC C  
C      1  0.5084330000000  0.5290750000000  0.4393050000000 1.0
C      1  0.5205370000000  0.4783800000000  0.4412430000000 1.0
C      1  0.4708020000000  0.4929640000000  0.4419290000000 1.0
C      1  0.5207630000000  0.4391290000000  0.4730480000000 1.0
C      1  0.4360400000000  0.5132900000000  0.4714380000000 1.0
C      1  0.5423120000000  0.5484880000000  0.4713740000000 1.0
C      1  0.5241860000000  0.5124750000000  0.5252010000000 1.0
C      1  0.5021110000000  0.4931080000000  0.5278180000000 1.0
C      1  0.4759470000000  0.5066140000000  0.5246860000000 1.0
C      1  0.5376400000000  0.4744790000000  0.4919740000000 1.0
C      1  0.4542500000000  0.4778550000000  0.4916860000000 1.0
C      1  0.5029510000000  0.5444590000000  0.4925150000000 1.0
C      1  0.4368330000000  0.5325930000000  0.5155410000000 1.0
C      1  0.5599800000000  0.5391230000000  0.5152160000000 1.0
C      1  0.5033710000000  0.4295630000000  0.5176720000000 1.0
C      1  0.5660120000000  0.4701620000000  0.4789760000000 1.0
C      1  0.4403630000000  0.4557800000000  0.4749480000000 1.0
C      1  0.4939660000000  0.5712180000000  0.4795010000000 1.0
C      1  0.5810740000000  0.4950080000000  0.5092830000000 1.0
C      1  0.4549050000000  0.4337010000000  0.5108010000000 1.0
C      1  0.4671010000000  0.5704090000000  0.5117700000000 1.0
C      1  0.5351480000000  0.5040760000000  0.4820580000000 1.0
C      1  0.4840850000000  0.4669560000000  0.4874710000000 1.0
C      1  0.4783310000000  0.5270830000000  0.4829290000000 1.0
C      1  0.5423790000000  0.5586460000000  0.5013130000000 1.0
C      1  0.5288350000000  0.4349670000000  0.5028620000000 1.0
C      1  0.4274660000000  0.5088270000000  0.5008860000000 1.0
C      1  0.5200020000000  0.5526210000000  0.4524510000000 1.0
C      1  0.5354600000000  0.4563280000000  0.4538900000000 1.0
C      1  0.4439760000000  0.4915080000000  0.4533480000000 1.0
C      1  0.4878620000000  0.4425280000000  0.4672800000000 1.0
C      1  0.4569160000000  0.5407430000000  0.4640010000000 1.0
C      1  0.5567800000000  0.5171770000000  0.4630020000000 1.0
C      1  0.5451150000000  0.4596210000000  0.5216130000000 1.0
C      1  0.4356690000000  0.4814680000000  0.5211900000000 1.0
C      1  0.5153060000000  0.5582200000000  0.5230880000000 1.0
C      1  0.4740250000000  0.4885070000000  0.5624870000000 1.0
C      1  0.4999970000000  0.5136810000000  0.5641920000000 1.0
C      1  0.5265850000000  0.4893700000000  0.5616890000000 1.0
C      1  0.5005870000000  0.4479850000000  0.5418490000000 1.0
C      1  0.4534390000000  0.5244060000000  0.5405000000000 1.0
C      1  0.5473230000000  0.5275590000000  0.5422320000000 1.0
C      1  0.4485270000000  0.5528720000000  0.4973130000000 1.0
C      1  0.5716840000000  0.5193210000000  0.4960250000000 1.0
C      1  0.4804650000000  0.4267400000000  0.4988270000000 1.0
C      1  0.5755960000000  0.4919380000000  0.4626860000000 1.0
C      1  0.4576310000000  0.4373760000000  0.4610350000000 1.0
C      1  0.4701180000000  0.5693720000000  0.4633340000000 1.0
C      1  0.5206230000000  0.5419300000000  0.5546330000000 1.0
C      1  0.5251550000000  0.4629220000000  0.5456780000000 1.0
C      1  0.4451670000000  0.4969490000000  0.5514500000000 1.0
C      1  0.4787350000000  0.5224120000000  0.4412890000000 1.0
C      1  0.5300020000000  0.5071530000000  0.4405840000000 1.0
C      1  0.4916960000000  0.4715680000000  0.4460730000000 1.0
C      1  0.5537370000000  0.4996510000000  0.5521410000000 1.0
C      1  0.4752880000000  0.4612880000000  0.5475470000000 1.0
C      1  0.4777340000000  0.5390280000000  0.5513000000000 1.0
C      1  0.4691610000000  0.5047340000000  0.4981430000000 1.0
C      1  0.5225540000000  0.5217310000000  0.4993110000000 1.0
C      1  0.5067910000000  0.4745850000000  0.5045590000000 1.0
C      1  0.5657100000000  0.4818060000000  0.5304720000000 1.0
C      1  0.4524560000000  0.4558780000000  0.5293750000000 1.0
C      1  0.4863060000000  0.5605960000000  0.5319680000000 1.0
END
