TITL C-862502-1143-219 -0.000473001735653009 125000 -726.234571789056 0 0 131 (S4) n - 1
REM
REM in /home/nfs/bkarasulu/CARBON/AIRSS/Generating-Clusters/TERSOFF/Higher-Symm/FIRE-HFTN
REM
REM
REM
REM
REM
REM ./C.cell (b20cbc046b6831c77cfcea5457e17084)
REM AIRSS Version 0.9.1 bugfix July 2018 build 013d7b7c2542+ Fri, 06 Jul 2018 19:26:36 +0100
REM compiler GCC version 9.2.1 20190827 (Red Hat 9.2.1-1)
REM options -cpp -mtune=generic -march=x86-64 -g -O0 -fpre-include=/usr/include/finclude/math-vector-fortran.h
REM seed -1589859830 1297117532 1192024398 1088774763 -1095836750 -53803595 -1300224924 -1353266584 1858024060 535104490 1228556740 692514960 -2085649666 1787430440 446579387 1057795116 297951419 1365049341 -1969258637 -818406226 -1353468362 117239035 -523492680 -1201318374 1820486491 1936571924 906256115 793586310 74563751 1709048184 1878037759 -286204583 1027334890
REM
CELL 1.54180   50.00000   50.00000   50.00000   90.00000   90.00000   90.00000
LATT -1
SFAC C  
C      1  0.4302630000000  0.4201030000000  0.4835430000000 1.0
C      1  0.5699460000000  0.5167380000000  0.4202170000000 1.0
C      1  0.4302610000000  0.5800630000000  0.5168510000000 1.0
C      1  0.5699450000000  0.4834300000000  0.5801780000000 1.0
C      1  0.4782150000000  0.5424400000000  0.5719860000000 1.0
C      1  0.5219920000000  0.4282950000000  0.5425540000000 1.0
C      1  0.4782160000000  0.4577270000000  0.4284080000000 1.0
C      1  0.5219920000000  0.5718720000000  0.4578410000000 1.0
C      1  0.4409400000000  0.4215410000000  0.5175770000000 1.0
C      1  0.5592690000000  0.4827030000000  0.4216550000000 1.0
C      1  0.4409390000000  0.5786250000000  0.4828160000000 1.0
C      1  0.5592680000000  0.5174640000000  0.5787400000000 1.0
C      1  0.5712020000000  0.5536690000000  0.4740570000000 1.0
C      1  0.4290050000000  0.5262230000000  0.5537820000000 1.0
C      1  0.5712030000000  0.4464990000000  0.5263380000000 1.0
C      1  0.4290060000000  0.4739430000000  0.4466120000000 1.0
C      1  0.5714660000000  0.5751150000000  0.4954740000000 1.0
C      1  0.4287410000000  0.5048070000000  0.5752270000000 1.0
C      1  0.5714670000000  0.4250530000000  0.5049210000000 1.0
C      1  0.4287420000000  0.4953590000000  0.4251660000000 1.0
C      1  0.4536760000000  0.5450660000000  0.5526220000000 1.0
C      1  0.5465310000000  0.4476590000000  0.5451800000000 1.0
C      1  0.4536770000000  0.4551000000000  0.4477720000000 1.0
C      1  0.5465310000000  0.5525080000000  0.4552150000000 1.0
C      1  0.4593770000000  0.5241040000000  0.4642290000000 1.0
C      1  0.5408310000000  0.5360520000000  0.5242190000000 1.0
C      1  0.4593760000000  0.4760620000000  0.5361650000000 1.0
C      1  0.5408320000000  0.4641150000000  0.4761760000000 1.0
C      1  0.4518040000000  0.5719830000000  0.5372570000000 1.0
C      1  0.5484030000000  0.4630240000000  0.5720980000000 1.0
C      1  0.4518050000000  0.4281830000000  0.4631370000000 1.0
C      1  0.5484040000000  0.5371440000000  0.4282970000000 1.0
C      1  0.4000540000000  0.5620850000000  0.5253220000000 1.0
C      1  0.6001530000000  0.4749590000000  0.5622000000000 1.0
C      1  0.4000560000000  0.4380800000000  0.4750710000000 1.0
C      1  0.6001530000000  0.5252090000000  0.4381950000000 1.0
C      1  0.4980900000000  0.5125120000000  0.4071910000000 1.0
C      1  0.5021170000000  0.5930890000000  0.5126260000000 1.0
C      1  0.4980890000000  0.4876550000000  0.5932030000000 1.0
C      1  0.5021190000000  0.4070770000000  0.4877680000000 1.0
C      1  0.5936280000000  0.5526110000000  0.4524810000000 1.0
C      1  0.4065790000000  0.5478000000000  0.5527240000000 1.0
C      1  0.5936280000000  0.4475560000000  0.5479150000000 1.0
C      1  0.4065800000000  0.4523660000000  0.4476690000000 1.0
C      1  0.5083120000000  0.5125890000000  0.5563570000000 1.0
C      1  0.4918960000000  0.4439230000000  0.5127030000000 1.0
C      1  0.5083120000000  0.4875780000000  0.4440370000000 1.0
C      1  0.4918950000000  0.5562430000000  0.4876920000000 1.0
C      1  0.5018810000000  0.4300660000000  0.4664900000000 1.0
C      1  0.4983270000000  0.5337900000000  0.4301800000000 1.0
C      1  0.5018800000000  0.5701010000000  0.5339040000000 1.0
C      1  0.4983270000000  0.4663760000000  0.5702140000000 1.0
C      1  0.5004710000000  0.4149190000000  0.5168380000000 1.0
C      1  0.4997380000000  0.4834420000000  0.4150330000000 1.0
C      1  0.5004700000000  0.5852470000000  0.4835560000000 1.0
C      1  0.4997360000000  0.5167240000000  0.5853610000000 1.0
C      1  0.5026860000000  0.5642070000000  0.4356130000000 1.0
C      1  0.4975210000000  0.5646670000000  0.5643210000000 1.0
C      1  0.5026860000000  0.4359600000000  0.5647810000000 1.0
C      1  0.4975230000000  0.4355000000000  0.4360730000000 1.0
C      1  0.4188870000000  0.4602900000000  0.4870320000000 1.0
C      1  0.5813210000000  0.5132480000000  0.4604050000000 1.0
C      1  0.4188860000000  0.5398750000000  0.5133610000000 1.0
C      1  0.5813210000000  0.4869200000000  0.5399900000000 1.0
C      1  0.4656660000000  0.4667570000000  0.5766070000000 1.0
C      1  0.5345430000000  0.4236730000000  0.4668720000000 1.0
C      1  0.4656660000000  0.5334090000000  0.4237870000000 1.0
C      1  0.5345410000000  0.5764940000000  0.5335230000000 1.0
C      1  0.4778680000000  0.4536580000000  0.5359040000000 1.0
C      1  0.5223400000000  0.4643760000000  0.4537720000000 1.0
C      1  0.4778680000000  0.5465080000000  0.4644900000000 1.0
C      1  0.5223390000000  0.5357910000000  0.5466220000000 1.0
C      1  0.3871830000000  0.5105870000000  0.5119830000000 1.0
C      1  0.6130250000000  0.4882970000000  0.5107020000000 1.0
C      1  0.3871830000000  0.4895780000000  0.4884100000000 1.0
C      1  0.6130250000000  0.5118710000000  0.4896940000000 1.0
C      1  0.4116050000000  0.4864510000000  0.5395710000000 1.0
C      1  0.5886030000000  0.4607100000000  0.4865660000000 1.0
C      1  0.4116060000000  0.5137150000000  0.4608230000000 1.0
C      1  0.5886020000000  0.5394580000000  0.5138300000000 1.0
C      1  0.4346860000000  0.4531370000000  0.5093390000000 1.0
C      1  0.5655220000000  0.4909410000000  0.4532520000000 1.0
C      1  0.4346860000000  0.5470280000000  0.4910540000000 1.0
C      1  0.5655210000000  0.5092260000000  0.5471430000000 1.0
C      1  0.4503580000000  0.4399640000000  0.5710320000000 1.0
C      1  0.5498510000000  0.4292490000000  0.4400780000000 1.0
C      1  0.4503580000000  0.5602020000000  0.4293620000000 1.0
C      1  0.5498490000000  0.5709190000000  0.5603170000000 1.0
C      1  0.5476060000000  0.5866020000000  0.5086790000000 1.0
C      1  0.4526010000000  0.4916020000000  0.5867150000000 1.0
C      1  0.5476070000000  0.4135650000000  0.4917160000000 1.0
C      1  0.4526020000000  0.5085640000000  0.4136790000000 1.0
C      1  0.4700900000000  0.5883700000000  0.4701790000000 1.0
C      1  0.5301170000000  0.5301010000000  0.5884840000000 1.0
C      1  0.4700910000000  0.4117970000000  0.5302150000000 1.0
C      1  0.5301180000000  0.4700660000000  0.4119110000000 1.0
C      1  0.5688830000000  0.5357190000000  0.5333070000000 1.0
C      1  0.4313240000000  0.4669740000000  0.5358320000000 1.0
C      1  0.5688840000000  0.4644480000000  0.4670880000000 1.0
C      1  0.4313240000000  0.5331920000000  0.4645610000000 1.0
C      1  0.4673410000000  0.5045390000000  0.5377070000000 1.0
C      1  0.5328670000000  0.4625740000000  0.5046530000000 1.0
C      1  0.4673410000000  0.4956270000000  0.4626870000000 1.0
C      1  0.5328670000000  0.5375930000000  0.4957410000000 1.0
C      1  0.4854270000000  0.5174930000000  0.5190070000000 1.0
C      1  0.5147800000000  0.4812730000000  0.5176070000000 1.0
C      1  0.4854280000000  0.4826740000000  0.4813870000000 1.0
C      1  0.5147800000000  0.5188940000000  0.4827880000000 1.0
C      1  0.4173230000000  0.5118200000000  0.5243220000000 1.0
C      1  0.5828850000000  0.4759590000000  0.5119350000000 1.0
C      1  0.4173230000000  0.4883450000000  0.4760720000000 1.0
C      1  0.5828850000000  0.5242090000000  0.4884600000000 1.0
C      1  0.4741980000000  0.5718190000000  0.4438370000000 1.0
C      1  0.5260090000000  0.5564440000000  0.5719330000000 1.0
C      1  0.4741990000000  0.4283470000000  0.5565570000000 1.0
C      1  0.5260100000000  0.4437240000000  0.4284620000000 1.0
C      1  0.5701180000000  0.4520080000000  0.4383410000000 1.0
C      1  0.4300900000000  0.5619400000000  0.4521210000000 1.0
C      1  0.5701170000000  0.5481590000000  0.5620540000000 1.0
C      1  0.4300900000000  0.4382260000000  0.5482720000000 1.0
C      1  0.4885200000000  0.4530240000000  0.4853030000000 1.0
C      1  0.5116880000000  0.5149770000000  0.4531380000000 1.0
C      1  0.4885200000000  0.5471420000000  0.5150910000000 1.0
C      1  0.5116880000000  0.4851890000000  0.5472560000000 1.0
C      1  0.3769370000000  0.5396840000000  0.5125890000000 1.0
C      1  0.6232700000000  0.4876920000000  0.5397990000000 1.0
C      1  0.3769380000000  0.4604810000000  0.4878040000000 1.0
C      1  0.6232710000000  0.5124760000000  0.4605970000000 1.0
C      1  0.5675120000000  0.5000840000000  0.5001980000000 1.0
C      1  0.4326960000000  0.5000830000000  0.5001970000000 1.0
C      1  0.5001040000000  0.5000830000000  0.5001970000000 1.0
END
