TITL C-862129-6180-1188 -5.43791104892994 125000 -1022.37378240226 0 0 174 (C1) n - 1
REM
REM in /home/nfs/bkarasulu/CARBON/AIRSS/Generating-Clusters/TERSOFF/Higher-Symm/FIRE-HFTN
REM
REM
REM
REM
REM
REM ./C.cell (b20cbc046b6831c77cfcea5457e17084)
REM AIRSS Version 0.9.1 bugfix July 2018 build 013d7b7c2542+ Fri, 06 Jul 2018 19:26:36 +0100
REM compiler GCC version 9.2.1 20190827 (Red Hat 9.2.1-1)
REM options -cpp -mtune=generic -march=x86-64 -g -O0 -fpre-include=/usr/include/finclude/math-vector-fortran.h
REM seed 379465408 -59696648 -1238950276 1787933089 -354133341 1834790564 2089768813 1372242254 -401610063 -839603142 -1312332056 -763617812 -1369229525 -1559291973 -99673671 595393972 584249767 -803302795 735847498 1591353689 1393570046 -1889203218 1821241438 1058037397 1729173763 1444193526 -567241069 1111056399 410306939 1476901203 -626629894 2076771212 805851532
REM
CELL 1.54180   50.00000   50.00000   50.00000   90.00000   90.00000   90.00000
LATT -1
SFAC C  
C      1  0.4089510000000  0.5744650000000  0.5038760000000 1.0
C      1  0.4094200000000  0.4884260000000  0.5514640000000 1.0
C      1  0.4683590000000  0.5956540000000  0.4641640000000 1.0
C      1  0.4892320000000  0.4514400000000  0.5779390000000 1.0
C      1  0.4641900000000  0.4536100000000  0.5016100000000 1.0
C      1  0.5278440000000  0.5596620000000  0.3981400000000 1.0
C      1  0.4977210000000  0.4758680000000  0.4729490000000 1.0
C      1  0.4844230000000  0.4992090000000  0.5826870000000 1.0
C      1  0.4586010000000  0.4929050000000  0.5984870000000 1.0
C      1  0.5671340000000  0.4663830000000  0.5008550000000 1.0
C      1  0.4729940000000  0.6053960000000  0.5557290000000 1.0
C      1  0.4799490000000  0.5178420000000  0.5581960000000 1.0
C      1  0.4202440000000  0.5686600000000  0.4757920000000 1.0
C      1  0.6158070000000  0.5039260000000  0.4417850000000 1.0
C      1  0.5859140000000  0.4773840000000  0.4144270000000 1.0
C      1  0.5327140000000  0.4334200000000  0.4861720000000 1.0
C      1  0.4896420000000  0.4108770000000  0.4278410000000 1.0
C      1  0.5641830000000  0.5419940000000  0.5922070000000 1.0
C      1  0.6170080000000  0.4857630000000  0.5101090000000 1.0
C      1  0.5844060000000  0.4422580000000  0.5105490000000 1.0
C      1  0.5011840000000  0.4586410000000  0.4143950000000 1.0
C      1  0.5545090000000  0.4549400000000  0.5469570000000 1.0
C      1  0.4663480000000  0.5453510000000  0.4639410000000 1.0
C      1  0.4397300000000  0.4100660000000  0.4514200000000 1.0
C      1  0.4383940000000  0.4146920000000  0.5209030000000 1.0
C      1  0.5131210000000  0.4018240000000  0.5286310000000 1.0
C      1  0.4957680000000  0.4089670000000  0.5777920000000 1.0
C      1  0.5003920000000  0.5358730000000  0.4318160000000 1.0
C      1  0.5379010000000  0.4187640000000  0.5102810000000 1.0
C      1  0.4063370000000  0.5472650000000  0.5387450000000 1.0
C      1  0.5105020000000  0.5656990000000  0.4995850000000 1.0
C      1  0.4058040000000  0.6153440000000  0.5364320000000 1.0
C      1  0.5344050000000  0.4311630000000  0.4421690000000 1.0
C      1  0.4655150000000  0.5649530000000  0.5472230000000 1.0
C      1  0.4438760000000  0.5406480000000  0.5840060000000 1.0
C      1  0.5642320000000  0.5592200000000  0.4358580000000 1.0
C      1  0.3959680000000  0.4631740000000  0.5543480000000 1.0
C      1  0.4204430000000  0.5268650000000  0.5245650000000 1.0
C      1  0.3615360000000  0.4841230000000  0.5220530000000 1.0
C      1  0.5125600000000  0.5626700000000  0.5493450000000 1.0
C      1  0.5377510000000  0.5031760000000  0.5568300000000 1.0
C      1  0.5395180000000  0.4670920000000  0.5842480000000 1.0
C      1  0.4824480000000  0.5081100000000  0.5294710000000 1.0
C      1  0.4453420000000  0.5283100000000  0.4184000000000 1.0
C      1  0.5182320000000  0.5527460000000  0.6043360000000 1.0
C      1  0.5185910000000  0.4844110000000  0.5152140000000 1.0
C      1  0.5201150000000  0.5387790000000  0.5053230000000 1.0
C      1  0.4490540000000  0.5704410000000  0.4694600000000 1.0
C      1  0.6049350000000  0.4896450000000  0.5609730000000 1.0
C      1  0.4805900000000  0.4280750000000  0.5969340000000 1.0
C      1  0.5022920000000  0.4992280000000  0.3929790000000 1.0
C      1  0.4600270000000  0.5547270000000  0.5069510000000 1.0
C      1  0.4840620000000  0.4048550000000  0.5496970000000 1.0
C      1  0.4162100000000  0.4779110000000  0.4820610000000 1.0
C      1  0.5594050000000  0.4294610000000  0.5307840000000 1.0
C      1  0.5911220000000  0.5533180000000  0.5429810000000 1.0
C      1  0.4960240000000  0.5057950000000  0.4379840000000 1.0
C      1  0.4181500000000  0.5693680000000  0.5509910000000 1.0
C      1  0.4695130000000  0.4463380000000  0.4463570000000 1.0
C      1  0.4891780000000  0.5547070000000  0.4496120000000 1.0
C      1  0.5036870000000  0.6093680000000  0.5546400000000 1.0
C      1  0.5263690000000  0.5961520000000  0.5705920000000 1.0
C      1  0.4884860000000  0.5835490000000  0.4454210000000 1.0
C      1  0.5370970000000  0.5328120000000  0.4791410000000 1.0
C      1  0.4323600000000  0.5230530000000  0.4744610000000 1.0
C      1  0.6096860000000  0.5204060000000  0.5033670000000 1.0
C      1  0.5814050000000  0.5688180000000  0.4962050000000 1.0
C      1  0.4189980000000  0.4478730000000  0.4790310000000 1.0
C      1  0.5663290000000  0.4576970000000  0.5741730000000 1.0
C      1  0.5944850000000  0.5551980000000  0.4401670000000 1.0
C      1  0.5722010000000  0.4774490000000  0.4411890000000 1.0
C      1  0.4528460000000  0.5539850000000  0.4073200000000 1.0
C      1  0.5607440000000  0.3965830000000  0.4811440000000 1.0
C      1  0.5384120000000  0.4079610000000  0.5507650000000 1.0
C      1  0.5481170000000  0.5576550000000  0.4619860000000 1.0
C      1  0.5152450000000  0.3711490000000  0.4773830000000 1.0
C      1  0.5687050000000  0.5173490000000  0.4286330000000 1.0
C      1  0.4568400000000  0.4701140000000  0.4346570000000 1.0
C      1  0.4267910000000  0.5643350000000  0.5785990000000 1.0
C      1  0.5059380000000  0.4299870000000  0.4777050000000 1.0
C      1  0.4503690000000  0.5217590000000  0.4486970000000 1.0
C      1  0.4571450000000  0.5002510000000  0.5089130000000 1.0
C      1  0.5284270000000  0.5437470000000  0.5339490000000 1.0
C      1  0.4112000000000  0.4391150000000  0.5628790000000 1.0
C      1  0.4505630000000  0.4660020000000  0.6095550000000 1.0
C      1  0.5611500000000  0.4379630000000  0.4324090000000 1.0
C      1  0.4860300000000  0.3744990000000  0.4796920000000 1.0
C      1  0.5341270000000  0.3922970000000  0.4692470000000 1.0
C      1  0.4783020000000  0.5233320000000  0.4810220000000 1.0
C      1  0.4007630000000  0.4961930000000  0.4631810000000 1.0
C      1  0.4545140000000  0.4164910000000  0.5455800000000 1.0
C      1  0.3807150000000  0.5055820000000  0.5157880000000 1.0
C      1  0.5629040000000  0.4443900000000  0.4023510000000 1.0
C      1  0.4643000000000  0.5418310000000  0.5639690000000 1.0
C      1  0.4898490000000  0.5727430000000  0.5354300000000 1.0
C      1  0.4944760000000  0.4502240000000  0.4609670000000 1.0
C      1  0.5638150000000  0.4881550000000  0.5207210000000 1.0
C      1  0.4406490000000  0.4345880000000  0.4963230000000 1.0
C      1  0.4361850000000  0.5118330000000  0.5889620000000 1.0
C      1  0.4420020000000  0.4369100000000  0.5661410000000 1.0
C      1  0.5623220000000  0.5228010000000  0.4005770000000 1.0
C      1  0.4076930000000  0.5011170000000  0.5257720000000 1.0
C      1  0.4728730000000  0.4673810000000  0.4088380000000 1.0
C      1  0.5046920000000  0.5613130000000  0.5794500000000 1.0
C      1  0.4578290000000  0.4826950000000  0.5520890000000 1.0
C      1  0.5692910000000  0.5158900000000  0.5286770000000 1.0
C      1  0.5843910000000  0.4067500000000  0.4666850000000 1.0
C      1  0.5597700000000  0.5126700000000  0.5968990000000 1.0
C      1  0.5399210000000  0.4811910000000  0.5363980000000 1.0
C      1  0.6043750000000  0.4566350000000  0.4665040000000 1.0
C      1  0.5528360000000  0.5504740000000  0.4082710000000 1.0
C      1  0.5552470000000  0.5782670000000  0.4818070000000 1.0
C      1  0.4674680000000  0.4553350000000  0.5548510000000 1.0
C      1  0.4281790000000  0.4699760000000  0.4274840000000 1.0
C      1  0.4831760000000  0.4434180000000  0.5261260000000 1.0
C      1  0.4219900000000  0.4872090000000  0.4052400000000 1.0
C      1  0.5107780000000  0.4874070000000  0.4197400000000 1.0
C      1  0.5115650000000  0.4503440000000  0.5387520000000 1.0
C      1  0.5954060000000  0.5267630000000  0.5290620000000 1.0
C      1  0.5461850000000  0.5584090000000  0.6076490000000 1.0
C      1  0.4939520000000  0.5242410000000  0.5053770000000 1.0
C      1  0.5093000000000  0.5041510000000  0.5978750000000 1.0
C      1  0.4439320000000  0.5057220000000  0.3990730000000 1.0
C      1  0.5510330000000  0.5824440000000  0.5583320000000 1.0
C      1  0.5115830000000  0.6116320000000  0.4885900000000 1.0
C      1  0.6229220000000  0.4820210000000  0.5391240000000 1.0
C      1  0.5918450000000  0.4708760000000  0.5792820000000 1.0
C      1  0.5249470000000  0.4985600000000  0.3743130000000 1.0
C      1  0.5858540000000  0.4329350000000  0.4530150000000 1.0
C      1  0.5358000000000  0.4966980000000  0.5858950000000 1.0
C      1  0.5182160000000  0.4498520000000  0.5701140000000 1.0
C      1  0.3817480000000  0.5580660000000  0.5064810000000 1.0
C      1  0.4268560000000  0.4891940000000  0.5069870000000 1.0
C      1  0.4338120000000  0.4931530000000  0.5646050000000 1.0
C      1  0.5236380000000  0.4831420000000  0.4849370000000 1.0
C      1  0.3906170000000  0.5244100000000  0.4703530000000 1.0
C      1  0.5691960000000  0.4729360000000  0.3903400000000 1.0
C      1  0.5528260000000  0.4990490000000  0.3841380000000 1.0
C      1  0.4245970000000  0.5924250000000  0.5311470000000 1.0
C      1  0.3778700000000  0.5288060000000  0.4967050000000 1.0
C      1  0.5643170000000  0.5511940000000  0.5637550000000 1.0
C      1  0.4728000000000  0.3981240000000  0.4906060000000 1.0
C      1  0.5856270000000  0.5762930000000  0.5242300000000 1.0
C      1  0.4034360000000  0.5494450000000  0.4592940000000 1.0
C      1  0.4548590000000  0.6040060000000  0.5309190000000 1.0
C      1  0.5028120000000  0.5474850000000  0.4049070000000 1.0
C      1  0.5518430000000  0.4986070000000  0.4442440000000 1.0
C      1  0.4781480000000  0.5584110000000  0.3944200000000 1.0
C      1  0.4527690000000  0.4397540000000  0.5951340000000 1.0
C      1  0.5976730000000  0.5443330000000  0.4851650000000 1.0
C      1  0.5973700000000  0.4822070000000  0.4556610000000 1.0
C      1  0.4176310000000  0.4315530000000  0.4537830000000 1.0
C      1  0.6127030000000  0.4897410000000  0.4145110000000 1.0
C      1  0.5099780000000  0.4325160000000  0.4261850000000 1.0
C      1  0.5379910000000  0.5052970000000  0.4694400000000 1.0
C      1  0.4627880000000  0.4202100000000  0.4359230000000 1.0
C      1  0.5943660000000  0.5257150000000  0.4389030000000 1.0
C      1  0.4638120000000  0.6202360000000  0.5080210000000 1.0
C      1  0.5493960000000  0.5292700000000  0.5466200000000 1.0
C      1  0.4829230000000  0.5693610000000  0.4941480000000 1.0
C      1  0.4674010000000  0.4953920000000  0.4515050000000 1.0
C      1  0.4809030000000  0.6106110000000  0.4864580000000 1.0
C      1  0.5289640000000  0.5876500000000  0.4953020000000 1.0
C      1  0.4707480000000  0.4915210000000  0.3898670000000 1.0
C      1  0.6080260000000  0.4583390000000  0.4960010000000 1.0
C      1  0.4473270000000  0.4082350000000  0.4803780000000 1.0
C      1  0.4693570000000  0.4826360000000  0.4853290000000 1.0
C      1  0.5236350000000  0.4197890000000  0.5735840000000 1.0
C      1  0.4429910000000  0.5296600000000  0.5028610000000 1.0
C      1  0.3698940000000  0.4620810000000  0.5400980000000 1.0
C      1  0.5093030000000  0.5274630000000  0.6147680000000 1.0
C      1  0.5435280000000  0.4604500000000  0.4849740000000 1.0
C      1  0.4895010000000  0.4201880000000  0.4993390000000 1.0
C      1  0.5666100000000  0.5945950000000  0.5367250000000 1.0
END
