TITL C-862130-1496-199 -0.00790154815643211 125000 -955.474445262848 0 0 167 (C1) n - 1
REM
REM in /home/nfs/bkarasulu/CARBON/AIRSS/Generating-Clusters/TERSOFF/Higher-Symm/FIRE-HFTN
REM
REM
REM
REM
REM
REM ./C.cell (b20cbc046b6831c77cfcea5457e17084)
REM AIRSS Version 0.9.1 bugfix July 2018 build 013d7b7c2542+ Fri, 06 Jul 2018 19:26:36 +0100
REM compiler GCC version 9.2.1 20190827 (Red Hat 9.2.1-1)
REM options -cpp -mtune=generic -march=x86-64 -g -O0 -fpre-include=/usr/include/finclude/math-vector-fortran.h
REM seed 1299613829 767741117 553446953 -2003972997 1330467666 1212715561 1277740524 352448774 -1998068913 -965800273 -617697924 -1500725775 245235801 88507381 -22038768 -1132533343 -760053577 994712457 -1628067766 1744188880 523112083 -1116390106 -1852398527 175794397 569012051 484805665 -1709680352 -1265798088 690842405 -1017747168 -1707530061 1283461791 103343460
REM
CELL 1.54180   50.00000   50.00000   50.00000   90.00000   90.00000   90.00000
LATT -1
SFAC C  
C      1  0.5949520000000  0.4672910000000  0.4826730000000 1.0
C      1  0.4806000000000  0.5980680000000  0.4828850000000 1.0
C      1  0.4245890000000  0.4341610000000  0.4832740000000 1.0
C      1  0.5230310000000  0.5792650000000  0.5783230000000 1.0
C      1  0.4144820000000  0.4846820000000  0.5759710000000 1.0
C      1  0.5575170000000  0.4328490000000  0.5744060000000 1.0
C      1  0.5365100000000  0.5319120000000  0.5951680000000 1.0
C      1  0.4489740000000  0.5188540000000  0.5944480000000 1.0
C      1  0.5124230000000  0.4477450000000  0.5936150000000 1.0
C      1  0.4669170000000  0.5278450000000  0.5482070000000 1.0
C      1  0.4923540000000  0.4567060000000  0.5487420000000 1.0
C      1  0.5416580000000  0.5137310000000  0.5486110000000 1.0
C      1  0.5149590000000  0.4742310000000  0.4344620000000 1.0
C      1  0.5147400000000  0.5254880000000  0.4344740000000 1.0
C      1  0.4704330000000  0.4996750000000  0.4343940000000 1.0
C      1  0.5985960000000  0.4885230000000  0.5399490000000 1.0
C      1  0.4594970000000  0.5907730000000  0.5398640000000 1.0
C      1  0.4416170000000  0.4209220000000  0.5405720000000 1.0
C      1  0.4625680000000  0.4572730000000  0.4030600000000 1.0
C      1  0.5556420000000  0.4886140000000  0.4029290000000 1.0
C      1  0.4819610000000  0.5534560000000  0.4030270000000 1.0
C      1  0.5333200000000  0.4742990000000  0.4884370000000 1.0
C      1  0.5052320000000  0.5409590000000  0.4884130000000 1.0
C      1  0.4617620000000  0.4833850000000  0.4888280000000 1.0
C      1  0.4906860000000  0.5864870000000  0.4503670000000 1.0
C      1  0.4295390000000  0.4483580000000  0.4505530000000 1.0
C      1  0.5798620000000  0.4644200000000  0.4501810000000 1.0
C      1  0.4443610000000  0.4891170000000  0.5146430000000 1.0
C      1  0.5374750000000  0.4561560000000  0.5138520000000 1.0
C      1  0.5185410000000  0.5531960000000  0.5142970000000 1.0
C      1  0.4538750000000  0.4021680000000  0.5196730000000 1.0
C      1  0.6079060000000  0.5087140000000  0.5191600000000 1.0
C      1  0.4377290000000  0.5892160000000  0.5185680000000 1.0
C      1  0.5902720000000  0.4602010000000  0.5330710000000 1.0
C      1  0.4886690000000  0.5951240000000  0.5335790000000 1.0
C      1  0.4214340000000  0.4425200000000  0.5337570000000 1.0
C      1  0.4491250000000  0.5522480000000  0.5925460000000 1.0
C      1  0.4840350000000  0.4304480000000  0.5946410000000 1.0
C      1  0.5683520000000  0.5196360000000  0.5953460000000 1.0
C      1  0.4158930000000  0.5633200000000  0.5113240000000 1.0
C      1  0.4871740000000  0.3957730000000  0.5119560000000 1.0
C      1  0.5961540000000  0.5404800000000  0.5123720000000 1.0
C      1  0.4389710000000  0.4160810000000  0.5700280000000 1.0
C      1  0.6040080000000  0.4892940000000  0.5693850000000 1.0
C      1  0.4558500000000  0.5985390000000  0.5685360000000 1.0
C      1  0.4170360000000  0.5470930000000  0.4557840000000 1.0
C      1  0.5005490000000  0.4041940000000  0.4558670000000 1.0
C      1  0.5823310000000  0.5479590000000  0.4562370000000 1.0
C      1  0.4141840000000  0.4819080000000  0.5073200000000 1.0
C      1  0.5590920000000  0.4342280000000  0.5068920000000 1.0
C      1  0.5269650000000  0.5830960000000  0.5073490000000 1.0
C      1  0.5064990000000  0.5739680000000  0.4025850000000 1.0
C      1  0.4326030000000  0.4682540000000  0.4025510000000 1.0
C      1  0.5610360000000  0.4570650000000  0.4023570000000 1.0
C      1  0.5287720000000  0.4934210000000  0.3885290000000 1.0
C      1  0.4912370000000  0.5278490000000  0.3885410000000 1.0
C      1  0.4801610000000  0.4781010000000  0.3885510000000 1.0
C      1  0.4716350000000  0.5059620000000  0.3906280000000 1.0
C      1  0.5089040000000  0.4720920000000  0.3906980000000 1.0
C      1  0.5196230000000  0.5213210000000  0.3907090000000 1.0
C      1  0.4950690000000  0.5360190000000  0.5899640000000 1.0
C      1  0.4714660000000  0.4779410000000  0.5915610000000 1.0
C      1  0.5384710000000  0.4816960000000  0.5898770000000 1.0
C      1  0.5137600000000  0.4770760000000  0.6059620000000 1.0
C      1  0.5082350000000  0.5126680000000  0.6067900000000 1.0
C      1  0.4734210000000  0.5035290000000  0.6053630000000 1.0
C      1  0.5558970000000  0.4835370000000  0.4345540000000 1.0
C      1  0.4861030000000  0.5561810000000  0.4347010000000 1.0
C      1  0.4581240000000  0.4595470000000  0.4347500000000 1.0
C      1  0.4699510000000  0.4536720000000  0.6057470000000 1.0
C      1  0.5607010000000  0.4925270000000  0.6029760000000 1.0
C      1  0.4767400000000  0.5533970000000  0.6023960000000 1.0
C      1  0.4561450000000  0.5850840000000  0.4402590000000 1.0
C      1  0.4480930000000  0.4191730000000  0.4405000000000 1.0
C      1  0.5957920000000  0.4952260000000  0.4405100000000 1.0
C      1  0.5823130000000  0.5599490000000  0.5302850000000 1.0
C      1  0.4060970000000  0.5418960000000  0.5293950000000 1.0
C      1  0.5108470000000  0.3977850000000  0.5297340000000 1.0
C      1  0.4398140000000  0.5588080000000  0.4352130000000 1.0
C      1  0.4790070000000  0.4181940000000  0.4353960000000 1.0
C      1  0.5811310000000  0.5224080000000  0.4355560000000 1.0
C      1  0.5639980000000  0.4180910000000  0.5348420000000 1.0
C      1  0.5381490000000  0.5960900000000  0.5352810000000 1.0
C      1  0.3975570000000  0.4859870000000  0.5350580000000 1.0
C      1  0.4059320000000  0.5162410000000  0.4549270000000 1.0
C      1  0.5329140000000  0.4097590000000  0.4548430000000 1.0
C      1  0.5613380000000  0.5731330000000  0.4552540000000 1.0
C      1  0.6096590000000  0.4950120000000  0.4909710000000 1.0
C      1  0.4492160000000  0.5973100000000  0.4906110000000 1.0
C      1  0.4410670000000  0.4075340000000  0.4915490000000 1.0
C      1  0.5849800000000  0.4512240000000  0.5056540000000 1.0
C      1  0.4991550000000  0.5965340000000  0.5061720000000 1.0
C      1  0.4158230000000  0.4510410000000  0.5062200000000 1.0
C      1  0.4314620000000  0.5068980000000  0.4678870000000 1.0
C      1  0.5282180000000  0.4365070000000  0.4677840000000 1.0
C      1  0.5405100000000  0.5555900000000  0.4680170000000 1.0
C      1  0.4362210000000  0.5030850000000  0.5711620000000 1.0
C      1  0.5310210000000  0.4433530000000  0.5701100000000 1.0
C      1  0.5298940000000  0.5518370000000  0.5726300000000 1.0
C      1  0.5260290000000  0.4614470000000  0.5442530000000 1.0
C      1  0.5195920000000  0.5397780000000  0.5451020000000 1.0
C      1  0.4550110000000  0.4968340000000  0.5462330000000 1.0
C      1  0.5345210000000  0.5353350000000  0.4132320000000 1.0
C      1  0.4520350000000  0.5118840000000  0.4131010000000 1.0
C      1  0.5135780000000  0.4521640000000  0.4131980000000 1.0
C      1  0.4168620000000  0.5414660000000  0.5555110000000 1.0
C      1  0.5061550000000  0.4065330000000  0.5561690000000 1.0
C      1  0.5772130000000  0.5520500000000  0.5569970000000 1.0
C      1  0.4701710000000  0.5584840000000  0.4734940000000 1.0
C      1  0.4641370000000  0.4444330000000  0.4734710000000 1.0
C      1  0.5658340000000  0.4960960000000  0.4733790000000 1.0
C      1  0.4678600000000  0.5239760000000  0.4971360000000 1.0
C      1  0.4951770000000  0.4594280000000  0.4972720000000 1.0
C      1  0.5370750000000  0.5151900000000  0.4971120000000 1.0
C      1  0.4733700000000  0.4771820000000  0.5623920000000 1.0
C      1  0.5358020000000  0.4857560000000  0.5610960000000 1.0
C      1  0.4937860000000  0.5336010000000  0.5613400000000 1.0
C      1  0.5523220000000  0.5392850000000  0.4899000000000 1.0
C      1  0.4394250000000  0.5254180000000  0.4897090000000 1.0
C      1  0.5082470000000  0.4342020000000  0.4897130000000 1.0
C      1  0.5976310000000  0.5121840000000  0.5865420000000 1.0
C      1  0.4412630000000  0.5814820000000  0.5871930000000 1.0
C      1  0.4615910000000  0.4100170000000  0.5875630000000 1.0
C      1  0.4899330000000  0.4293520000000  0.5633380000000 1.0
C      1  0.5650060000000  0.5271190000000  0.5647190000000 1.0
C      1  0.4448520000000  0.5449610000000  0.5618570000000 1.0
C      1  0.3941840000000  0.5039600000000  0.4868180000000 1.0
C      1  0.5496790000000  0.4058240000000  0.4866170000000 1.0
C      1  0.5562270000000  0.5894320000000  0.4871090000000 1.0
C      1  0.4816240000000  0.4592130000000  0.4550990000000 1.0
C      1  0.5442190000000  0.5037860000000  0.4550330000000 1.0
C      1  0.4743530000000  0.5359500000000  0.4551590000000 1.0
C      1  0.4523780000000  0.5425530000000  0.4137290000000 1.0
C      1  0.4868250000000  0.4371340000000  0.4138510000000 1.0
C      1  0.5609120000000  0.5197450000000  0.4138970000000 1.0
C      1  0.5827020000000  0.5379020000000  0.4859740000000 1.0
C      1  0.4255110000000  0.5525360000000  0.4854170000000 1.0
C      1  0.4916430000000  0.4086740000000  0.4855960000000 1.0
C      1  0.4267350000000  0.4959890000000  0.4113330000000 1.0
C      1  0.5399470000000  0.4381670000000  0.4113230000000 1.0
C      1  0.5334310000000  0.5651890000000  0.4115160000000 1.0
C      1  0.5980380000000  0.4605440000000  0.5770890000000 1.0
C      1  0.4839550000000  0.6086650000000  0.5746890000000 1.0
C      1  0.4170500000000  0.4355450000000  0.5775480000000 1.0
C      1  0.5882270000000  0.5107190000000  0.4787830000000 1.0
C      1  0.4464010000000  0.5708040000000  0.4785110000000 1.0
C      1  0.4653170000000  0.4176790000000  0.4787490000000 1.0
C      1  0.4079620000000  0.4601580000000  0.5579940000000 1.0
C      1  0.5822660000000  0.4399490000000  0.5570680000000 1.0
C      1  0.5103900000000  0.5984430000000  0.5581190000000 1.0
C      1  0.4917320000000  0.4717820000000  0.5224120000000 1.0
C      1  0.5282270000000  0.5057650000000  0.5221600000000 1.0
C      1  0.4801480000000  0.5203190000000  0.5222020000000 1.0
C      1  0.5510100000000  0.5818230000000  0.4286100000000 1.0
C      1  0.4035510000000  0.5029110000000  0.4283650000000 1.0
C      1  0.5455600000000  0.4145080000000  0.4282230000000 1.0
C      1  0.4400520000000  0.4783170000000  0.4676330000000 1.0
C      1  0.5487060000000  0.4582620000000  0.4672530000000 1.0
C      1  0.5115150000000  0.5625260000000  0.4674690000000 1.0
C      1  0.5173440000000  0.5102940000000  0.4735420000000 1.0
C      1  0.4820320000000  0.5092330000000  0.4736120000000 1.0
C      1  0.5006820000000  0.4791050000000  0.4736580000000 1.0
C      1  0.5670480000000  0.5841950000000  0.5197220000000 1.0
C      1  0.3931180000000  0.5162380000000  0.5191440000000 1.0
C      1  0.5395650000000  0.3991690000000  0.5191960000000 1.0
C      1  0.5000220000000  0.4993190000000  0.5238010000000 1.0
C      1  0.5000470000000  0.4998040000000  0.4333580000000 1.0
END
