TITL C-862127-1500-415 0.000153633416569077 125000 -817.16010625138 0 0 156 (C4) n - 1
REM
REM in /home/nfs/bkarasulu/CARBON/AIRSS/Generating-Clusters/TERSOFF/Higher-Symm/FIRE-HFTN
REM
REM
REM
REM
REM
REM ./C.cell (b20cbc046b6831c77cfcea5457e17084)
REM AIRSS Version 0.9.1 bugfix July 2018 build 013d7b7c2542+ Fri, 06 Jul 2018 19:26:36 +0100
REM compiler GCC version 9.2.1 20190827 (Red Hat 9.2.1-1)
REM options -cpp -mtune=generic -march=x86-64 -g -O0 -fpre-include=/usr/include/finclude/math-vector-fortran.h
REM seed -1450018510 206213683 1051577212 737902374 -795374563 552249996 562673949 -1974297364 -1858251454 -2056949937 1697014477 -169077372 -743681790 1436944950 744267717 -60581755 577140882 -991871887 1661040425 1179482267 -283452291 1636812099 -908243707 -1523838849 1047466826 2004792750 -589349449 -1486748115 -1404378508 715770458 444063574 1361405972 1024625877
REM
CELL 1.54180   50.00000   50.00000   50.00000   90.00000   90.00000   90.00000
LATT -1
SFAC C  
C      1  0.4659390000000  0.4816810000000  0.3946930000000 1.0
C      1  0.4816810000000  0.5340610000000  0.3946930000000 1.0
C      1  0.5340610000000  0.5183190000000  0.3946930000000 1.0
C      1  0.5183190000000  0.4659390000000  0.3946930000000 1.0
C      1  0.5368680000000  0.4878270000000  0.4011210000000 1.0
C      1  0.5121730000000  0.5368680000000  0.4011210000000 1.0
C      1  0.4631320000000  0.5121730000000  0.4011210000000 1.0
C      1  0.4878270000000  0.4631320000000  0.4011210000000 1.0
C      1  0.4076210000000  0.4484720000000  0.5049710000000 1.0
C      1  0.4484720000000  0.5923790000000  0.5049710000000 1.0
C      1  0.5923790000000  0.5515280000000  0.5049710000000 1.0
C      1  0.5515280000000  0.4076210000000  0.5049710000000 1.0
C      1  0.5924310000000  0.4465910000000  0.5067400000000 1.0
C      1  0.5534090000000  0.5924310000000  0.5067400000000 1.0
C      1  0.4075690000000  0.5534090000000  0.5067400000000 1.0
C      1  0.4465910000000  0.4075690000000  0.5067400000000 1.0
C      1  0.5688940000000  0.4835370000000  0.5820620000000 1.0
C      1  0.4835370000000  0.4311060000000  0.5820620000000 1.0
C      1  0.4311060000000  0.5164630000000  0.5820620000000 1.0
C      1  0.5164630000000  0.5688940000000  0.5820620000000 1.0
C      1  0.4299220000000  0.4800550000000  0.5799750000000 1.0
C      1  0.5199450000000  0.4299220000000  0.5799750000000 1.0
C      1  0.5700780000000  0.5199450000000  0.5799750000000 1.0
C      1  0.4800550000000  0.5700780000000  0.5799750000000 1.0
C      1  0.4630890000000  0.5171920000000  0.5988640000000 1.0
C      1  0.5171920000000  0.5369110000000  0.5988640000000 1.0
C      1  0.5369110000000  0.4828080000000  0.5988640000000 1.0
C      1  0.4828080000000  0.4630890000000  0.5988640000000 1.0
C      1  0.5383130000000  0.5146470000000  0.5925890000000 1.0
C      1  0.4853530000000  0.5383130000000  0.5925890000000 1.0
C      1  0.4616870000000  0.4853530000000  0.5925890000000 1.0
C      1  0.5146470000000  0.4616870000000  0.5925890000000 1.0
C      1  0.4228920000000  0.4443910000000  0.4789780000000 1.0
C      1  0.4443910000000  0.5771080000000  0.4789780000000 1.0
C      1  0.5771080000000  0.5556090000000  0.4789780000000 1.0
C      1  0.5556090000000  0.4228920000000  0.4789780000000 1.0
C      1  0.5767910000000  0.4436640000000  0.4802360000000 1.0
C      1  0.5563360000000  0.5767910000000  0.4802360000000 1.0
C      1  0.4232090000000  0.5563360000000  0.4802360000000 1.0
C      1  0.4436640000000  0.4232090000000  0.4802360000000 1.0
C      1  0.4109170000000  0.5151820000000  0.4784600000000 1.0
C      1  0.5151820000000  0.5890830000000  0.4784600000000 1.0
C      1  0.5890830000000  0.4848180000000  0.4784600000000 1.0
C      1  0.4848180000000  0.4109170000000  0.4784600000000 1.0
C      1  0.5909210000000  0.5128130000000  0.4758240000000 1.0
C      1  0.4871870000000  0.5909210000000  0.4758240000000 1.0
C      1  0.4090790000000  0.4871870000000  0.4758240000000 1.0
C      1  0.5128130000000  0.4090790000000  0.4758240000000 1.0
C      1  0.5194640000000  0.4378140000000  0.4121180000000 1.0
C      1  0.4378140000000  0.4805360000000  0.4121180000000 1.0
C      1  0.4805360000000  0.5621860000000  0.4121180000000 1.0
C      1  0.5621860000000  0.5194640000000  0.4121180000000 1.0
C      1  0.4833880000000  0.4353650000000  0.4156020000000 1.0
C      1  0.5646350000000  0.4833880000000  0.4156020000000 1.0
C      1  0.5166120000000  0.5646350000000  0.4156020000000 1.0
C      1  0.4353650000000  0.5166120000000  0.4156020000000 1.0
C      1  0.5543250000000  0.5300710000000  0.5129300000000 1.0
C      1  0.5300710000000  0.4456750000000  0.5129300000000 1.0
C      1  0.4456750000000  0.4699290000000  0.5129300000000 1.0
C      1  0.4699290000000  0.5543250000000  0.5129300000000 1.0
C      1  0.4490350000000  0.5271090000000  0.5193310000000 1.0
C      1  0.4728910000000  0.4490350000000  0.5193310000000 1.0
C      1  0.5509650000000  0.4728910000000  0.5193310000000 1.0
C      1  0.5271090000000  0.5509650000000  0.5193310000000 1.0
C      1  0.4354280000000  0.4735370000000  0.4641670000000 1.0
C      1  0.4735370000000  0.5645720000000  0.4641670000000 1.0
C      1  0.5645720000000  0.5264630000000  0.4641670000000 1.0
C      1  0.5264630000000  0.4354280000000  0.4641670000000 1.0
C      1  0.5626820000000  0.4718780000000  0.4678230000000 1.0
C      1  0.5281220000000  0.5626820000000  0.4678230000000 1.0
C      1  0.4373180000000  0.5281220000000  0.4678230000000 1.0
C      1  0.4718780000000  0.4373180000000  0.4678230000000 1.0
C      1  0.4343210000000  0.5408000000000  0.4362630000000 1.0
C      1  0.5408000000000  0.5656790000000  0.4362630000000 1.0
C      1  0.5656790000000  0.4592000000000  0.4362630000000 1.0
C      1  0.4592000000000  0.4343210000000  0.4362630000000 1.0
C      1  0.5650730000000  0.5414450000000  0.4341740000000 1.0
C      1  0.4585550000000  0.5650730000000  0.4341740000000 1.0
C      1  0.4349270000000  0.4585550000000  0.4341740000000 1.0
C      1  0.5414450000000  0.4349270000000  0.4341740000000 1.0
C      1  0.5630900000000  0.5883220000000  0.4489290000000 1.0
C      1  0.5883220000000  0.4369100000000  0.4489290000000 1.0
C      1  0.4369100000000  0.4116780000000  0.4489290000000 1.0
C      1  0.4116780000000  0.5630900000000  0.4489290000000 1.0
C      1  0.4361540000000  0.5873990000000  0.4473270000000 1.0
C      1  0.4126010000000  0.4361540000000  0.4473270000000 1.0
C      1  0.5638460000000  0.4126010000000  0.4473270000000 1.0
C      1  0.5873990000000  0.5638460000000  0.4473270000000 1.0
C      1  0.4384200000000  0.5397430000000  0.5578500000000 1.0
C      1  0.5397430000000  0.5615800000000  0.5578500000000 1.0
C      1  0.5615800000000  0.4602570000000  0.5578500000000 1.0
C      1  0.4602570000000  0.4384200000000  0.5578500000000 1.0
C      1  0.5594310000000  0.5358670000000  0.5539860000000 1.0
C      1  0.4641330000000  0.5594310000000  0.5539860000000 1.0
C      1  0.4405690000000  0.4641330000000  0.5539860000000 1.0
C      1  0.5358670000000  0.4405690000000  0.5539860000000 1.0
C      1  0.4632980000000  0.4885800000000  0.5463690000000 1.0
C      1  0.4885800000000  0.5367020000000  0.5463690000000 1.0
C      1  0.5367020000000  0.5114200000000  0.5463690000000 1.0
C      1  0.5114200000000  0.4632980000000  0.5463690000000 1.0
C      1  0.5352490000000  0.4824380000000  0.5569750000000 1.0
C      1  0.5175620000000  0.5352490000000  0.5569750000000 1.0
C      1  0.4647510000000  0.5175620000000  0.5569750000000 1.0
C      1  0.4824380000000  0.4647510000000  0.5569750000000 1.0
C      1  0.4838700000000  0.5423710000000  0.4872880000000 1.0
C      1  0.5423710000000  0.5161300000000  0.4872880000000 1.0
C      1  0.5161300000000  0.4576290000000  0.4872880000000 1.0
C      1  0.4576290000000  0.4838700000000  0.4872880000000 1.0
C      1  0.5160660000000  0.5404190000000  0.4913750000000 1.0
C      1  0.4595810000000  0.5160660000000  0.4913750000000 1.0
C      1  0.4839340000000  0.4595810000000  0.4913750000000 1.0
C      1  0.5404190000000  0.4839340000000  0.4913750000000 1.0
C      1  0.5981040000000  0.5206420000000  0.5572280000000 1.0
C      1  0.5206420000000  0.4018960000000  0.5572280000000 1.0
C      1  0.4018960000000  0.4793580000000  0.5572280000000 1.0
C      1  0.4793580000000  0.5981040000000  0.5572280000000 1.0
C      1  0.4094140000000  0.5096200000000  0.5573340000000 1.0
C      1  0.4903800000000  0.4094140000000  0.5573340000000 1.0
C      1  0.5905860000000  0.4903800000000  0.5573340000000 1.0
C      1  0.5096200000000  0.5905860000000  0.5573340000000 1.0
C      1  0.5154270000000  0.5798080000000  0.5270850000000 1.0
C      1  0.5798080000000  0.4845730000000  0.5270850000000 1.0
C      1  0.4845730000000  0.4201920000000  0.5270850000000 1.0
C      1  0.4201920000000  0.5154270000000  0.5270850000000 1.0
C      1  0.4839850000000  0.5825040000000  0.5250940000000 1.0
C      1  0.4174960000000  0.4839850000000  0.5250940000000 1.0
C      1  0.5160150000000  0.4174960000000  0.5250940000000 1.0
C      1  0.5825040000000  0.5160150000000  0.5250940000000 1.0
C      1  0.4639860000000  0.4863470000000  0.4459380000000 1.0
C      1  0.4863470000000  0.5360140000000  0.4459380000000 1.0
C      1  0.5360140000000  0.5136530000000  0.4459380000000 1.0
C      1  0.5136530000000  0.4639860000000  0.4459380000000 1.0
C      1  0.5351990000000  0.4845200000000  0.4498480000000 1.0
C      1  0.5154800000000  0.5351990000000  0.4498480000000 1.0
C      1  0.4648010000000  0.5154800000000  0.4498480000000 1.0
C      1  0.4845200000000  0.4648010000000  0.4498480000000 1.0
C      1  0.4201080000000  0.5598840000000  0.5341140000000 1.0
C      1  0.5598840000000  0.5798920000000  0.5341140000000 1.0
C      1  0.5798920000000  0.4401160000000  0.5341140000000 1.0
C      1  0.4401160000000  0.4201080000000  0.5341140000000 1.0
C      1  0.5795620000000  0.5571580000000  0.5327080000000 1.0
C      1  0.4428420000000  0.5795620000000  0.5327080000000 1.0
C      1  0.4204380000000  0.4428420000000  0.5327080000000 1.0
C      1  0.5571580000000  0.4204380000000  0.5327080000000 1.0
C      1  0.5981780000000  0.4747520000000  0.5050840000000 1.0
C      1  0.4747520000000  0.4018220000000  0.5050840000000 1.0
C      1  0.4018220000000  0.5252480000000  0.5050840000000 1.0
C      1  0.5252480000000  0.5981780000000  0.5050840000000 1.0
C      1  0.3986560000000  0.4760580000000  0.5016660000000 1.0
C      1  0.5239420000000  0.3986560000000  0.5016660000000 1.0
C      1  0.6013440000000  0.5239420000000  0.5016660000000 1.0
C      1  0.4760580000000  0.6013440000000  0.5016660000000 1.0
C      1  0.5068130000000  0.4794680000000  0.5216120000000 1.0
C      1  0.4794680000000  0.4931870000000  0.5216120000000 1.0
C      1  0.4931870000000  0.5205320000000  0.5216120000000 1.0
C      1  0.5205320000000  0.5068130000000  0.5216120000000 1.0
END
