TITL C-862503-991-1414 -0.000198956512480415 125000 -1065.258772695 0 0 184 (C2) n - 1
REM
REM in /home/nfs/bkarasulu/CARBON/AIRSS/Generating-Clusters/TERSOFF/Higher-Symm/FIRE-HFTN
REM
REM
REM
REM
REM
REM ./C.cell (b20cbc046b6831c77cfcea5457e17084)
REM AIRSS Version 0.9.1 bugfix July 2018 build 013d7b7c2542+ Fri, 06 Jul 2018 19:26:36 +0100
REM compiler GCC version 9.2.1 20190827 (Red Hat 9.2.1-1)
REM options -cpp -mtune=generic -march=x86-64 -g -O0 -fpre-include=/usr/include/finclude/math-vector-fortran.h
REM seed 693205800 -1620448553 1988677604 1703748627 -1736083572 1004977006 -1134226839 -1059765386 -1234080105 -1725126580 -1208191319 -1438270279 1757785777 686197366 425243382 1055030372 262877433 1140750579 1913909968 -1753006875 972730084 -193389767 -1664876229 1662553407 -290779740 -95980948 -1382180453 -94539276 1755568509 1511322177 885786450 -1040105759 515605022
REM
CELL 1.54180   50.00000   50.00000   50.00000   90.00000   90.00000   90.00000
LATT -1
SFAC C  
C      1  0.5573470000000  0.5833140000000  0.5297320000000 1.0
C      1  0.4426530000000  0.5833140000000  0.4702680000000 1.0
C      1  0.4431010000000  0.5810480000000  0.5366570000000 1.0
C      1  0.5568990000000  0.5810480000000  0.4633430000000 1.0
C      1  0.4819640000000  0.4765260000000  0.4452550000000 1.0
C      1  0.5180360000000  0.4765260000000  0.5547450000000 1.0
C      1  0.5184630000000  0.4753770000000  0.4454590000000 1.0
C      1  0.4815370000000  0.4753770000000  0.5545410000000 1.0
C      1  0.4855550000000  0.4716640000000  0.3900650000000 1.0
C      1  0.5144450000000  0.4716640000000  0.6099350000000 1.0
C      1  0.5140880000000  0.4700180000000  0.3911130000000 1.0
C      1  0.4859120000000  0.4700180000000  0.6088870000000 1.0
C      1  0.5517390000000  0.4487150000000  0.5242220000000 1.0
C      1  0.4482610000000  0.4487150000000  0.4757780000000 1.0
C      1  0.4507620000000  0.4509410000000  0.5079470000000 1.0
C      1  0.5492380000000  0.4509410000000  0.4920530000000 1.0
C      1  0.4694380000000  0.5013130000000  0.5719080000000 1.0
C      1  0.5305620000000  0.5013130000000  0.4280920000000 1.0
C      1  0.5297950000000  0.5032260000000  0.5710060000000 1.0
C      1  0.4702050000000  0.5032260000000  0.4289940000000 1.0
C      1  0.5155510000000  0.5801670000000  0.4704540000000 1.0
C      1  0.4844490000000  0.5801670000000  0.5295460000000 1.0
C      1  0.4841820000000  0.5827680000000  0.4764450000000 1.0
C      1  0.5158180000000  0.5827680000000  0.5235550000000 1.0
C      1  0.4619280000000  0.4035180000000  0.4289820000000 1.0
C      1  0.5380720000000  0.4035180000000  0.5710180000000 1.0
C      1  0.5306430000000  0.4051360000000  0.4369440000000 1.0
C      1  0.4693570000000  0.4051360000000  0.5630560000000 1.0
C      1  0.5599190000000  0.4902380000000  0.5157960000000 1.0
C      1  0.4400810000000  0.4902380000000  0.4842040000000 1.0
C      1  0.4398180000000  0.4904920000000  0.5164380000000 1.0
C      1  0.5601820000000  0.4904920000000  0.4835620000000 1.0
C      1  0.5509430000000  0.4052240000000  0.5426200000000 1.0
C      1  0.4490570000000  0.4052240000000  0.4573800000000 1.0
C      1  0.4507940000000  0.4074780000000  0.5358810000000 1.0
C      1  0.5492060000000  0.4074780000000  0.4641190000000 1.0
C      1  0.4848730000000  0.5067080000000  0.4851790000000 1.0
C      1  0.5151270000000  0.5067080000000  0.5148210000000 1.0
C      1  0.5156320000000  0.5064290000000  0.4843920000000 1.0
C      1  0.4843680000000  0.5064290000000  0.5156080000000 1.0
C      1  0.4548720000000  0.5807530000000  0.4418350000000 1.0
C      1  0.5451280000000  0.5807530000000  0.5581650000000 1.0
C      1  0.5433620000000  0.5752060000000  0.4364570000000 1.0
C      1  0.4566380000000  0.5752060000000  0.5635430000000 1.0
C      1  0.4778500000000  0.5297510000000  0.5313120000000 1.0
C      1  0.5221500000000  0.5297510000000  0.4686880000000 1.0
C      1  0.5209790000000  0.5308940000000  0.5297940000000 1.0
C      1  0.4790210000000  0.5308940000000  0.4702060000000 1.0
C      1  0.5487090000000  0.4576650000000  0.4368650000000 1.0
C      1  0.4512910000000  0.4576650000000  0.5631350000000 1.0
C      1  0.4512060000000  0.4604550000000  0.4354560000000 1.0
C      1  0.5487940000000  0.4604550000000  0.5645440000000 1.0
C      1  0.4718990000000  0.4435070000000  0.3957900000000 1.0
C      1  0.5281010000000  0.4435070000000  0.6042100000000 1.0
C      1  0.5252910000000  0.4419480000000  0.3988060000000 1.0
C      1  0.4747090000000  0.4419480000000  0.6011940000000 1.0
C      1  0.4461640000000  0.5560980000000  0.5834220000000 1.0
C      1  0.5538360000000  0.5560980000000  0.4165780000000 1.0
C      1  0.5524320000000  0.5600110000000  0.5778830000000 1.0
C      1  0.4475680000000  0.5600110000000  0.4221170000000 1.0
C      1  0.5787170000000  0.5469570000000  0.5747120000000 1.0
C      1  0.4212830000000  0.5469570000000  0.4252880000000 1.0
C      1  0.4198770000000  0.5436770000000  0.5780900000000 1.0
C      1  0.5801230000000  0.5436770000000  0.4219100000000 1.0
C      1  0.5848030000000  0.4746530000000  0.4712890000000 1.0
C      1  0.4151970000000  0.4746530000000  0.5287110000000 1.0
C      1  0.4150940000000  0.4753510000000  0.4709810000000 1.0
C      1  0.5849060000000  0.4753510000000  0.5290190000000 1.0
C      1  0.5639310000000  0.5561240000000  0.5143420000000 1.0
C      1  0.4360690000000  0.5561240000000  0.4856580000000 1.0
C      1  0.4357890000000  0.5556490000000  0.5185540000000 1.0
C      1  0.5642110000000  0.5556490000000  0.4814460000000 1.0
C      1  0.4142740000000  0.4873940000000  0.3981030000000 1.0
C      1  0.5857260000000  0.4873940000000  0.6018970000000 1.0
C      1  0.5861520000000  0.4815490000000  0.3978280000000 1.0
C      1  0.4138480000000  0.4815490000000  0.6021720000000 1.0
C      1  0.4020280000000  0.5571480000000  0.5589950000000 1.0
C      1  0.5979720000000  0.5571480000000  0.4410050000000 1.0
C      1  0.5972090000000  0.5591480000000  0.5553350000000 1.0
C      1  0.4027910000000  0.5591480000000  0.4446650000000 1.0
C      1  0.3938970000000  0.5088500000000  0.4398040000000 1.0
C      1  0.6061030000000  0.5088500000000  0.5601960000000 1.0
C      1  0.6070230000000  0.5058350000000  0.4386440000000 1.0
C      1  0.3929770000000  0.5058350000000  0.5613560000000 1.0
C      1  0.5319070000000  0.5526540000000  0.5992990000000 1.0
C      1  0.4680930000000  0.5526540000000  0.4007010000000 1.0
C      1  0.4643820000000  0.5475510000000  0.6063830000000 1.0
C      1  0.5356180000000  0.5475510000000  0.3936170000000 1.0
C      1  0.5104020000000  0.4158520000000  0.5298020000000 1.0
C      1  0.4895980000000  0.4158520000000  0.4701980000000 1.0
C      1  0.4858810000000  0.4182160000000  0.5155230000000 1.0
C      1  0.5141190000000  0.4182160000000  0.4844770000000 1.0
C      1  0.5210250000000  0.4439780000000  0.5289300000000 1.0
C      1  0.4789750000000  0.4439780000000  0.4710700000000 1.0
C      1  0.4793420000000  0.4438100000000  0.5035220000000 1.0
C      1  0.5206580000000  0.4438100000000  0.4964780000000 1.0
C      1  0.5294360000000  0.5553510000000  0.5155070000000 1.0
C      1  0.4705640000000  0.5553510000000  0.4844930000000 1.0
C      1  0.4700980000000  0.5545730000000  0.5183750000000 1.0
C      1  0.5299020000000  0.5545730000000  0.4816250000000 1.0
C      1  0.5100180000000  0.5720300000000  0.6036190000000 1.0
C      1  0.4899820000000  0.5720300000000  0.3963810000000 1.0
C      1  0.4845530000000  0.5661840000000  0.6166120000000 1.0
C      1  0.5154470000000  0.5661840000000  0.3833880000000 1.0
C      1  0.5320190000000  0.4996570000000  0.6014470000000 1.0
C      1  0.4679810000000  0.4996570000000  0.3985530000000 1.0
C      1  0.4664550000000  0.4955450000000  0.6022620000000 1.0
C      1  0.5335450000000  0.4955450000000  0.3977380000000 1.0
C      1  0.4226990000000  0.4672440000000  0.4434320000000 1.0
C      1  0.5773010000000  0.4672440000000  0.5565680000000 1.0
C      1  0.5772650000000  0.4650280000000  0.4442930000000 1.0
C      1  0.4227350000000  0.4650280000000  0.5557070000000 1.0
C      1  0.5721690000000  0.4280850000000  0.5348840000000 1.0
C      1  0.4278310000000  0.4280850000000  0.4651160000000 1.0
C      1  0.4349630000000  0.4332840000000  0.5273190000000 1.0
C      1  0.5650370000000  0.4332840000000  0.4726810000000 1.0
C      1  0.4679440000000  0.5266460000000  0.3857670000000 1.0
C      1  0.5320560000000  0.5266460000000  0.6142330000000 1.0
C      1  0.5360070000000  0.5203640000000  0.3821540000000 1.0
C      1  0.4639930000000  0.5203640000000  0.6178460000000 1.0
C      1  0.5691210000000  0.5209590000000  0.5204410000000 1.0
C      1  0.4308790000000  0.5209590000000  0.4795590000000 1.0
C      1  0.4304270000000  0.5204320000000  0.5226350000000 1.0
C      1  0.5695730000000  0.5204320000000  0.4773650000000 1.0
C      1  0.5955220000000  0.5524890000000  0.4698420000000 1.0
C      1  0.4044780000000  0.5524890000000  0.5301580000000 1.0
C      1  0.4050110000000  0.5533500000000  0.4732770000000 1.0
C      1  0.5949890000000  0.5533500000000  0.5267230000000 1.0
C      1  0.5303300000000  0.4848240000000  0.5260350000000 1.0
C      1  0.4696700000000  0.4848240000000  0.4739650000000 1.0
C      1  0.4694670000000  0.4840630000000  0.5261570000000 1.0
C      1  0.5305330000000  0.4840630000000  0.4738430000000 1.0
C      1  0.4493400000000  0.4569560000000  0.4062690000000 1.0
C      1  0.5506600000000  0.4569560000000  0.5937310000000 1.0
C      1  0.5500570000000  0.4518200000000  0.4079610000000 1.0
C      1  0.4499430000000  0.4518200000000  0.5920390000000 1.0
C      1  0.5178550000000  0.4228030000000  0.5848730000000 1.0
C      1  0.4821450000000  0.4228030000000  0.4151270000000 1.0
C      1  0.4876800000000  0.4229490000000  0.5823140000000 1.0
C      1  0.5123200000000  0.4229490000000  0.4176860000000 1.0
C      1  0.5379930000000  0.6003080000000  0.4807540000000 1.0
C      1  0.4620070000000  0.6003080000000  0.5192460000000 1.0
C      1  0.4616650000000  0.6016090000000  0.4894390000000 1.0
C      1  0.5383350000000  0.6016090000000  0.5105610000000 1.0
C      1  0.5927600000000  0.4484420000000  0.5154650000000 1.0
C      1  0.4072400000000  0.4484420000000  0.4845350000000 1.0
C      1  0.4093220000000  0.4478020000000  0.5140000000000 1.0
C      1  0.5906780000000  0.4478020000000  0.4860000000000 1.0
C      1  0.5575490000000  0.5041380000000  0.5599320000000 1.0
C      1  0.4424510000000  0.5041380000000  0.4400680000000 1.0
C      1  0.4415930000000  0.5021840000000  0.5608510000000 1.0
C      1  0.5584070000000  0.5021840000000  0.4391490000000 1.0
C      1  0.5158450000000  0.5267590000000  0.4391850000000 1.0
C      1  0.4841550000000  0.5267590000000  0.5608150000000 1.0
C      1  0.4854300000000  0.5276400000000  0.4404200000000 1.0
C      1  0.5145700000000  0.5276400000000  0.5595800000000 1.0
C      1  0.5335040000000  0.3949040000000  0.4891480000000 1.0
C      1  0.4664960000000  0.3949040000000  0.5108520000000 1.0
C      1  0.4686410000000  0.3961940000000  0.4790720000000 1.0
C      1  0.5313590000000  0.3961940000000  0.5209280000000 1.0
C      1  0.5167070000000  0.5897110000000  0.5546610000000 1.0
C      1  0.4832930000000  0.5897110000000  0.4453390000000 1.0
C      1  0.4867450000000  0.5809660000000  0.5631140000000 1.0
C      1  0.5132550000000  0.5809660000000  0.4368860000000 1.0
C      1  0.6017240000000  0.5226350000000  0.4836060000000 1.0
C      1  0.3982760000000  0.5226350000000  0.5163940000000 1.0
C      1  0.3986850000000  0.5231840000000  0.4856390000000 1.0
C      1  0.6013150000000  0.5231840000000  0.5143610000000 1.0
C      1  0.4194100000000  0.5179520000000  0.4282080000000 1.0
C      1  0.5805900000000  0.5179520000000  0.5717920000000 1.0
C      1  0.5817400000000  0.5148780000000  0.4265650000000 1.0
C      1  0.4182600000000  0.5148780000000  0.5734350000000 1.0
C      1  0.6066480000000  0.4970830000000  0.4667940000000 1.0
C      1  0.3933520000000  0.4970830000000  0.5332060000000 1.0
C      1  0.3938600000000  0.4986190000000  0.4674190000000 1.0
C      1  0.6061400000000  0.4986190000000  0.5325810000000 1.0
C      1  0.5957350000000  0.4690400000000  0.4219730000000 1.0
C      1  0.4042650000000  0.4690400000000  0.5780270000000 1.0
C      1  0.4045410000000  0.4728350000000  0.4211320000000 1.0
C      1  0.5954590000000  0.4728350000000  0.5788680000000 1.0
C      1  0.5582160000000  0.4757780000000  0.3929050000000 1.0
C      1  0.4417840000000  0.4757780000000  0.6070950000000 1.0
C      1  0.4421470000000  0.4817200000000  0.3920000000000 1.0
C      1  0.5578530000000  0.4817200000000  0.6080000000000 1.0
END
