TITL C-862128-1543-851 -0.0060303788943174 125000 -1141.14404479624 0 0 198 (D3) n - 1
REM
REM in /home/nfs/bkarasulu/CARBON/AIRSS/Generating-Clusters/TERSOFF/Higher-Symm/FIRE-HFTN
REM
REM
REM
REM
REM
REM ./C.cell (b20cbc046b6831c77cfcea5457e17084)
REM AIRSS Version 0.9.1 bugfix July 2018 build 013d7b7c2542+ Fri, 06 Jul 2018 19:26:36 +0100
REM compiler GCC version 9.2.1 20190827 (Red Hat 9.2.1-1)
REM options -cpp -mtune=generic -march=x86-64 -g -O0 -fpre-include=/usr/include/finclude/math-vector-fortran.h
REM seed 960417256 -1656054621 1638457315 -302515087 609414984 -1272808794 1151169273 1826741739 -195515405 2025541867 1782767067 -104557909 1896123131 167614536 -2126468246 316885257 1462106573 -51489166 313220315 142238997 536519118 -80128990 -226029387 1378215930 2090132814 -271908754 2099030161 107486751 -1251042331 1896259983 -381490529 726782482 -1223094860
REM
CELL 1.54180   50.00000   50.00000   50.00000   90.00000   90.00000   90.00000
LATT -1
SFAC C  
C      1  0.5087990000000  0.6000280000000  0.4416830000000 1.0
C      1  0.5822270000000  0.4423660000000  0.4416820000000 1.0
C      1  0.4089730000000  0.4576070000000  0.4416820000000 1.0
C      1  0.5088000000000  0.3999720000000  0.5583170000000 1.0
C      1  0.5822270000000  0.5576340000000  0.5583180000000 1.0
C      1  0.4089740000000  0.5423930000000  0.5583180000000 1.0
C      1  0.3917030000000  0.4576090000000  0.5007550000000 1.0
C      1  0.5174370000000  0.6149840000000  0.5007560000000 1.0
C      1  0.5908610000000  0.4274070000000  0.5007550000000 1.0
C      1  0.3917030000000  0.5423910000000  0.4992450000000 1.0
C      1  0.5174370000000  0.3850160000000  0.4992430000000 1.0
C      1  0.5908610000000  0.5725930000000  0.4992450000000 1.0
C      1  0.5795660000000  0.5368240000000  0.4487810000000 1.0
C      1  0.4921070000000  0.4126820000000  0.4487800000000 1.0
C      1  0.4283260000000  0.5504950000000  0.4487810000000 1.0
C      1  0.5795660000000  0.4631760000000  0.5512190000000 1.0
C      1  0.4921070000000  0.5873180000000  0.5512200000000 1.0
C      1  0.4283270000000  0.4495050000000  0.5512190000000 1.0
C      1  0.5421660000000  0.5970010000000  0.5096140000000 1.0
C      1  0.5629220000000  0.4149830000000  0.5096130000000 1.0
C      1  0.3949120000000  0.4880160000000  0.5096140000000 1.0
C      1  0.5421660000000  0.4029990000000  0.4903860000000 1.0
C      1  0.5629220000000  0.5850170000000  0.4903870000000 1.0
C      1  0.3949120000000  0.5119840000000  0.4903870000000 1.0
C      1  0.5373710000000  0.5414570000000  0.6110280000000 1.0
C      1  0.5172180000000  0.4469060000000  0.6110270000000 1.0
C      1  0.4454110000000  0.5116340000000  0.6110270000000 1.0
C      1  0.5373710000000  0.4585430000000  0.3889720000000 1.0
C      1  0.5172180000000  0.5530940000000  0.3889730000000 1.0
C      1  0.4454110000000  0.4883660000000  0.3889730000000 1.0
C      1  0.5803270000000  0.4348750000000  0.5630630000000 1.0
C      1  0.4034370000000  0.4629960000000  0.5630630000000 1.0
C      1  0.5162360000000  0.6021270000000  0.5630640000000 1.0
C      1  0.5803270000000  0.5651250000000  0.4369370000000 1.0
C      1  0.4034370000000  0.5370040000000  0.4369370000000 1.0
C      1  0.5162360000000  0.3978730000000  0.4369360000000 1.0
C      1  0.5528800000000  0.5625770000000  0.5997350000000 1.0
C      1  0.5277540000000  0.4229150000000  0.5997340000000 1.0
C      1  0.4193660000000  0.5145050000000  0.5997350000000 1.0
C      1  0.5528790000000  0.4374230000000  0.4002650000000 1.0
C      1  0.5277540000000  0.5770850000000  0.4002660000000 1.0
C      1  0.4193660000000  0.4854950000000  0.4002650000000 1.0
C      1  0.4368870000000  0.4249530000000  0.4128240000000 1.0
C      1  0.4665640000000  0.5921820000000  0.4128260000000 1.0
C      1  0.5965500000000  0.4828670000000  0.4128250000000 1.0
C      1  0.4368870000000  0.5750470000000  0.5871760000000 1.0
C      1  0.4665640000000  0.4078180000000  0.5871740000000 1.0
C      1  0.5965500000000  0.5171330000000  0.5871750000000 1.0
C      1  0.4659730000000  0.4868750000000  0.5649780000000 1.0
C      1  0.5056480000000  0.5360300000000  0.5649780000000 1.0
C      1  0.5283790000000  0.4770930000000  0.5649780000000 1.0
C      1  0.4659730000000  0.5131250000000  0.4350220000000 1.0
C      1  0.5056480000000  0.4639700000000  0.4350220000000 1.0
C      1  0.5283790000000  0.5229070000000  0.4350220000000 1.0
C      1  0.4423970000000  0.4004590000000  0.4597240000000 1.0
C      1  0.4425960000000  0.5996570000000  0.4597260000000 1.0
C      1  0.6150070000000  0.4998860000000  0.4597250000000 1.0
C      1  0.4423970000000  0.5995410000000  0.5402760000000 1.0
C      1  0.4425960000000  0.4003430000000  0.5402740000000 1.0
C      1  0.6150070000000  0.5001150000000  0.5402750000000 1.0
C      1  0.4534810000000  0.4534800000000  0.5314690000000 1.0
C      1  0.4829720000000  0.5635470000000  0.5314700000000 1.0
C      1  0.5635470000000  0.4829730000000  0.5314690000000 1.0
C      1  0.4534810000000  0.5465200000000  0.4685310000000 1.0
C      1  0.4829720000000  0.4364530000000  0.4685300000000 1.0
C      1  0.5635470000000  0.5170270000000  0.4685310000000 1.0
C      1  0.5640130000000  0.5278780000000  0.5200120000000 1.0
C      1  0.4921370000000  0.4306230000000  0.5200110000000 1.0
C      1  0.4438500000000  0.5414980000000  0.5200120000000 1.0
C      1  0.5640130000000  0.4721220000000  0.4799880000000 1.0
C      1  0.4921370000000  0.5693770000000  0.4799890000000 1.0
C      1  0.4438500000000  0.4585020000000  0.4799880000000 1.0
C      1  0.4585230000000  0.4379240000000  0.3968000000000 1.0
C      1  0.4669780000000  0.5669590000000  0.3968010000000 1.0
C      1  0.5744990000000  0.4951200000000  0.3968000000000 1.0
C      1  0.4585230000000  0.5620760000000  0.6032000000000 1.0
C      1  0.4669780000000  0.4330410000000  0.6031990000000 1.0
C      1  0.5744990000000  0.5048800000000  0.6032000000000 1.0
C      1  0.4237340000000  0.4239020000000  0.5316490000000 1.0
C      1  0.4722310000000  0.6040970000000  0.5316500000000 1.0
C      1  0.6040360000000  0.4720000000000  0.5316490000000 1.0
C      1  0.4237340000000  0.5760980000000  0.4683510000000 1.0
C      1  0.4722310000000  0.3959030000000  0.4683500000000 1.0
C      1  0.6040360000000  0.5280000000000  0.4683510000000 1.0
C      1  0.5857780000000  0.4576010000000  0.4666880000000 1.0
C      1  0.4203920000000  0.4469140000000  0.4666880000000 1.0
C      1  0.4938300000000  0.5954860000000  0.4666890000000 1.0
C      1  0.5857780000000  0.5423990000000  0.5333120000000 1.0
C      1  0.4203920000000  0.5530850000000  0.5333120000000 1.0
C      1  0.4938300000000  0.4045140000000  0.5333110000000 1.0
C      1  0.4805550000000  0.5189230000000  0.4052160000000 1.0
C      1  0.5261100000000  0.5073790000000  0.4052160000000 1.0
C      1  0.4933350000000  0.4737000000000  0.4052150000000 1.0
C      1  0.4805550000000  0.4810770000000  0.5947840000000 1.0
C      1  0.5261100000000  0.4926210000000  0.5947840000000 1.0
C      1  0.4933350000000  0.5263000000000  0.5947850000000 1.0
C      1  0.4745350000000  0.5711240000000  0.5037510000000 1.0
C      1  0.5743280000000  0.4864910000000  0.5037500000000 1.0
C      1  0.4511370000000  0.4423840000000  0.5037500000000 1.0
C      1  0.4745350000000  0.4288760000000  0.4962490000000 1.0
C      1  0.5743280000000  0.5135090000000  0.4962500000000 1.0
C      1  0.4511370000000  0.5576160000000  0.4962500000000 1.0
C      1  0.5488130000000  0.5102300000000  0.5433330000000 1.0
C      1  0.4844530000000  0.4526110000000  0.5433320000000 1.0
C      1  0.4667340000000  0.5371580000000  0.5433330000000 1.0
C      1  0.5488130000000  0.4897710000000  0.4566670000000 1.0
C      1  0.4844530000000  0.5473890000000  0.4566680000000 1.0
C      1  0.4667340000000  0.4628420000000  0.4566670000000 1.0
C      1  0.4944980000000  0.5644430000000  0.5718470000000 1.0
C      1  0.5585610000000  0.4725420000000  0.5718460000000 1.0
C      1  0.4469410000000  0.4630130000000  0.5718460000000 1.0
C      1  0.4944980000000  0.4355570000000  0.4281530000000 1.0
C      1  0.5585610000000  0.5274580000000  0.4281540000000 1.0
C      1  0.4469410000000  0.5369870000000  0.4281540000000 1.0
C      1  0.5391380000000  0.4609090000000  0.4944900000000 1.0
C      1  0.4465770000000  0.4856510000000  0.4944910000000 1.0
C      1  0.5142850000000  0.5534400000000  0.4944910000000 1.0
C      1  0.5391380000000  0.5390910000000  0.5055090000000 1.0
C      1  0.4465770000000  0.5143490000000  0.5055090000000 1.0
C      1  0.5142850000000  0.4465600000000  0.5055090000000 1.0
C      1  0.5281830000000  0.4200810000000  0.5707630000000 1.0
C      1  0.4166970000000  0.5155510000000  0.5707640000000 1.0
C      1  0.5551200000000  0.5643660000000  0.5707640000000 1.0
C      1  0.5281830000000  0.5799190000000  0.4292370000000 1.0
C      1  0.4166970000000  0.4844490000000  0.4292360000000 1.0
C      1  0.5551200000000  0.4356340000000  0.4292360000000 1.0
C      1  0.5578420000000  0.4158620000000  0.5596240000000 1.0
C      1  0.3982140000000  0.4919750000000  0.5596250000000 1.0
C      1  0.5439440000000  0.5921610000000  0.5596250000000 1.0
C      1  0.5578420000000  0.5841380000000  0.4403760000000 1.0
C      1  0.3982130000000  0.5080250000000  0.4403750000000 1.0
C      1  0.5439440000000  0.4078390000000  0.4403750000000 1.0
C      1  0.5509810000000  0.5749820000000  0.4670130000000 1.0
C      1  0.5394460000000  0.4183590000000  0.4670120000000 1.0
C      1  0.4095730000000  0.5066600000000  0.4670130000000 1.0
C      1  0.5509810000000  0.4250180000000  0.5329870000000 1.0
C      1  0.5394460000000  0.5816410000000  0.5329880000000 1.0
C      1  0.4095730000000  0.4933400000000  0.5329880000000 1.0
C      1  0.6163000000000  0.5025430000000  0.5703550000000 1.0
C      1  0.4440530000000  0.3980090000000  0.5703550000000 1.0
C      1  0.4396470000000  0.5994460000000  0.5703560000000 1.0
C      1  0.6163000000000  0.4974570000000  0.4296450000000 1.0
C      1  0.4440530000000  0.6019910000000  0.4296460000000 1.0
C      1  0.4396470000000  0.4005540000000  0.4296440000000 1.0
C      1  0.4564240000000  0.5155750000000  0.3856090000000 1.0
C      1  0.5352760000000  0.5299520000000  0.3856090000000 1.0
C      1  0.5083000000000  0.4544760000000  0.3856080000000 1.0
C      1  0.4564240000000  0.4844250000000  0.6143910000000 1.0
C      1  0.5352760000000  0.4700480000000  0.6143910000000 1.0
C      1  0.5083010000000  0.5455240000000  0.6143920000000 1.0
C      1  0.4754580000000  0.4807020000000  0.5082610000000 1.0
C      1  0.4955580000000  0.5309030000000  0.5082610000000 1.0
C      1  0.5289840000000  0.4883950000000  0.5082610000000 1.0
C      1  0.4754580000000  0.5192980000000  0.4917390000000 1.0
C      1  0.4955580000000  0.4690970000000  0.4917390000000 1.0
C      1  0.5289840000000  0.5116050000000  0.4917390000000 1.0
C      1  0.4847470000000  0.6118510000000  0.5042860000000 1.0
C      1  0.6044920000000  0.4572840000000  0.5042850000000 1.0
C      1  0.4107610000000  0.4308650000000  0.5042850000000 1.0
C      1  0.4847470000000  0.3881490000000  0.4957140000000 1.0
C      1  0.6044920000000  0.5427160000000  0.4957150000000 1.0
C      1  0.4107610000000  0.5691350000000  0.4957150000000 1.0
C      1  0.5202110000000  0.5064020000000  0.4613050000000 1.0
C      1  0.4954380000000  0.4792970000000  0.4613050000000 1.0
C      1  0.4843510000000  0.5143030000000  0.4613050000000 1.0
C      1  0.5202110000000  0.4935980000000  0.5386950000000 1.0
C      1  0.4954380000000  0.5207030000000  0.5386950000000 1.0
C      1  0.4843510000000  0.4856970000000  0.5386950000000 1.0
C      1  0.5157550000000  0.4494420000000  0.5578070000000 1.0
C      1  0.4483380000000  0.5116340000000  0.5578080000000 1.0
C      1  0.5359070000000  0.5389220000000  0.5578080000000 1.0
C      1  0.5157550000000  0.5505580000000  0.4421930000000 1.0
C      1  0.4483380000000  0.4883660000000  0.4421920000000 1.0
C      1  0.5359070000000  0.4610780000000  0.4421920000000 1.0
C      1  0.4888040000000  0.5686440000000  0.6005970000000 1.0
C      1  0.5650460000000  0.4753730000000  0.6005970000000 1.0
C      1  0.4461500000000  0.4559800000000  0.6005960000000 1.0
C      1  0.4888040000000  0.4313560000000  0.3994030000000 1.0
C      1  0.5650460000000  0.5246270000000  0.3994030000000 1.0
C      1  0.4461500000000  0.5440200000000  0.3994040000000 1.0
C      1  0.4362820000000  0.4980480000000  0.4682190000000 1.0
C      1  0.5301680000000  0.5561580000000  0.4682200000000 1.0
C      1  0.5335500000000  0.4457950000000  0.4682190000000 1.0
C      1  0.4362820000000  0.5019520000000  0.5317810000000 1.0
C      1  0.5301690000000  0.4438420000000  0.5317800000000 1.0
C      1  0.5335500000000  0.5542050000000  0.5317810000000 1.0
C      1  0.6116860000000  0.4721780000000  0.4755950000000 1.0
C      1  0.4200620000000  0.4171880000000  0.4755950000000 1.0
C      1  0.4682520000000  0.6106350000000  0.4755960000000 1.0
C      1  0.6116870000000  0.5278220000000  0.5244050000000 1.0
C      1  0.4200620000000  0.5828120000000  0.5244050000000 1.0
C      1  0.4682520000000  0.3893650000000  0.5244040000000 1.0
C      1  0.5456590000000  0.5147140000000  0.6023810000000 1.0
C      1  0.4899140000000  0.4531000000000  0.6023800000000 1.0
C      1  0.4644270000000  0.5321830000000  0.6023810000000 1.0
C      1  0.5456590000000  0.4852860000000  0.3976190000000 1.0
C      1  0.4899140000000  0.5469000000000  0.3976200000000 1.0
C      1  0.4644270000000  0.4678170000000  0.3976190000000 1.0
END
