TITL C-862134-6730-25 -10543.9375653275 125000 -1144.92452594155 0 0 192 (C1) n - 1
REM
REM in /home/nfs/bkarasulu/CARBON/AIRSS/Generating-Clusters/TERSOFF/Higher-Symm/FIRE-HFTN
REM
REM
REM
REM
REM
REM ./C.cell (b20cbc046b6831c77cfcea5457e17084)
REM AIRSS Version 0.9.1 bugfix July 2018 build 013d7b7c2542+ Fri, 06 Jul 2018 19:26:36 +0100
REM compiler GCC version 9.2.1 20190827 (Red Hat 9.2.1-1)
REM options -cpp -mtune=generic -march=x86-64 -g -O0 -fpre-include=/usr/include/finclude/math-vector-fortran.h
REM seed -1246184542 1232027708 -177094895 523165755 1085074877 -2043392161 1652252756 724358143 1645285611 -1845306800 -1790955002 -71434477 -200706270 -1329398265 371440060 -210581004 705606652 -71863986 2012412320 592411194 179351685 -1839504506 782569285 -571350380 -1130779574 89298882 2031941035 -1469401109 590699466 1813548075 -561714504 -347198127 -2031560264
REM
CELL 1.54180   50.00000   50.00000   50.00000   90.00000   90.00000   90.00000
LATT -1
SFAC C  
C      1  0.4065840000000  0.5601720000000  0.4230320000000 1.0
C      1  0.3925700000000  0.4881360000000  0.5336440000000 1.0
C      1  0.5287440000000  0.4543870000000  0.4454380000000 1.0
C      1  0.3946210000000  0.5775870000000  0.5178240000000 1.0
C      1  0.4973450000000  0.5327070000000  0.3876650000000 1.0
C      1  0.5292660000000  0.4921680000000  0.3830640000000 1.0
C      1  0.5417260000000  0.4478160000000  0.5649170000000 1.0
C      1  0.5327820000000  0.4760500000000  0.5643130000000 1.0
C      1  0.5666240000000  0.5320410000000  0.4182200000000 1.0
C      1  0.4816670000000  0.4742260000000  0.3975510000000 1.0
C      1  0.5514630000000  0.4568080000000  0.5214810000000 1.0
C      1  0.4598510000000  0.5477460000000  0.4236790000000 1.0
C      1  0.3749090000000  0.5189690000000  0.4775130000000 1.0
C      1  0.4795890000000  0.6147370000000  0.4892760000000 1.0
C      1  0.5864780000000  0.4239570000000  0.5533630000000 1.0
C      1  0.4437610000000  0.5348270000000  0.4844620000000 1.0
C      1  0.5592020000000  0.4876140000000  0.5701790000000 1.0
C      1  0.4642000000000  0.4981800000000  0.4050270000000 1.0
C      1  0.5669790000000  0.5942940000000  0.5099020000000 1.0
C      1  0.5116980000000  0.5627370000000  0.4228050000000 1.0
C      1  0.5838930000000  0.4096170000000  0.4205650000000 1.0
C      1  0.4042630000000  0.5477230000000  0.3970670000000 1.0
C      1  0.5615690000000  0.5215500000000  0.4453780000000 1.0
C      1  0.4020580000000  0.5673120000000  0.5446880000000 1.0
C      1  0.4474340000000  0.4750420000000  0.4929610000000 1.0
C      1  0.4408580000000  0.5235610000000  0.5098680000000 1.0
C      1  0.5615960000000  0.5284620000000  0.5616950000000 1.0
C      1  0.5123460000000  0.3948080000000  0.4274470000000 1.0
C      1  0.5163380000000  0.4842600000000  0.5418950000000 1.0
C      1  0.4613980000000  0.4441250000000  0.4554880000000 1.0
C      1  0.4404940000000  0.3829060000000  0.4828690000000 1.0
C      1  0.5842160000000  0.4715400000000  0.5730520000000 1.0
C      1  0.5607390000000  0.4806660000000  0.4732570000000 1.0
C      1  0.5402020000000  0.6428020000000  0.4543400000000 1.0
C      1  0.5692200000000  0.4984330000000  0.4968670000000 1.0
C      1  0.6058030000000  0.5421310000000  0.5026510000000 1.0
C      1  0.4021780000000  0.4305220000000  0.5482370000000 1.0
C      1  0.5089310000000  0.5060150000000  0.4988970000000 1.0
C      1  0.4753440000000  0.4982620000000  0.4647550000000 1.0
C      1  0.4924960000000  0.4916470000000  0.4429030000000 1.0
C      1  0.4019360000000  0.4496380000000  0.4740630000000 1.0
C      1  0.4274050000000  0.5816990000000  0.4775600000000 1.0
C      1  0.4086180000000  0.4932850000000  0.5833200000000 1.0
C      1  0.5118040000000  0.4694600000000  0.3906010000000 1.0
C      1  0.5604220000000  0.4750710000000  0.6190500000000 1.0
C      1  0.4867130000000  0.4904390000000  0.4899050000000 1.0
C      1  0.5808920000000  0.4243410000000  0.4837710000000 1.0
C      1  0.4298870000000  0.4068270000000  0.4704350000000 1.0
C      1  0.4123940000000  0.4997590000000  0.4148840000000 1.0
C      1  0.5515760000000  0.5022660000000  0.5188250000000 1.0
C      1  0.5959780000000  0.4352430000000  0.4126540000000 1.0
C      1  0.5873790000000  0.5610610000000  0.4646230000000 1.0
C      1  0.5081420000000  0.5387630000000  0.4389970000000 1.0
C      1  0.5979520000000  0.4917170000000  0.5545160000000 1.0
C      1  0.6141580000000  0.4300630000000  0.5438890000000 1.0
C      1  0.5242780000000  0.5203730000000  0.3901200000000 1.0
C      1  0.4678600000000  0.3796520000000  0.4916140000000 1.0
C      1  0.6176490000000  0.5141620000000  0.4525230000000 1.0
C      1  0.6184030000000  0.4265360000000  0.5143830000000 1.0
C      1  0.5412700000000  0.4936090000000  0.6076730000000 1.0
C      1  0.3750070000000  0.4891370000000  0.4687810000000 1.0
C      1  0.4904400000000  0.3826930000000  0.4434410000000 1.0
C      1  0.4518770000000  0.4207050000000  0.5649470000000 1.0
C      1  0.5009990000000  0.5858730000000  0.4367040000000 1.0
C      1  0.6113790000000  0.5056080000000  0.4808920000000 1.0
C      1  0.4399370000000  0.4914030000000  0.4209090000000 1.0
C      1  0.4998380000000  0.4637770000000  0.4399610000000 1.0
C      1  0.4179420000000  0.5928740000000  0.5040810000000 1.0
C      1  0.4806080000000  0.4535300000000  0.4187730000000 1.0
C      1  0.5557710000000  0.4156090000000  0.4269370000000 1.0
C      1  0.6241480000000  0.4392860000000  0.4073770000000 1.0
C      1  0.4244220000000  0.4367190000000  0.5657570000000 1.0
C      1  0.5832430000000  0.4819180000000  0.4295950000000 1.0
C      1  0.4891570000000  0.5013430000000  0.6205340000000 1.0
C      1  0.5220100000000  0.5882120000000  0.5863310000000 1.0
C      1  0.5411810000000  0.5222690000000  0.6140250000000 1.0
C      1  0.4808510000000  0.4437700000000  0.5090010000000 1.0
C      1  0.6229370000000  0.4531180000000  0.4949930000000 1.0
C      1  0.3784820000000  0.5323100000000  0.5033500000000 1.0
C      1  0.4832940000000  0.5979420000000  0.5485180000000 1.0
C      1  0.5458740000000  0.5391820000000  0.3989730000000 1.0
C      1  0.5520610000000  0.5271830000000  0.5336830000000 1.0
C      1  0.4440770000000  0.4201810000000  0.4473530000000 1.0
C      1  0.5715520000000  0.4441730000000  0.5675920000000 1.0
C      1  0.4572900000000  0.6194380000000  0.4717460000000 1.0
C      1  0.4544920000000  0.4533590000000  0.5108910000000 1.0
C      1  0.3983960000000  0.5386390000000  0.5513520000000 1.0
C      1  0.6079530000000  0.5420590000000  0.5516300000000 1.0
C      1  0.5645280000000  0.4931760000000  0.4476360000000 1.0
C      1  0.5969820000000  0.4839220000000  0.5254880000000 1.0
C      1  0.5626520000000  0.5319210000000  0.6316870000000 1.0
C      1  0.4847540000000  0.5852950000000  0.4915390000000 1.0
C      1  0.4346680000000  0.4957310000000  0.5108950000000 1.0
C      1  0.5330260000000  0.5643220000000  0.4040680000000 1.0
C      1  0.4745590000000  0.5802220000000  0.5711810000000 1.0
C      1  0.3866740000000  0.4858780000000  0.5633510000000 1.0
C      1  0.4451310000000  0.4597880000000  0.5374610000000 1.0
C      1  0.5214450000000  0.6240210000000  0.4660050000000 1.0
C      1  0.4379520000000  0.5435000000000  0.5844000000000 1.0
C      1  0.4240990000000  0.5537730000000  0.4731550000000 1.0
C      1  0.4120560000000  0.5285620000000  0.5763560000000 1.0
C      1  0.6196770000000  0.4845460000000  0.5029770000000 1.0
C      1  0.5417890000000  0.4553710000000  0.4742480000000 1.0
C      1  0.4246120000000  0.4840440000000  0.5363460000000 1.0
C      1  0.4462050000000  0.5959630000000  0.4592990000000 1.0
C      1  0.4981670000000  0.4379080000000  0.5861180000000 1.0
C      1  0.4532050000000  0.5179160000000  0.4628880000000 1.0
C      1  0.5118560000000  0.5211530000000  0.6279030000000 1.0
C      1  0.4624770000000  0.6086570000000  0.5307500000000 1.0
C      1  0.5063070000000  0.4620290000000  0.6014860000000 1.0
C      1  0.5684800000000  0.5787170000000  0.5558480000000 1.0
C      1  0.4913970000000  0.3802460000000  0.4727040000000 1.0
C      1  0.5760090000000  0.4570960000000  0.4160480000000 1.0
C      1  0.5412170000000  0.5348040000000  0.5852480000000 1.0
C      1  0.5525680000000  0.4263580000000  0.4789760000000 1.0
C      1  0.5264920000000  0.4900500000000  0.5156090000000 1.0
C      1  0.3890180000000  0.5193940000000  0.5291800000000 1.0
C      1  0.4126240000000  0.5434180000000  0.4467040000000 1.0
C      1  0.4188150000000  0.4600220000000  0.4525470000000 1.0
C      1  0.4990940000000  0.5438050000000  0.4658400000000 1.0
C      1  0.5077390000000  0.3905720000000  0.5168870000000 1.0
C      1  0.4683500000000  0.4333120000000  0.5869640000000 1.0
C      1  0.6118810000000  0.5451480000000  0.4496590000000 1.0
C      1  0.5742630000000  0.4083820000000  0.5311010000000 1.0
C      1  0.5465810000000  0.3979780000000  0.5310300000000 1.0
C      1  0.5745870000000  0.5707450000000  0.5278540000000 1.0
C      1  0.6002920000000  0.5558760000000  0.5270640000000 1.0
C      1  0.4923820000000  0.4723960000000  0.6248190000000 1.0
C      1  0.5157950000000  0.3886120000000  0.4870110000000 1.0
C      1  0.4505450000000  0.4542170000000  0.6001290000000 1.0
C      1  0.5379170000000  0.3981090000000  0.4411200000000 1.0
C      1  0.5536440000000  0.5507050000000  0.5176390000000 1.0
C      1  0.5201950000000  0.4852200000000  0.5886960000000 1.0
C      1  0.4077420000000  0.4222920000000  0.4827350000000 1.0
C      1  0.5011330000000  0.5115300000000  0.5815950000000 1.0
C      1  0.3828960000000  0.4675520000000  0.4861960000000 1.0
C      1  0.4977160000000  0.5732800000000  0.5136870000000 1.0
C      1  0.4702340000000  0.5489560000000  0.5434740000000 1.0
C      1  0.4242880000000  0.4382460000000  0.4324380000000 1.0
C      1  0.4457370000000  0.5690850000000  0.5710180000000 1.0
C      1  0.5795460000000  0.4619520000000  0.5148660000000 1.0
C      1  0.5416200000000  0.5774200000000  0.4716000000000 1.0
C      1  0.5691240000000  0.5879930000000  0.4790300000000 1.0
C      1  0.4358970000000  0.5973950000000  0.5295660000000 1.0
C      1  0.4232550000000  0.4604710000000  0.5876990000000 1.0
C      1  0.5922470000000  0.4499600000000  0.4913390000000 1.0
C      1  0.5083160000000  0.5879500000000  0.5355290000000 1.0
C      1  0.5383160000000  0.6045350000000  0.5292160000000 1.0
C      1  0.3786320000000  0.4691060000000  0.5152840000000 1.0
C      1  0.5029340000000  0.5461080000000  0.5126170000000 1.0
C      1  0.4409230000000  0.5307520000000  0.4392880000000 1.0
C      1  0.4446850000000  0.5391980000000  0.5339980000000 1.0
C      1  0.4744610000000  0.5263650000000  0.4046650000000 1.0
C      1  0.4813990000000  0.5670410000000  0.4687120000000 1.0
C      1  0.4984200000000  0.5688710000000  0.5864520000000 1.0
C      1  0.5187400000000  0.4144370000000  0.5363310000000 1.0
C      1  0.5061090000000  0.5123900000000  0.4284680000000 1.0
C      1  0.5464640000000  0.4441140000000  0.4216130000000 1.0
C      1  0.5912290000000  0.5208000000000  0.5626680000000 1.0
C      1  0.4325200000000  0.4940500000000  0.5642600000000 1.0
C      1  0.4979790000000  0.4625210000000  0.4965380000000 1.0
C      1  0.5372090000000  0.4025200000000  0.4703600000000 1.0
C      1  0.6100880000000  0.4945890000000  0.4307120000000 1.0
C      1  0.5870580000000  0.5215450000000  0.4894360000000 1.0
C      1  0.5246480000000  0.4417990000000  0.4004140000000 1.0
C      1  0.4884650000000  0.4254740000000  0.5299880000000 1.0
C      1  0.5024070000000  0.6317240000000  0.4857840000000 1.0
C      1  0.4455660000000  0.4686730000000  0.4641300000000 1.0
C      1  0.4772900000000  0.3852660000000  0.5205880000000 1.0
C      1  0.4798340000000  0.4264310000000  0.4109080000000 1.0
C      1  0.4651680000000  0.4086320000000  0.5395620000000 1.0
C      1  0.5225370000000  0.5632940000000  0.5525280000000 1.0
C      1  0.3905900000000  0.5239070000000  0.4511550000000 1.0
C      1  0.5413950000000  0.5894510000000  0.5613460000000 1.0
C      1  0.4684580000000  0.5771930000000  0.4425910000000 1.0
C      1  0.5427980000000  0.5488150000000  0.4876140000000 1.0
C      1  0.3903670000000  0.4960110000000  0.4367450000000 1.0
C      1  0.4073860000000  0.5190340000000  0.3931340000000 1.0
C      1  0.5923030000000  0.4093950000000  0.5067120000000 1.0
C      1  0.4737040000000  0.5078940000000  0.5939970000000 1.0
C      1  0.3769030000000  0.5611380000000  0.5028560000000 1.0
C      1  0.5057890000000  0.4154500000000  0.4062240000000 1.0
C      1  0.4570820000000  0.5309850000000  0.6014950000000 1.0
C      1  0.5208700000000  0.4270790000000  0.5655230000000 1.0
C      1  0.5149050000000  0.5340740000000  0.4890280000000 1.0
C      1  0.4267370000000  0.5810280000000  0.5523360000000 1.0
C      1  0.5280600000000  0.4615230000000  0.5009340000000 1.0
C      1  0.5207160000000  0.5957950000000  0.4583090000000 1.0
C      1  0.5679380000000  0.5375200000000  0.4702230000000 1.0
C      1  0.4585110000000  0.4876780000000  0.5760330000000 1.0
C      1  0.4659540000000  0.4645110000000  0.5589890000000 1.0
C      1  0.5126380000000  0.5415010000000  0.5757800000000 1.0
END
