TITL C-862127-1500-1123 303.938266135221 125000 -919.321488613623 0 0 176 (C1) n - 1
REM
REM in /home/nfs/bkarasulu/CARBON/AIRSS/Generating-Clusters/TERSOFF/Higher-Symm/FIRE-HFTN
REM
REM
REM
REM
REM
REM ./C.cell (b20cbc046b6831c77cfcea5457e17084)
REM AIRSS Version 0.9.1 bugfix July 2018 build 013d7b7c2542+ Fri, 06 Jul 2018 19:26:36 +0100
REM compiler GCC version 9.2.1 20190827 (Red Hat 9.2.1-1)
REM options -cpp -mtune=generic -march=x86-64 -g -O0 -fpre-include=/usr/include/finclude/math-vector-fortran.h
REM seed -664614991 -1016167137 -1380081787 -602943560 1540482233 -1750453754 -1935351087 -1908945223 1094413610 -1260873901 -1968088526 804096326 -1818033849 -1637748161 -2077586925 -1537382273 311322864 213153026 -681676901 -1418388154 -769315337 1225422205 -485050502 -210932768 -1852130892 118043794 -37635640 -114399658 -1279329649 -808659927 292361642 2004700607 -1123729591
REM
CELL 1.54180   50.00000   50.00000   50.00000   90.00000   90.00000   90.00000
LATT -1
SFAC C  
C      1  0.4953660000000  0.4286610000000  0.5552730000000 1.0
C      1  0.5056030000000  0.4867980000000  0.5895170000000 1.0
C      1  0.4946600000000  0.5553900000000  0.5712760000000 1.0
C      1  0.5031690000000  0.5901190000000  0.5103850000000 1.0
C      1  0.4950600000000  0.5716180000000  0.4441830000000 1.0
C      1  0.5041670000000  0.5113010000000  0.4102510000000 1.0
C      1  0.4955720000000  0.4446250000000  0.4289310000000 1.0
C      1  0.5041480000000  0.4100100000000  0.4890960000000 1.0
C      1  0.4388430000000  0.4271390000000  0.5435730000000 1.0
C      1  0.5613660000000  0.4778880000000  0.5861790000000 1.0
C      1  0.4379180000000  0.5444460000000  0.5727430000000 1.0
C      1  0.5597410000000  0.5856090000000  0.5216780000000 1.0
C      1  0.4385400000000  0.5743420000000  0.4551750000000 1.0
C      1  0.5604800000000  0.5220050000000  0.4146440000000 1.0
C      1  0.4388950000000  0.4565330000000  0.4274120000000 1.0
C      1  0.5605940000000  0.4143400000000  0.4782860000000 1.0
C      1  0.4607040000000  0.5567820000000  0.4632150000000 1.0
C      1  0.5392840000000  0.5143030000000  0.4330330000000 1.0
C      1  0.4618240000000  0.4643210000000  0.4442840000000 1.0
C      1  0.5393310000000  0.4326690000000  0.4860140000000 1.0
C      1  0.4616660000000  0.4440940000000  0.5355530000000 1.0
C      1  0.5410640000000  0.4861690000000  0.5670770000000 1.0
C      1  0.4604160000000  0.5368910000000  0.5555450000000 1.0
C      1  0.5381690000000  0.5673290000000  0.5144350000000 1.0
C      1  0.5141010000000  0.5626780000000  0.5491460000000 1.0
C      1  0.4830400000000  0.5799810000000  0.4901710000000 1.0
C      1  0.5153220000000  0.5503810000000  0.4371240000000 1.0
C      1  0.4843990000000  0.4910280000000  0.4208290000000 1.0
C      1  0.5157570000000  0.4372920000000  0.4502500000000 1.0
C      1  0.4842380000000  0.4204730000000  0.5091730000000 1.0
C      1  0.5161400000000  0.4492540000000  0.5628830000000 1.0
C      1  0.4874700000000  0.5081670000000  0.5814750000000 1.0
C      1  0.5928500000000  0.4500250000000  0.5577170000000 1.0
C      1  0.4071370000000  0.5052250000000  0.5676840000000 1.0
C      1  0.5935160000000  0.5569010000000  0.5455290000000 1.0
C      1  0.4063470000000  0.5708290000000  0.4934810000000 1.0
C      1  0.5919040000000  0.5474650000000  0.4445800000000 1.0
C      1  0.4068110000000  0.4946830000000  0.4319330000000 1.0
C      1  0.5929130000000  0.4441420000000  0.4535120000000 1.0
C      1  0.4073440000000  0.4309750000000  0.5049230000000 1.0
C      1  0.4710440000000  0.5760070000000  0.5665180000000 1.0
C      1  0.5266660000000  0.6017700000000  0.4933450000000 1.0
C      1  0.4716500000000  0.5673970000000  0.4240860000000 1.0
C      1  0.5273290000000  0.4939010000000  0.3983330000000 1.0
C      1  0.4717350000000  0.4249650000000  0.4334920000000 1.0
C      1  0.5273130000000  0.3978750000000  0.5062270000000 1.0
C      1  0.4716180000000  0.4337580000000  0.5750220000000 1.0
C      1  0.5279030000000  0.5050910000000  0.6021790000000 1.0
C      1  0.5308580000000  0.5605660000000  0.4863790000000 1.0
C      1  0.4685900000000  0.5318710000000  0.4489290000000 1.0
C      1  0.5322570000000  0.4861800000000  0.4393220000000 1.0
C      1  0.4698290000000  0.4504720000000  0.4694000000000 1.0
C      1  0.5321310000000  0.4388390000000  0.5140870000000 1.0
C      1  0.4701370000000  0.4689020000000  0.5496890000000 1.0
C      1  0.5337570000000  0.5145650000000  0.5616860000000 1.0
C      1  0.4678050000000  0.5509080000000  0.5305380000000 1.0
C      1  0.5656530000000  0.4156770000000  0.4264760000000 1.0
C      1  0.4330350000000  0.3904890000000  0.5075190000000 1.0
C      1  0.5645850000000  0.4252040000000  0.5864360000000 1.0
C      1  0.4319210000000  0.5076670000000  0.6085020000000 1.0
C      1  0.5649490000000  0.5833330000000  0.5733230000000 1.0
C      1  0.4327730000000  0.6108460000000  0.4916760000000 1.0
C      1  0.5652380000000  0.5738120000000  0.4151630000000 1.0
C      1  0.4327490000000  0.4929400000000  0.3913050000000 1.0
C      1  0.4983450000000  0.5265660000000  0.4382420000000 1.0
C      1  0.5023020000000  0.4750050000000  0.4376930000000 1.0
C      1  0.4991820000000  0.4384070000000  0.4743030000000 1.0
C      1  0.5021090000000  0.4375180000000  0.5251160000000 1.0
C      1  0.4998000000000  0.4736440000000  0.5610030000000 1.0
C      1  0.5033190000000  0.5247670000000  0.5635090000000 1.0
C      1  0.4974000000000  0.5618980000000  0.5252050000000 1.0
C      1  0.5010540000000  0.5627020000000  0.4746150000000 1.0
C      1  0.4218070000000  0.4839820000000  0.5552290000000 1.0
C      1  0.5823880000000  0.5314750000000  0.5527050000000 1.0
C      1  0.4194900000000  0.5573340000000  0.5150130000000 1.0
C      1  0.5791510000000  0.5556630000000  0.4689560000000 1.0
C      1  0.4203040000000  0.5155250000000  0.4461160000000 1.0
C      1  0.5808060000000  0.4690120000000  0.4457600000000 1.0
C      1  0.4214080000000  0.4446610000000  0.4841430000000 1.0
C      1  0.5803230000000  0.4410660000000  0.5334730000000 1.0
C      1  0.4360450000000  0.5528750000000  0.4071970000000 1.0
C      1  0.5633760000000  0.4724380000000  0.3964230000000 1.0
C      1  0.4361120000000  0.4084040000000  0.4483440000000 1.0
C      1  0.5633560000000  0.3955820000000  0.5276610000000 1.0
C      1  0.4359460000000  0.4484850000000  0.5915880000000 1.0
C      1  0.5632130000000  0.5277160000000  0.6044040000000 1.0
C      1  0.4353700000000  0.5926580000000  0.5518920000000 1.0
C      1  0.5628410000000  0.6034800000000  0.4720810000000 1.0
C      1  0.6151470000000  0.5063720000000  0.4378160000000 1.0
C      1  0.3834460000000  0.4630300000000  0.4548270000000 1.0
C      1  0.6129890000000  0.4303740000000  0.4953480000000 1.0
C      1  0.3849460000000  0.4538470000000  0.5359680000000 1.0
C      1  0.6181640000000  0.4948290000000  0.5566000000000 1.0
C      1  0.3827680000000  0.5370600000000  0.5446520000000 1.0
C      1  0.6132150000000  0.5674260000000  0.5055620000000 1.0
C      1  0.3810340000000  0.5415290000000  0.4665950000000 1.0
C      1  0.5684620000000  0.3937570000000  0.4981450000000 1.0
C      1  0.4302960000000  0.4269240000000  0.5719150000000 1.0
C      1  0.5696950000000  0.4983120000000  0.6061250000000 1.0
C      1  0.4297240000000  0.5728420000000  0.5733670000000 1.0
C      1  0.5677710000000  0.6057970000000  0.5015050000000 1.0
C      1  0.4303540000000  0.5745840000000  0.4267360000000 1.0
C      1  0.5687030000000  0.5019040000000  0.3944480000000 1.0
C      1  0.4303720000000  0.4282220000000  0.4269820000000 1.0
C      1  0.5386710000000  0.4158850000000  0.5746740000000 1.0
C      1  0.4585800000000  0.4950830000000  0.6089810000000 1.0
C      1  0.5385570000000  0.5728570000000  0.5817110000000 1.0
C      1  0.4590700000000  0.6109090000000  0.5053350000000 1.0
C      1  0.5389950000000  0.5830380000000  0.4254980000000 1.0
C      1  0.4592830000000  0.5057380000000  0.3905900000000 1.0
C      1  0.5393660000000  0.4260480000000  0.4174170000000 1.0
C      1  0.4594790000000  0.3899860000000  0.4943870000000 1.0
C      1  0.4539510000000  0.4922340000000  0.4762990000000 1.0
C      1  0.5510620000000  0.4837710000000  0.4834170000000 1.0
C      1  0.4513470000000  0.4778280000000  0.5076480000000 1.0
C      1  0.5556300000000  0.4806610000000  0.5165490000000 1.0
C      1  0.4530500000000  0.5091100000000  0.5246730000000 1.0
C      1  0.5507100000000  0.5131070000000  0.5182580000000 1.0
C      1  0.4487990000000  0.5224280000000  0.4930230000000 1.0
C      1  0.5521450000000  0.5174080000000  0.4856310000000 1.0
C      1  0.5549770000000  0.5262750000000  0.5441230000000 1.0
C      1  0.4467750000000  0.5479290000000  0.5099230000000 1.0
C      1  0.5527690000000  0.5444660000000  0.4746070000000 1.0
C      1  0.4484500000000  0.5107310000000  0.4526960000000 1.0
C      1  0.5539170000000  0.4742220000000  0.4557780000000 1.0
C      1  0.4489440000000  0.4528940000000  0.4901130000000 1.0
C      1  0.5545250000000  0.4531710000000  0.5270800000000 1.0
C      1  0.4496020000000  0.4898170000000  0.5478570000000 1.0
C      1  0.5342150000000  0.4021920000000  0.5414570000000 1.0
C      1  0.4651000000000  0.4616310000000  0.5969990000000 1.0
C      1  0.5333430000000  0.5403930000000  0.5968350000000 1.0
C      1  0.4645550000000  0.5979550000000  0.5386170000000 1.0
C      1  0.5337760000000  0.5974620000000  0.4582350000000 1.0
C      1  0.4651940000000  0.5393540000000  0.4023630000000 1.0
C      1  0.5341440000000  0.4587800000000  0.4029680000000 1.0
C      1  0.4653240000000  0.4026910000000  0.4610920000000 1.0
C      1  0.4068600000000  0.5401200000000  0.4536030000000 1.0
C      1  0.5946500000000  0.4880420000000  0.4287830000000 1.0
C      1  0.4091140000000  0.4501500000000  0.4584420000000 1.0
C      1  0.5935510000000  0.4227000000000  0.5153740000000 1.0
C      1  0.4098160000000  0.4580530000000  0.5501660000000 1.0
C      1  0.5975990000000  0.5118740000000  0.5677490000000 1.0
C      1  0.4064810000000  0.5531570000000  0.5406100000000 1.0
C      1  0.5919040000000  0.5742740000000  0.4872130000000 1.0
C      1  0.5158070000000  0.4346640000000  0.5914060000000 1.0
C      1  0.4809190000000  0.5196370000000  0.6091250000000 1.0
C      1  0.5159740000000  0.5906910000000  0.5634910000000 1.0
C      1  0.4818750000000  0.6102070000000  0.4803140000000 1.0
C      1  0.5164150000000  0.5643860000000  0.4087760000000 1.0
C      1  0.4821990000000  0.4812790000000  0.3907890000000 1.0
C      1  0.5166980000000  0.4090550000000  0.4359880000000 1.0
C      1  0.4822290000000  0.3903670000000  0.5190290000000 1.0
C      1  0.5765920000000  0.5469720000000  0.4202210000000 1.0
C      1  0.4222380000000  0.4779860000000  0.4143640000000 1.0
C      1  0.5769390000000  0.4201540000000  0.4534710000000 1.0
C      1  0.4223330000000  0.4136500000000  0.5222200000000 1.0
C      1  0.5767470000000  0.4519840000000  0.5815540000000 1.0
C      1  0.4212700000000  0.5227980000000  0.5855720000000 1.0
C      1  0.5763780000000  0.5799980000000  0.5462540000000 1.0
C      1  0.4219820000000  0.5879410000000  0.4765050000000 1.0
C      1  0.5232770000000  0.4813840000000  0.5162450000000 1.0
C      1  0.4860550000000  0.5147080000000  0.5196400000000 1.0
C      1  0.5167490000000  0.5128050000000  0.5215740000000 1.0
C      1  0.4805600000000  0.5224620000000  0.4880530000000 1.0
C      1  0.5211790000000  0.5127340000000  0.4884770000000 1.0
C      1  0.4880000000000  0.4911280000000  0.4745050000000 1.0
C      1  0.5170150000000  0.4797150000000  0.4839170000000 1.0
C      1  0.4820800000000  0.4848520000000  0.5065780000000 1.0
C      1  0.5006670000000  0.5444250000000  0.6005000000000 1.0
C      1  0.4968830000000  0.6015870000000  0.5389210000000 1.0
C      1  0.5013140000000  0.6001580000000  0.4556320000000 1.0
C      1  0.4974410000000  0.5396040000000  0.3983350000000 1.0
C      1  0.5015450000000  0.4561920000000  0.4001650000000 1.0
C      1  0.4975220000000  0.3987070000000  0.4606990000000 1.0
C      1  0.5015140000000  0.3999920000000  0.5439460000000 1.0
C      1  0.4974030000000  0.4597650000000  0.6018960000000 1.0
END
