TITL C-862500-986-375 0.99170562667493 125000 -883.240922458788 0 0 150 (D2) n - 1
REM
REM in /home/nfs/bkarasulu/CARBON/AIRSS/Generating-Clusters/TERSOFF/Higher-Symm/FIRE-HFTN
REM
REM
REM
REM
REM
REM ./C.cell (b20cbc046b6831c77cfcea5457e17084)
REM AIRSS Version 0.9.1 bugfix July 2018 build 013d7b7c2542+ Fri, 06 Jul 2018 19:26:36 +0100
REM compiler GCC version 9.2.1 20190827 (Red Hat 9.2.1-1)
REM options -cpp -mtune=generic -march=x86-64 -g -O0 -fpre-include=/usr/include/finclude/math-vector-fortran.h
REM seed 728975208 1241800271 1768466024 1229200486 167570517 549724557 -1459043586 -53658457 1401428978 -1167184310 1828641865 -1445957677 -756457934 -19956482 1033709418 -1696536885 -940163950 2054298848 724642841 -1700378622 1333866247 1167453161 -723150460 -173455964 -2065730862 -1706733856 103964609 1337388373 -1781068728 -806117076 -1802529956 457370374 -2109249812
REM
CELL 1.54180   50.00000   50.00000   50.00000   90.00000   90.00000   90.00000
LATT -1
SFAC C  
C      1  0.5863730000000  0.4602660000000  0.5376040000000 1.0
C      1  0.4136270000000  0.5397340000000  0.5376030000000 1.0
C      1  0.5863730000000  0.5397350000000  0.4627810000000 1.0
C      1  0.4136270000000  0.4602650000000  0.4627810000000 1.0
C      1  0.4800290000000  0.4804500000000  0.4791360000000 1.0
C      1  0.5199710000000  0.5195500000000  0.4791360000000 1.0
C      1  0.4800290000000  0.5195500000000  0.5212480000000 1.0
C      1  0.5199710000000  0.4804500000000  0.5212480000000 1.0
C      1  0.5087910000000  0.4094040000000  0.5717970000000 1.0
C      1  0.4912090000000  0.5905960000000  0.5717970000000 1.0
C      1  0.5087900000000  0.5905960000000  0.4285870000000 1.0
C      1  0.4912100000000  0.4094040000000  0.4285870000000 1.0
C      1  0.5249530000000  0.4681040000000  0.4929140000000 1.0
C      1  0.4750470000000  0.5318960000000  0.4929140000000 1.0
C      1  0.5249520000000  0.5318960000000  0.5074700000000 1.0
C      1  0.4750480000000  0.4681040000000  0.5074700000000 1.0
C      1  0.5403330000000  0.4375290000000  0.4387600000000 1.0
C      1  0.4596670000000  0.5624710000000  0.4387600000000 1.0
C      1  0.5403320000000  0.5624720000000  0.5616240000000 1.0
C      1  0.4596680000000  0.4375280000000  0.5616240000000 1.0
C      1  0.5797090000000  0.5308770000000  0.5597870000000 1.0
C      1  0.4202910000000  0.4691230000000  0.5597860000000 1.0
C      1  0.5797090000000  0.4691240000000  0.4405980000000 1.0
C      1  0.4202910000000  0.5308760000000  0.4405980000000 1.0
C      1  0.5131640000000  0.4424620000000  0.4497060000000 1.0
C      1  0.4868360000000  0.5575380000000  0.4497060000000 1.0
C      1  0.5131640000000  0.5575380000000  0.5506780000000 1.0
C      1  0.4868360000000  0.4424620000000  0.5506780000000 1.0
C      1  0.5613560000000  0.4963620000000  0.4752940000000 1.0
C      1  0.4386440000000  0.5036380000000  0.4752940000000 1.0
C      1  0.5613560000000  0.5036390000000  0.5250900000000 1.0
C      1  0.4386440000000  0.4963610000000  0.5250900000000 1.0
C      1  0.4926870000000  0.4111510000000  0.3994470000000 1.0
C      1  0.5073130000000  0.5888490000000  0.3994470000000 1.0
C      1  0.4926860000000  0.5888490000000  0.6009380000000 1.0
C      1  0.5073140000000  0.4111510000000  0.6009380000000 1.0
C      1  0.5093260000000  0.4371260000000  0.6140850000000 1.0
C      1  0.4906730000000  0.5628740000000  0.6140850000000 1.0
C      1  0.5093260000000  0.5628750000000  0.3862990000000 1.0
C      1  0.4906740000000  0.4371250000000  0.3862990000000 1.0
C      1  0.4471350000000  0.4603440000000  0.4983170000000 1.0
C      1  0.5528650000000  0.5396560000000  0.4983170000000 1.0
C      1  0.4471340000000  0.5396550000000  0.5020670000000 1.0
C      1  0.5528660000000  0.4603450000000  0.5020670000000 1.0
C      1  0.3952130000000  0.5271870000000  0.4854270000000 1.0
C      1  0.6047870000000  0.4728130000000  0.4854270000000 1.0
C      1  0.3952140000000  0.4728110000000  0.5149580000000 1.0
C      1  0.6047860000000  0.5271890000000  0.5149580000000 1.0
C      1  0.5063690000000  0.4629670000000  0.6005430000000 1.0
C      1  0.4936310000000  0.5370330000000  0.6005430000000 1.0
C      1  0.5063680000000  0.5370330000000  0.3998410000000 1.0
C      1  0.4936320000000  0.4629670000000  0.3998410000000 1.0
C      1  0.4674940000000  0.4925600000000  0.5241170000000 1.0
C      1  0.5325060000000  0.5074400000000  0.5241170000000 1.0
C      1  0.4674940000000  0.5074390000000  0.4762680000000 1.0
C      1  0.5325060000000  0.4925610000000  0.4762680000000 1.0
C      1  0.4923490000000  0.4602410000000  0.4353670000000 1.0
C      1  0.5076520000000  0.5397590000000  0.4353670000000 1.0
C      1  0.4923480000000  0.5397590000000  0.5650170000000 1.0
C      1  0.5076520000000  0.4602410000000  0.5650170000000 1.0
C      1  0.5532410000000  0.4616830000000  0.4293240000000 1.0
C      1  0.4467590000000  0.5383170000000  0.4293240000000 1.0
C      1  0.5532410000000  0.5383180000000  0.5710600000000 1.0
C      1  0.4467590000000  0.4616820000000  0.5710600000000 1.0
C      1  0.4405550000000  0.5783930000000  0.5190570000000 1.0
C      1  0.5594450000000  0.4216070000000  0.5190570000000 1.0
C      1  0.4405560000000  0.4216060000000  0.4813270000000 1.0
C      1  0.5594440000000  0.5783940000000  0.4813270000000 1.0
C      1  0.5860490000000  0.4794710000000  0.5601220000000 1.0
C      1  0.4139510000000  0.5205290000000  0.5601210000000 1.0
C      1  0.5860480000000  0.5205300000000  0.4402630000000 1.0
C      1  0.4139520000000  0.4794700000000  0.4402630000000 1.0
C      1  0.3956910000000  0.4740060000000  0.4839310000000 1.0
C      1  0.6043090000000  0.5259940000000  0.4839310000000 1.0
C      1  0.3956900000000  0.5259920000000  0.5164530000000 1.0
C      1  0.6043100000000  0.4740080000000  0.5164540000000 1.0
C      1  0.4818410000000  0.4150910000000  0.5106920000000 1.0
C      1  0.5181590000000  0.5849090000000  0.5106920000000 1.0
C      1  0.4818390000000  0.5849090000000  0.4896920000000 1.0
C      1  0.5181610000000  0.4150910000000  0.4896920000000 1.0
C      1  0.5905340000000  0.5456790000000  0.5351270000000 1.0
C      1  0.4094660000000  0.4543210000000  0.5351260000000 1.0
C      1  0.5905350000000  0.4543220000000  0.4652580000000 1.0
C      1  0.4094650000000  0.5456780000000  0.4652580000000 1.0
C      1  0.5073320000000  0.3916250000000  0.4449840000000 1.0
C      1  0.4926680000000  0.6083750000000  0.4449840000000 1.0
C      1  0.5073300000000  0.6083750000000  0.5554010000000 1.0
C      1  0.4926700000000  0.3916250000000  0.5554010000000 1.0
C      1  0.5799310000000  0.4167600000000  0.4987260000000 1.0
C      1  0.4200690000000  0.5832400000000  0.4987250000000 1.0
C      1  0.5799290000000  0.5832410000000  0.5016590000000 1.0
C      1  0.4200710000000  0.4167590000000  0.5016590000000 1.0
C      1  0.5038440000000  0.3870340000000  0.6168040000000 1.0
C      1  0.4961560000000  0.6129660000000  0.6168040000000 1.0
C      1  0.5038430000000  0.6129660000000  0.3835800000000 1.0
C      1  0.4961570000000  0.3870340000000  0.3835800000000 1.0
C      1  0.5788420000000  0.4278190000000  0.4717000000000 1.0
C      1  0.4211580000000  0.5721810000000  0.4717000000000 1.0
C      1  0.5788410000000  0.5721820000000  0.5286840000000 1.0
C      1  0.4211590000000  0.4278180000000  0.5286840000000 1.0
C      1  0.5594590000000  0.5504180000000  0.4705890000000 1.0
C      1  0.4405410000000  0.4495820000000  0.4705890000000 1.0
C      1  0.5594600000000  0.4495830000000  0.5297950000000 1.0
C      1  0.4405400000000  0.5504170000000  0.5297950000000 1.0
C      1  0.4923890000000  0.5129090000000  0.4369830000000 1.0
C      1  0.5076110000000  0.4870910000000  0.4369830000000 1.0
C      1  0.4923890000000  0.4870900000000  0.5634010000000 1.0
C      1  0.5076110000000  0.5129100000000  0.5634010000000 1.0
C      1  0.5333400000000  0.4104800000000  0.5139640000000 1.0
C      1  0.4666600000000  0.5895200000000  0.5139640000000 1.0
C      1  0.5333390000000  0.5895200000000  0.4864200000000 1.0
C      1  0.4666610000000  0.4104800000000  0.4864200000000 1.0
C      1  0.4690950000000  0.4626760000000  0.4569820000000 1.0
C      1  0.5309050000000  0.5373240000000  0.4569820000000 1.0
C      1  0.4690940000000  0.5373240000000  0.5434020000000 1.0
C      1  0.5309060000000  0.4626760000000  0.5434020000000 1.0
C      1  0.5346550000000  0.5166780000000  0.5784540000000 1.0
C      1  0.4653450000000  0.4833220000000  0.5784540000000 1.0
C      1  0.5346550000000  0.4833230000000  0.4219300000000 1.0
C      1  0.4653450000000  0.5166770000000  0.4219300000000 1.0
C      1  0.5220290000000  0.5191720000000  0.6046460000000 1.0
C      1  0.4779710000000  0.4808280000000  0.6046460000000 1.0
C      1  0.5220290000000  0.4808290000000  0.3957380000000 1.0
C      1  0.4779710000000  0.5191710000000  0.3957380000000 1.0
C      1  0.5156190000000  0.5075080000000  0.3814260000000 1.0
C      1  0.4843810000000  0.4924920000000  0.3814260000000 1.0
C      1  0.5156190000000  0.4924930000000  0.6189580000000 1.0
C      1  0.4843800000000  0.5075070000000  0.6189580000000 1.0
C      1  0.4865960000000  0.4425880000000  0.5212830000000 1.0
C      1  0.5134040000000  0.5574120000000  0.5212830000000 1.0
C      1  0.4865960000000  0.5574120000000  0.4791010000000 1.0
C      1  0.5134040000000  0.4425880000000  0.4791010000000 1.0
C      1  0.4914230000000  0.3924020000000  0.5263450000000 1.0
C      1  0.5085770000000  0.6075980000000  0.5263450000000 1.0
C      1  0.4914220000000  0.6075980000000  0.4740390000000 1.0
C      1  0.5085780000000  0.3924020000000  0.4740390000000 1.0
C      1  0.5578560000000  0.5811220000000  0.5472330000000 1.0
C      1  0.4421440000000  0.4188780000000  0.5472330000000 1.0
C      1  0.5578570000000  0.4188790000000  0.4531520000000 1.0
C      1  0.4421430000000  0.5811210000000  0.4531520000000 1.0
C      1  0.4248170000000  0.5041820000000  0.4505530000000 1.0
C      1  0.5751830000000  0.4958180000000  0.4505530000000 1.0
C      1  0.4248170000000  0.4958170000000  0.5498310000000 1.0
C      1  0.5751830000000  0.5041830000000  0.5498310000000 1.0
C      1  0.6140890000000  0.4991330000000  0.4744720000000 1.0
C      1  0.3859110000000  0.5008670000000  0.4744720000000 1.0
C      1  0.6140890000000  0.5008690000000  0.5259120000000 1.0
C      1  0.3859110000000  0.4991310000000  0.5259120000000 1.0
C      1  0.5752450000000  0.5000010000000  0.5001920000000 1.0
C      1  0.4247550000000  0.4999990000000  0.5001920000000 1.0
END
