TITL C-862506-1665-410 -8.30938464985222 125000 -246.085836676409 0 0 43 (C1) n - 1
REM
REM in /home/nfs/bkarasulu/CARBON/AIRSS/Generating-Clusters/TERSOFF/Higher-Symm/FIRE-HFTN
REM
REM
REM
REM
REM
REM ./C.cell (b20cbc046b6831c77cfcea5457e17084)
REM AIRSS Version 0.9.1 bugfix July 2018 build 013d7b7c2542+ Fri, 06 Jul 2018 19:26:36 +0100
REM compiler GCC version 9.2.1 20190827 (Red Hat 9.2.1-1)
REM options -cpp -mtune=generic -march=x86-64 -g -O0 -fpre-include=/usr/include/finclude/math-vector-fortran.h
REM seed -1748502050 -251861889 812752639 -921051798 1107125088 -294789144 -1892749516 -1259550756 -1891503367 153706757 920977853 -1565729839 -2044106080 -1139741948 864625309 -1982480530 465004193 -46052146 1489390845 314988654 1683075489 2018596291 456320151 -183311580 979326687 -746908416 2012299800 1239467082 1720146851 -1221813683 472547000 619653732 1141166066
REM
CELL 1.54180   50.00000   50.00000   50.00000   90.00000   90.00000   90.00000
LATT -1
SFAC C  
C      1  0.4430870000000  0.5196620000000  0.5314850000000 1.0
C      1  0.4658540000000  0.5171020000000  0.5509430000000 1.0
C      1  0.5039900000000  0.5066060000000  0.5013840000000 1.0
C      1  0.5495570000000  0.4996520000000  0.4707790000000 1.0
C      1  0.5398410000000  0.4518460000000  0.5134870000000 1.0
C      1  0.5424440000000  0.4561690000000  0.4642380000000 1.0
C      1  0.5144910000000  0.5233760000000  0.4486560000000 1.0
C      1  0.4543540000000  0.4430610000000  0.4601750000000 1.0
C      1  0.5036470000000  0.5593790000000  0.4959340000000 1.0
C      1  0.4687690000000  0.4908710000000  0.5637350000000 1.0
C      1  0.4497030000000  0.4705150000000  0.5568110000000 1.0
C      1  0.5619990000000  0.5102100000000  0.5355250000000 1.0
C      1  0.5675290000000  0.4885270000000  0.4906770000000 1.0
C      1  0.5474160000000  0.5512750000000  0.4812470000000 1.0
C      1  0.5127770000000  0.4603640000000  0.5211130000000 1.0
C      1  0.4437280000000  0.5099420000000  0.5031570000000 1.0
C      1  0.4695280000000  0.4665540000000  0.4531690000000 1.0
C      1  0.4957480000000  0.4804330000000  0.5657630000000 1.0
C      1  0.4537420000000  0.4381090000000  0.4883040000000 1.0
C      1  0.5065550000000  0.5726130000000  0.5218510000000 1.0
C      1  0.4977710000000  0.5587150000000  0.5460340000000 1.0
C      1  0.4945210000000  0.4689620000000  0.4684580000000 1.0
C      1  0.4558730000000  0.4912140000000  0.4456410000000 1.0
C      1  0.5233130000000  0.5118110000000  0.4766960000000 1.0
C      1  0.4927380000000  0.4739190000000  0.5001380000000 1.0
C      1  0.4635720000000  0.5177050000000  0.4552090000000 1.0
C      1  0.5709820000000  0.5385750000000  0.4944090000000 1.0
C      1  0.5353430000000  0.5030890000000  0.5432420000000 1.0
C      1  0.4687100000000  0.5496640000000  0.5171150000000 1.0
C      1  0.5057190000000  0.4584660000000  0.5496180000000 1.0
C      1  0.4925100000000  0.5297280000000  0.5453950000000 1.0
C      1  0.5236500000000  0.4955850000000  0.4379720000000 1.0
C      1  0.5367180000000  0.5446580000000  0.4542170000000 1.0
C      1  0.5706600000000  0.5122030000000  0.5082550000000 1.0
C      1  0.4608480000000  0.5243660000000  0.4836320000000 1.0
C      1  0.5198070000000  0.4712610000000  0.4541320000000 1.0
C      1  0.4867220000000  0.5306930000000  0.4428580000000 1.0
C      1  0.5542030000000  0.4614100000000  0.4903990000000 1.0
C      1  0.4400540000000  0.4818310000000  0.4990890000000 1.0
C      1  0.4598980000000  0.4608050000000  0.5070360000000 1.0
C      1  0.4861280000000  0.5335750000000  0.4964940000000 1.0
C      1  0.5113070000000  0.5130930000000  0.5305420000000 1.0
C      1  0.4541960000000  0.4524070000000  0.5349860000000 1.0
END
