TITL C-862131-2149-1408 278557.818587202 125000 -1067.2780940496 0 0 177 (C1) n - 1
REM
REM in /home/nfs/bkarasulu/CARBON/AIRSS/Generating-Clusters/TERSOFF/Higher-Symm/FIRE-HFTN
REM
REM
REM
REM
REM
REM ./C.cell (b20cbc046b6831c77cfcea5457e17084)
REM AIRSS Version 0.9.1 bugfix July 2018 build 013d7b7c2542+ Fri, 06 Jul 2018 19:26:36 +0100
REM compiler GCC version 9.2.1 20190827 (Red Hat 9.2.1-1)
REM options -cpp -mtune=generic -march=x86-64 -g -O0 -fpre-include=/usr/include/finclude/math-vector-fortran.h
REM seed -1173445942 875266987 -683994568 -566123591 -868860891 -38063298 -411344445 768223297 -1321314993 -264886998 -1756008954 -203686542 398060703 2124118118 1842752471 -327787557 47358390 -1052176504 -1181564465 2010820246 135059084 -646851941 -1955786079 536239560 -133652987 341049559 -1047732564 -462249414 -959999345 353388743 -1965829040 -1085020713 724511292
REM
CELL 1.54180   50.00000   50.00000   50.00000   90.00000   90.00000   90.00000
LATT -1
SFAC C  
C      1  0.4420240000000  0.5057880000000  0.5462150000000 1.0
C      1  0.4424200000000  0.4550510000000  0.4850780000000 1.0
C      1  0.4399920000000  0.5335780000000  0.4718330000000 1.0
C      1  0.4415240000000  0.5055060000000  0.4623460000000 1.0
C      1  0.4433430000000  0.4606950000000  0.5141440000000 1.0
C      1  0.4419820000000  0.5282400000000  0.5268690000000 1.0
C      1  0.4817830000000  0.5548710000000  0.4760540000000 1.0
C      1  0.4844590000000  0.4928520000000  0.5609660000000 1.0
C      1  0.4840470000000  0.4503290000000  0.4650760000000 1.0
C      1  0.4848750000000  0.5539560000000  0.5289110000000 1.0
C      1  0.4852220000000  0.4964190000000  0.4391410000000 1.0
C      1  0.4872450000000  0.4477080000000  0.5336100000000 1.0
C      1  0.4894100000000  0.3899560000000  0.4855030000000 1.0
C      1  0.4839230000000  0.5664640000000  0.4139080000000 1.0
C      1  0.4873850000000  0.5404690000000  0.6027450000000 1.0
C      1  0.4894520000000  0.3901490000000  0.5167480000000 1.0
C      1  0.4863030000000  0.5674250000000  0.5869430000000 1.0
C      1  0.4842060000000  0.5393530000000  0.3983400000000 1.0
C      1  0.4195520000000  0.4614570000000  0.4680380000000 1.0
C      1  0.4173790000000  0.5443710000000  0.4869670000000 1.0
C      1  0.4199260000000  0.4868390000000  0.5491090000000 1.0
C      1  0.4201760000000  0.4636260000000  0.5311550000000 1.0
C      1  0.4182170000000  0.5405260000000  0.5160110000000 1.0
C      1  0.4187030000000  0.4885670000000  0.4570150000000 1.0
C      1  0.5074540000000  0.6217450000000  0.5136520000000 1.0
C      1  0.5106920000000  0.4271180000000  0.5992850000000 1.0
C      1  0.5085860000000  0.4494830000000  0.3882990000000 1.0
C      1  0.5065870000000  0.6213380000000  0.4846610000000 1.0
C      1  0.5083020000000  0.4246840000000  0.4033430000000 1.0
C      1  0.5099670000000  0.4524060000000  0.6134730000000 1.0
C      1  0.5134250000000  0.4516410000000  0.5530260000000 1.0
C      1  0.5115730000000  0.4776380000000  0.4323730000000 1.0
C      1  0.5106240000000  0.5694450000000  0.5155820000000 1.0
C      1  0.5110720000000  0.4508530000000  0.4488140000000 1.0
C      1  0.5120490000000  0.4791150000000  0.5683320000000 1.0
C      1  0.5090970000000  0.5688760000000  0.4842050000000 1.0
C      1  0.5961580000000  0.5525450000000  0.5587330000000 1.0
C      1  0.5977590000000  0.4232500000000  0.5151830000000 1.0
C      1  0.5953280000000  0.5256500000000  0.4250970000000 1.0
C      1  0.5943930000000  0.5513420000000  0.4396380000000 1.0
C      1  0.5968600000000  0.4229570000000  0.4856620000000 1.0
C      1  0.5963910000000  0.5271330000000  0.5737820000000 1.0
C      1  0.5588660000000  0.5816690000000  0.4515690000000 1.0
C      1  0.5622280000000  0.5008560000000  0.5954230000000 1.0
C      1  0.5615140000000  0.4170100000000  0.4534080000000 1.0
C      1  0.5615630000000  0.5838210000000  0.5463800000000 1.0
C      1  0.5619350000000  0.4979650000000  0.4039370000000 1.0
C      1  0.5644520000000  0.4177900000000  0.5496970000000 1.0
C      1  0.5430950000000  0.3920350000000  0.5894290000000 1.0
C      1  0.5403860000000  0.4757050000000  0.3622360000000 1.0
C      1  0.5399600000000  0.6310090000000  0.5488140000000 1.0
C      1  0.5401260000000  0.3895520000000  0.4148640000000 1.0
C      1  0.5413190000000  0.4803320000000  0.6383040000000 1.0
C      1  0.5377530000000  0.6289870000000  0.4479120000000 1.0
C      1  0.3933810000000  0.5486700000000  0.4703980000000 1.0
C      1  0.3971380000000  0.4978340000000  0.5638460000000 1.0
C      1  0.3972210000000  0.4427740000000  0.4711270000000 1.0
C      1  0.3979470000000  0.5481780000000  0.5354030000000 1.0
C      1  0.3978940000000  0.5001690000000  0.4403810000000 1.0
C      1  0.4002080000000  0.4425780000000  0.5289730000000 1.0
C      1  0.4640750000000  0.4470650000000  0.5555040000000 1.0
C      1  0.4619750000000  0.4771890000000  0.4285240000000 1.0
C      1  0.4608100000000  0.5721410000000  0.5185620000000 1.0
C      1  0.4612480000000  0.4522170000000  0.4440640000000 1.0
C      1  0.4623650000000  0.4727140000000  0.5697230000000 1.0
C      1  0.4589690000000  0.5714460000000  0.4892220000000 1.0
C      1  0.5742920000000  0.4829910000000  0.4263830000000 1.0
C      1  0.5733470000000  0.5720820000000  0.5218190000000 1.0
C      1  0.5760410000000  0.4450570000000  0.5514530000000 1.0
C      1  0.5740790000000  0.4851160000000  0.5732310000000 1.0
C      1  0.5710400000000  0.5707190000000  0.4763030000000 1.0
C      1  0.5729080000000  0.4442470000000  0.4504960000000 1.0
C      1  0.5380990000000  0.4074030000000  0.4389540000000 1.0
C      1  0.5355590000000  0.5991880000000  0.4511120000000 1.0
C      1  0.5390130000000  0.4924610000000  0.6109030000000 1.0
C      1  0.5411030000000  0.4089390000000  0.5646490000000 1.0
C      1  0.5381030000000  0.6010810000000  0.5466700000000 1.0
C      1  0.5385270000000  0.4889580000000  0.3891570000000 1.0
C      1  0.4385880000000  0.5802430000000  0.5368620000000 1.0
C      1  0.4422890000000  0.4266290000000  0.5543810000000 1.0
C      1  0.4393060000000  0.4878630000000  0.4122330000000 1.0
C      1  0.4350020000000  0.5800040000000  0.4734130000000 1.0
C      1  0.4385590000000  0.4326480000000  0.4441060000000 1.0
C      1  0.4391870000000  0.4814570000000  0.5865080000000 1.0
C      1  0.3546220000000  0.5176770000000  0.4589210000000 1.0
C      1  0.3539910000000  0.5425110000000  0.5021700000000 1.0
C      1  0.3189130000000  0.5076280000000  0.4928940000000 1.0
C      1  0.3304000000000  0.5276540000000  0.5103910000000 1.0
C      1  0.3673210000000  0.5374460000000  0.4765200000000 1.0
C      1  0.3310620000000  0.5027520000000  0.4670600000000 1.0
C      1  0.5154990000000  0.5962990000000  0.5273980000000 1.0
C      1  0.5185770000000  0.4280180000000  0.5703350000000 1.0
C      1  0.5163440000000  0.4743290000000  0.4032320000000 1.0
C      1  0.5134910000000  0.5953310000000  0.4712370000000 1.0
C      1  0.5156760000000  0.4263930000000  0.4324470000000 1.0
C      1  0.5168770000000  0.4769940000000  0.5976310000000 1.0
C      1  0.4577500000000  0.5280530000000  0.5951400000000 1.0
C      1  0.4593170000000  0.4020910000000  0.4793760000000 1.0
C      1  0.4542730000000  0.5653310000000  0.4285110000000 1.0
C      1  0.4561880000000  0.5345940000000  0.4142980000000 1.0
C      1  0.4605900000000  0.4049790000000  0.5132790000000 1.0
C      1  0.4579040000000  0.5558430000000  0.5757540000000 1.0
C      1  0.5287600000000  0.4240620000000  0.4861670000000 1.0
C      1  0.5248390000000  0.5498940000000  0.4415700000000 1.0
C      1  0.5274460000000  0.5256650000000  0.5728890000000 1.0
C      1  0.5289320000000  0.4243590000000  0.5153350000000 1.0
C      1  0.5265230000000  0.5507520000000  0.5580620000000 1.0
C      1  0.5251510000000  0.5245200000000  0.4272420000000 1.0
C      1  0.5083760000000  0.5230200000000  0.4027900000000 1.0
C      1  0.5097320000000  0.5722930000000  0.5696890000000 1.0
C      1  0.5130390000000  0.4031800000000  0.5287660000000 1.0
C      1  0.5120890000000  0.5249980000000  0.5982310000000 1.0
C      1  0.5084370000000  0.5714360000000  0.4295270000000 1.0
C      1  0.5134830000000  0.4020510000000  0.4735210000000 1.0
C      1  0.5754700000000  0.4025090000000  0.4759720000000 1.0
C      1  0.5723970000000  0.5696510000000  0.4273350000000 1.0
C      1  0.5751420000000  0.5281740000000  0.5964870000000 1.0
C      1  0.5770430000000  0.4030380000000  0.5265030000000 1.0
C      1  0.5747910000000  0.5717100000000  0.5707350000000 1.0
C      1  0.5740450000000  0.5256330000000  0.4024480000000 1.0
C      1  0.4331060000000  0.4126100000000  0.4662000000000 1.0
C      1  0.4284950000000  0.5704070000000  0.4454320000000 1.0
C      1  0.4323540000000  0.5102680000000  0.5927340000000 1.0
C      1  0.4356000000000  0.4100800000000  0.5299970000000 1.0
C      1  0.4324180000000  0.5668570000000  0.5632450000000 1.0
C      1  0.4316340000000  0.5170420000000  0.4106930000000 1.0
C      1  0.4063720000000  0.5249270000000  0.4260280000000 1.0
C      1  0.4076550000000  0.5488480000000  0.5636290000000 1.0
C      1  0.4100320000000  0.4179780000000  0.5151150000000 1.0
C      1  0.4071540000000  0.5219430000000  0.5790770000000 1.0
C      1  0.4045500000000  0.5512450000000  0.4423220000000 1.0
C      1  0.4083680000000  0.4178670000000  0.4841310000000 1.0
C      1  0.5319570000000  0.4500910000000  0.5293550000000 1.0
C      1  0.5296150000000  0.4996190000000  0.4423360000000 1.0
C      1  0.5296440000000  0.5501950000000  0.5287870000000 1.0
C      1  0.5302360000000  0.4496680000000  0.4718030000000 1.0
C      1  0.5302480000000  0.5005170000000  0.5579040000000 1.0
C      1  0.5277820000000  0.5496360000000  0.4708120000000 1.0
C      1  0.5238140000000  0.4563330000000  0.6398680000000 1.0
C      1  0.5221670000000  0.3998820000000  0.3935230000000 1.0
C      1  0.5202880000000  0.6422700000000  0.4679870000000 1.0
C      1  0.5223740000000  0.4520210000000  0.3617070000000 1.0
C      1  0.5247970000000  0.4029280000000  0.6102180000000 1.0
C      1  0.5215260000000  0.6434130000000  0.5290210000000 1.0
C      1  0.5965670000000  0.5261660000000  0.5140890000000 1.0
C      1  0.5974580000000  0.4751190000000  0.5147510000000 1.0
C      1  0.5965790000000  0.5000780000000  0.4702110000000 1.0
C      1  0.5960240000000  0.5258430000000  0.4847480000000 1.0
C      1  0.5968840000000  0.4748070000000  0.4851560000000 1.0
C      1  0.5970290000000  0.5007030000000  0.5291640000000 1.0
C      1  0.4879920000000  0.4980170000000  0.5302750000000 1.0
C      1  0.4877370000000  0.4744590000000  0.4845400000000 1.0
C      1  0.4866800000000  0.5258490000000  0.4869700000000 1.0
C      1  0.4881570000000  0.5000110000000  0.4708140000000 1.0
C      1  0.4892340000000  0.4734350000000  0.5149450000000 1.0
C      1  0.4880760000000  0.5249300000000  0.5159500000000 1.0
C      1  0.5939440000000  0.5000700000000  0.4409310000000 1.0
C      1  0.5937620000000  0.5514810000000  0.5287470000000 1.0
C      1  0.5955810000000  0.4497030000000  0.5294060000000 1.0
C      1  0.5942840000000  0.5013180000000  0.5584310000000 1.0
C      1  0.5921730000000  0.5507580000000  0.4696430000000 1.0
C      1  0.5938690000000  0.4491470000000  0.4711360000000 1.0
C      1  0.4657910000000  0.4368140000000  0.5148260000000 1.0
C      1  0.4630010000000  0.5173660000000  0.4406660000000 1.0
C      1  0.4637750000000  0.5416970000000  0.5473220000000 1.0
C      1  0.4658480000000  0.4334710000000  0.4821750000000 1.0
C      1  0.4648480000000  0.5150400000000  0.5665810000000 1.0
C      1  0.4625760000000  0.5474660000000  0.4540530000000 1.0
C      1  0.5378710000000  0.4999850000000  0.4705570000000 1.0
C      1  0.5378610000000  0.5257760000000  0.5146410000000 1.0
C      1  0.5391620000000  0.4747040000000  0.5149420000000 1.0
C      1  0.5384630000000  0.5004030000000  0.5295480000000 1.0
C      1  0.5371150000000  0.5255560000000  0.4850970000000 1.0
C      1  0.5384500000000  0.4744840000000  0.4855140000000 1.0
C      1  0.5619010000000  0.5549890000000  0.5923240000000 1.0
C      1  0.5600020000000  0.5521050000000  0.4061020000000 1.0
C      1  0.5633270000000  0.3925310000000  0.5017560000000 1.0
END
