TITL C-862130-1496-1324 0.000461989435149943 125000 -478.570868248886 0 0 92 (C2) n - 1
REM
REM in /home/nfs/bkarasulu/CARBON/AIRSS/Generating-Clusters/TERSOFF/Higher-Symm/FIRE-HFTN
REM
REM
REM
REM
REM
REM ./C.cell (b20cbc046b6831c77cfcea5457e17084)
REM AIRSS Version 0.9.1 bugfix July 2018 build 013d7b7c2542+ Fri, 06 Jul 2018 19:26:36 +0100
REM compiler GCC version 9.2.1 20190827 (Red Hat 9.2.1-1)
REM options -cpp -mtune=generic -march=x86-64 -g -O0 -fpre-include=/usr/include/finclude/math-vector-fortran.h
REM seed 1265566716 2131989729 -2139782474 -677282110 -770449117 28526649 1295147523 1102215290 604134704 -1971225192 -799133642 -1971795865 569793954 -1492813437 -1465698422 -623319281 1595412244 -667336277 721537181 -399296383 274498773 304753916 1325563773 -272808191 -1547679387 -315061560 827957812 1716906757 -1048458954 -886867164 -300643554 -1242950484 -1820675392
REM
CELL 1.54180   50.00000   50.00000   50.00000   90.00000   90.00000   90.00000
LATT -1
SFAC C  
C      1  0.4731080000000  0.5796550000000  0.4717960000000 1.0
C      1  0.5272820000000  0.5796550000000  0.5277070000000 1.0
C      1  0.5251020000000  0.5804110000000  0.4705450000000 1.0
C      1  0.4752890000000  0.5804110000000  0.5289580000000 1.0
C      1  0.5828300000000  0.4723080000000  0.5214250000000 1.0
C      1  0.4175600000000  0.4723080000000  0.4780780000000 1.0
C      1  0.4169460000000  0.4740740000000  0.5200200000000 1.0
C      1  0.5834440000000  0.4740730000000  0.4794830000000 1.0
C      1  0.4481800000000  0.5348910000000  0.4674820000000 1.0
C      1  0.5522100000000  0.5348910000000  0.5320210000000 1.0
C      1  0.5510560000000  0.5372740000000  0.4669850000000 1.0
C      1  0.4493340000000  0.5372740000000  0.5325180000000 1.0
C      1  0.5189790000000  0.5481940000000  0.5683000000000 1.0
C      1  0.4814110000000  0.5481940000000  0.4312030000000 1.0
C      1  0.4840070000000  0.5479730000000  0.5684120000000 1.0
C      1  0.5163840000000  0.5479730000000  0.4310910000000 1.0
C      1  0.5608420000000  0.5090690000000  0.4548800000000 1.0
C      1  0.4395480000000  0.5090690000000  0.5446230000000 1.0
C      1  0.4398970000000  0.5076350000000  0.4538060000000 1.0
C      1  0.5604930000000  0.5076350000000  0.5456970000000 1.0
C      1  0.4599560000000  0.4666860000000  0.4288800000000 1.0
C      1  0.5404340000000  0.4666860000000  0.5706230000000 1.0
C      1  0.5413010000000  0.4676110000000  0.4293690000000 1.0
C      1  0.4590890000000  0.4676110000000  0.5701340000000 1.0
C      1  0.4842100000000  0.5169970000000  0.4453500000000 1.0
C      1  0.5161810000000  0.5169970000000  0.5541530000000 1.0
C      1  0.5157720000000  0.5173270000000  0.4455300000000 1.0
C      1  0.4846180000000  0.5173270000000  0.5539730000000 1.0
C      1  0.4728050000000  0.4985920000000  0.5828750000000 1.0
C      1  0.5275850000000  0.4985920000000  0.4166280000000 1.0
C      1  0.5272300000000  0.4979750000000  0.5832400000000 1.0
C      1  0.4731600000000  0.4979750000000  0.4162630000000 1.0
C      1  0.5291850000000  0.4714160000000  0.5207380000000 1.0
C      1  0.4712050000000  0.4714160000000  0.4787650000000 1.0
C      1  0.4709640000000  0.4713410000000  0.5204700000000 1.0
C      1  0.5294260000000  0.4713400000000  0.4790330000000 1.0
C      1  0.4740690000000  0.5168140000000  0.5220680000000 1.0
C      1  0.5263210000000  0.5168140000000  0.4774350000000 1.0
C      1  0.5265100000000  0.5160170000000  0.5225250000000 1.0
C      1  0.4738800000000  0.5160180000000  0.4769780000000 1.0
C      1  0.4723360000000  0.4425130000000  0.5509600000000 1.0
C      1  0.5280530000000  0.4425130000000  0.4485420000000 1.0
C      1  0.5272140000000  0.4423160000000  0.5509430000000 1.0
C      1  0.4731760000000  0.4423160000000  0.4485600000000 1.0
C      1  0.4591190000000  0.4843500000000  0.4533980000000 1.0
C      1  0.5412710000000  0.4843500000000  0.5461050000000 1.0
C      1  0.5416090000000  0.4853580000000  0.4539190000000 1.0
C      1  0.4587810000000  0.4853580000000  0.5455840000000 1.0
C      1  0.5354190000000  0.5589200000000  0.4521200000000 1.0
C      1  0.4649720000000  0.5589200000000  0.5473830000000 1.0
C      1  0.4625250000000  0.5580790000000  0.4534770000000 1.0
C      1  0.5378660000000  0.5580790000000  0.5460260000000 1.0
C      1  0.5392040000000  0.4266620000000  0.5269690000000 1.0
C      1  0.4611860000000  0.4266620000000  0.4725340000000 1.0
C      1  0.4608920000000  0.4266980000000  0.5267990000000 1.0
C      1  0.5394980000000  0.4266980000000  0.4727030000000 1.0
C      1  0.4143440000000  0.4976360000000  0.5362340000000 1.0
C      1  0.5860460000000  0.4976360000000  0.4632690000000 1.0
C      1  0.5857140000000  0.4952620000000  0.5384810000000 1.0
C      1  0.4146760000000  0.4952620000000  0.4610220000000 1.0
C      1  0.4843230000000  0.5272370000000  0.5947540000000 1.0
C      1  0.5160670000000  0.5272370000000  0.4047490000000 1.0
C      1  0.5165780000000  0.5270100000000  0.5948910000000 1.0
C      1  0.4838120000000  0.5270110000000  0.4046120000000 1.0
C      1  0.4820640000000  0.4053130000000  0.5213540000000 1.0
C      1  0.5183250000000  0.4053130000000  0.4781480000000 1.0
C      1  0.5181410000000  0.4052220000000  0.5213320000000 1.0
C      1  0.4822480000000  0.4052220000000  0.4781710000000 1.0
C      1  0.5739070000000  0.5424250000000  0.5133650000000 1.0
C      1  0.4264830000000  0.5424260000000  0.4861380000000 1.0
C      1  0.4300120000000  0.5496500000000  0.5138900000000 1.0
C      1  0.5703790000000  0.5496500000000  0.4856130000000 1.0
C      1  0.4987540000000  0.5923240000000  0.4633630000000 1.0
C      1  0.5016360000000  0.5923240000000  0.5361400000000 1.0
C      1  0.5583580000000  0.4698310000000  0.4999090000000 1.0
C      1  0.4420320000000  0.4698310000000  0.4995940000000 1.0
C      1  0.5249710000000  0.5693800000000  0.4991080000000 1.0
C      1  0.4754200000000  0.5693800000000  0.5003950000000 1.0
C      1  0.4537680000000  0.5034000000000  0.4995850000000 1.0
C      1  0.5466230000000  0.5033990000000  0.4999180000000 1.0
C      1  0.5486480000000  0.4395500000000  0.4998510000000 1.0
C      1  0.4517420000000  0.4395500000000  0.4996520000000 1.0
C      1  0.5005370000000  0.4514710000000  0.4559190000000 1.0
C      1  0.4998530000000  0.4514710000000  0.5435840000000 1.0
C      1  0.4999230000000  0.4784180000000  0.5500080000000 1.0
C      1  0.5004670000000  0.4784180000000  0.4494950000000 1.0
C      1  0.4999310000000  0.4857660000000  0.5769980000000 1.0
C      1  0.5004590000000  0.4857660000000  0.4225050000000 1.0
C      1  0.5001950000000  0.4633330000000  0.4997510000000 1.0
C      1  0.5001950000000  0.5540520000000  0.4997510000000 1.0
C      1  0.5001950000000  0.5247600000000  0.4997510000000 1.0
C      1  0.5001950000000  0.4272270000000  0.4997510000000 1.0
END
