TITL C-862134-6730-990 -5.02706434630154e-07 125000 -227.607829727398 0 0 39 (D3) n - 1
REM
REM in /home/nfs/bkarasulu/CARBON/AIRSS/Generating-Clusters/TERSOFF/Higher-Symm/FIRE-HFTN
REM
REM
REM
REM
REM
REM ./C.cell (b20cbc046b6831c77cfcea5457e17084)
REM AIRSS Version 0.9.1 bugfix July 2018 build 013d7b7c2542+ Fri, 06 Jul 2018 19:26:36 +0100
REM compiler GCC version 9.2.1 20190827 (Red Hat 9.2.1-1)
REM options -cpp -mtune=generic -march=x86-64 -g -O0 -fpre-include=/usr/include/finclude/math-vector-fortran.h
REM seed -611851896 1537773218 2138417379 2062655066 1280458442 -1472366725 1486141481 1908425720 -205006787 -1379111941 723848832 -1188628864 980138783 1232005325 -411525404 132706805 718142682 -1463216595 385015560 1520986940 815258918 52338426 754004659 -1040657276 84297998 25762233 -194253803 -1045636969 -733489317 839892924 1903177091 -311364939 135108781
REM
CELL 1.54180   50.00000   50.00000   50.00000   90.00000   90.00000   90.00000
LATT -1
SFAC C  
C      1  0.4860160000000  0.5472250000000  0.4760040000000 1.0
C      1  0.4860160000000  0.4971680000000  0.5528960000000 1.0
C      1  0.4860160000000  0.4556070000000  0.4711000000000 1.0
C      1  0.5146970000000  0.4527740000000  0.4760050000000 1.0
C      1  0.5146970000000  0.5028330000000  0.5528960000000 1.0
C      1  0.5146970000000  0.5443930000000  0.4710990000000 1.0
C      1  0.4515270000000  0.5334670000000  0.5113210000000 1.0
C      1  0.4515270000000  0.4734630000000  0.5233230000000 1.0
C      1  0.4515270000000  0.4930710000000  0.4653570000000 1.0
C      1  0.5491860000000  0.4665340000000  0.5113210000000 1.0
C      1  0.5491860000000  0.5265380000000  0.5233220000000 1.0
C      1  0.5491860000000  0.5069290000000  0.4653570000000 1.0
C      1  0.4782280000000  0.4820370000000  0.4603560000000 1.0
C      1  0.4782280000000  0.5433140000000  0.5042660000000 1.0
C      1  0.4782280000000  0.4746480000000  0.5353780000000 1.0
C      1  0.5224850000000  0.5179620000000  0.4603550000000 1.0
C      1  0.5224850000000  0.4566860000000  0.5042670000000 1.0
C      1  0.5224850000000  0.5253520000000  0.5353780000000 1.0
C      1  0.4681080000000  0.5380020000000  0.4541130000000 1.0
C      1  0.4681080000000  0.5207390000000  0.5558540000000 1.0
C      1  0.4681080000000  0.4412600000000  0.4900330000000 1.0
C      1  0.5326050000000  0.4619980000000  0.4541130000000 1.0
C      1  0.5326050000000  0.4792620000000  0.5558540000000 1.0
C      1  0.5326050000000  0.5587400000000  0.4900320000000 1.0
C      1  0.4837970000000  0.5228830000000  0.4338220000000 1.0
C      1  0.4837970000000  0.5458700000000  0.5529060000000 1.0
C      1  0.4837970000000  0.4312470000000  0.5132720000000 1.0
C      1  0.5169160000000  0.4771160000000  0.4338230000000 1.0
C      1  0.5169160000000  0.4541310000000  0.5529070000000 1.0
C      1  0.5169160000000  0.5687530000000  0.5132700000000 1.0
C      1  0.5547930000000  0.4782820000000  0.5370020000000 1.0
C      1  0.5547930000000  0.4788140000000  0.4626900000000 1.0
C      1  0.5547930000000  0.5429040000000  0.5003080000000 1.0
C      1  0.4459200000000  0.5217190000000  0.5370020000000 1.0
C      1  0.4459200000000  0.5211850000000  0.4626900000000 1.0
C      1  0.4459200000000  0.4570960000000  0.5003080000000 1.0
C      1  0.5003560000000  0.5474770000000  0.5274100000000 1.0
C      1  0.5003560000000  0.4525230000000  0.5274110000000 1.0
C      1  0.5003560000000  0.5000000000000  0.4451780000000 1.0
END
