TITL C-862131-2149-1318 -9.92259567177151 125000 -260.62715299108 0 0 53 (C1) n - 1
REM
REM in /home/nfs/bkarasulu/CARBON/AIRSS/Generating-Clusters/TERSOFF/Higher-Symm/FIRE-HFTN
REM
REM
REM
REM
REM
REM ./C.cell (b20cbc046b6831c77cfcea5457e17084)
REM AIRSS Version 0.9.1 bugfix July 2018 build 013d7b7c2542+ Fri, 06 Jul 2018 19:26:36 +0100
REM compiler GCC version 9.2.1 20190827 (Red Hat 9.2.1-1)
REM options -cpp -mtune=generic -march=x86-64 -g -O0 -fpre-include=/usr/include/finclude/math-vector-fortran.h
REM seed 1863712856 143791013 -309747901 -1801274591 666585790 2062735859 -1485838002 1149362693 -1238788421 1321468550 716050970 -1786279897 -1190531814 -818006363 -1512332149 1428379850 -1368337216 1738604480 774513958 -496665813 742488215 -1303419799 -223851746 -1571587466 1394721461 254580465 -1472301677 278032100 302478231 982942156 -1912253551 1715967790 -549755442
REM
CELL 1.54180   50.00000   50.00000   50.00000   90.00000   90.00000   90.00000
LATT -1
SFAC C  
C      1  0.5358870000000  0.4827720000000  0.5111550000000 1.0
C      1  0.4957600000000  0.4781300000000  0.4637610000000 1.0
C      1  0.4741670000000  0.4816870000000  0.5231960000000 1.0
C      1  0.5103000000000  0.4939260000000  0.5538820000000 1.0
C      1  0.5455110000000  0.4896140000000  0.4671390000000 1.0
C      1  0.4507670000000  0.4834690000000  0.4783010000000 1.0
C      1  0.4702690000000  0.5023380000000  0.5445020000000 1.0
C      1  0.5561100000000  0.5047690000000  0.5048370000000 1.0
C      1  0.4767590000000  0.4945340000000  0.4472570000000 1.0
C      1  0.4488050000000  0.4836850000000  0.5079250000000 1.0
C      1  0.5363970000000  0.4907370000000  0.5402550000000 1.0
C      1  0.5216090000000  0.4838330000000  0.4503000000000 1.0
C      1  0.4646400000000  0.5630510000000  0.4805930000000 1.0
C      1  0.5028740000000  0.5694320000000  0.5270300000000 1.0
C      1  0.5232320000000  0.5663320000000  0.4723580000000 1.0
C      1  0.4687060000000  0.4524340000000  0.5277050000000 1.0
C      1  0.5438620000000  0.4547020000000  0.5200410000000 1.0
C      1  0.4997650000000  0.4487690000000  0.4588980000000 1.0
C      1  0.5246370000000  0.5145110000000  0.4788020000000 1.0
C      1  0.4717450000000  0.5108660000000  0.4856220000000 1.0
C      1  0.5060270000000  0.5170580000000  0.5281140000000 1.0
C      1  0.4627800000000  0.4529000000000  0.4783260000000 1.0
C      1  0.5036080000000  0.4617770000000  0.5490880000000 1.0
C      1  0.5447640000000  0.4582650000000  0.4782230000000 1.0
C      1  0.5268110000000  0.5391170000000  0.4589600000000 1.0
C      1  0.4523630000000  0.5361820000000  0.4887760000000 1.0
C      1  0.5179160000000  0.5450860000000  0.5381450000000 1.0
C      1  0.4816010000000  0.5220340000000  0.4386710000000 1.0
C      1  0.4577960000000  0.5284350000000  0.5403530000000 1.0
C      1  0.5645500000000  0.5254310000000  0.5236190000000 1.0
C      1  0.5194540000000  0.4400120000000  0.4783130000000 1.0
C      1  0.4756250000000  0.4390220000000  0.5029200000000 1.0
C      1  0.5184910000000  0.4433080000000  0.5287140000000 1.0
C      1  0.4420520000000  0.5358950000000  0.5169090000000 1.0
C      1  0.5475110000000  0.5470940000000  0.5335930000000 1.0
C      1  0.5079650000000  0.5343680000000  0.4361900000000 1.0
C      1  0.5112770000000  0.5268780000000  0.5684940000000 1.0
C      1  0.5573150000000  0.5208090000000  0.4533570000000 1.0
C      1  0.4333600000000  0.5136670000000  0.4690930000000 1.0
C      1  0.4938050000000  0.6050660000000  0.4903020000000 1.0
C      1  0.5086300000000  0.6738230000000  0.5182720000000 1.0
C      1  0.5096400000000  0.6242570000000  0.5050920000000 1.0
C      1  0.4996890000000  0.3311410000000  0.4824800000000 1.0
C      1  0.4966030000000  0.5744670000000  0.4926040000000 1.0
C      1  0.5009310000000  0.5114800000000  0.4980480000000 1.0
C      1  0.5051400000000  0.4294170000000  0.5040650000000 1.0
C      1  0.4874070000000  0.3533540000000  0.4963900000000 1.0
C      1  0.5069030000000  0.3998140000000  0.5060340000000 1.0
C      1  0.4916180000000  0.3812510000000  0.4899230000000 1.0
C      1  0.4978510000000  0.5421930000000  0.4955010000000 1.0
C      1  0.5016190000000  0.4812760000000  0.4994390000000 1.0
C      1  0.5113900000000  0.6524810000000  0.4989160000000 1.0
C      1  0.5003090000000  0.3038820000000  0.4921940000000 1.0
END
