TITL C-862131-2149-1160 74.4145133549901 125000 -860.916655818105 0 0 159 (C3) n - 1
REM
REM in /home/nfs/bkarasulu/CARBON/AIRSS/Generating-Clusters/TERSOFF/Higher-Symm/FIRE-HFTN
REM
REM
REM
REM
REM
REM ./C.cell (b20cbc046b6831c77cfcea5457e17084)
REM AIRSS Version 0.9.1 bugfix July 2018 build 013d7b7c2542+ Fri, 06 Jul 2018 19:26:36 +0100
REM compiler GCC version 9.2.1 20190827 (Red Hat 9.2.1-1)
REM options -cpp -mtune=generic -march=x86-64 -g -O0 -fpre-include=/usr/include/finclude/math-vector-fortran.h
REM seed -397345712 185313443 -2125705443 -1815370350 2032226651 735173125 -1790035986 -487091558 687618641 798696374 2074233317 -2073368393 90699333 1783113789 443740831 1519681842 650075228 971671754 -1970307090 2099563205 -411399128 -160036195 -72193981 -682987140 -2012449936 820536666 -903229031 -131082298 1484212860 440384179 231356602 -596126470 -2062020958
REM
CELL 1.54180   50.00000   50.00000   50.00000   90.00000   90.00000   90.00000
LATT -1
SFAC C  
C      1  0.4974570000000  0.4607130000000  0.6105020000000 1.0
C      1  0.5352940000000  0.5174410000000  0.6105020000000 1.0
C      1  0.4672480000000  0.5218450000000  0.6105020000000 1.0
C      1  0.5504970000000  0.4994430000000  0.4926480000000 1.0
C      1  0.4752340000000  0.5440100000000  0.4926480000000 1.0
C      1  0.4742690000000  0.4565470000000  0.4926480000000 1.0
C      1  0.5010160000000  0.3840960000000  0.4948770000000 1.0
C      1  0.5998680000000  0.5588320000000  0.4948770000000 1.0
C      1  0.3991160000000  0.5570720000000  0.4948770000000 1.0
C      1  0.3893040000000  0.4730930000000  0.5099650000000 1.0
C      1  0.5786510000000  0.4175880000000  0.5099650000000 1.0
C      1  0.5320460000000  0.6093190000000  0.5099660000000 1.0
C      1  0.5065090000000  0.5627020000000  0.5288490000000 1.0
C      1  0.4424450000000  0.4742860000000  0.5288490000000 1.0
C      1  0.5510470000000  0.4630130000000  0.5288490000000 1.0
C      1  0.4549900000000  0.5393210000000  0.5342750000000 1.0
C      1  0.4884520000000  0.4413600000000  0.5342750000000 1.0
C      1  0.5565580000000  0.5193190000000  0.5342750000000 1.0
C      1  0.4082890000000  0.4657640000000  0.5325810000000 1.0
C      1  0.5755050000000  0.4376930000000  0.5325810000000 1.0
C      1  0.5162070000000  0.5965420000000  0.5325810000000 1.0
C      1  0.4479930000000  0.4740820000000  0.6154040000000 1.0
C      1  0.5484490000000  0.4679190000000  0.6154040000000 1.0
C      1  0.5035580000000  0.5579980000000  0.6154040000000 1.0
C      1  0.4356410000000  0.4555400000000  0.4762200000000 1.0
C      1  0.5706830000000  0.4664940000000  0.4762200000000 1.0
C      1  0.4936760000000  0.5779660000000  0.4762200000000 1.0
C      1  0.6024370000000  0.5204860000000  0.4409370000000 1.0
C      1  0.4310400000000  0.5784700000000  0.4409370000000 1.0
C      1  0.4665220000000  0.4010440000000  0.4409370000000 1.0
C      1  0.4966520000000  0.5460210000000  0.4063530000000 1.0
C      1  0.4618190000000  0.4740900000000  0.4063530000000 1.0
C      1  0.5415290000000  0.4798890000000  0.4063530000000 1.0
C      1  0.4580050000000  0.5749630000000  0.5008700000000 1.0
C      1  0.4560770000000  0.4261500000000  0.5008700000000 1.0
C      1  0.5859170000000  0.4988870000000  0.5008700000000 1.0
C      1  0.5803500000000  0.4974140000000  0.5483830000000 1.0
C      1  0.4620640000000  0.5708780000000  0.5483830000000 1.0
C      1  0.4575850000000  0.4317080000000  0.5483830000000 1.0
C      1  0.6091410000000  0.4698170000000  0.4542710000000 1.0
C      1  0.4715690000000  0.6096110000000  0.4542720000000 1.0
C      1  0.4192900000000  0.4205730000000  0.4542710000000 1.0
C      1  0.5196640000000  0.4937630000000  0.4393580000000 1.0
C      1  0.4955700000000  0.5201480000000  0.4393580000000 1.0
C      1  0.4847660000000  0.4860890000000  0.4393580000000 1.0
C      1  0.5404810000000  0.5950800000000  0.4841670000000 1.0
C      1  0.3974180000000  0.4875170000000  0.4841660000000 1.0
C      1  0.5621010000000  0.4174030000000  0.4841660000000 1.0
C      1  0.4385950000000  0.5052230000000  0.4387510000000 1.0
C      1  0.5261790000000  0.4442100000000  0.4387510000000 1.0
C      1  0.5352260000000  0.5505670000000  0.4387510000000 1.0
C      1  0.4696100000000  0.5094110000000  0.5479650000000 1.0
C      1  0.5070450000000  0.4689760000000  0.5479650000000 1.0
C      1  0.5233450000000  0.5216130000000  0.5479650000000 1.0
C      1  0.4372510000000  0.5375710000000  0.5090630000000 1.0
C      1  0.4988370000000  0.4268730000000  0.5090630000000 1.0
C      1  0.5639120000000  0.5355560000000  0.5090630000000 1.0
C      1  0.5287980000000  0.4935990000000  0.5631540000000 1.0
C      1  0.4911450000000  0.5281400000000  0.5631540000000 1.0
C      1  0.4800580000000  0.4782610000000  0.5631540000000 1.0
C      1  0.5740100000000  0.5260380000000  0.4351110000000 1.0
C      1  0.4404450000000  0.5510750000000  0.4351110000000 1.0
C      1  0.4855450000000  0.4228870000000  0.4351110000000 1.0
C      1  0.5218630000000  0.5764170000000  0.4378400000000 1.0
C      1  0.4228890000000  0.4807250000000  0.4378400000000 1.0
C      1  0.5552480000000  0.4428570000000  0.4378400000000 1.0
C      1  0.4873380000000  0.3887220000000  0.5220890000000 1.0
C      1  0.6027010000000  0.5446740000000  0.5220890000000 1.0
C      1  0.4099610000000  0.5666050000000  0.5220900000000 1.0
C      1  0.5217280000000  0.5299720000000  0.4182040000000 1.0
C      1  0.4631790000000  0.5038310000000  0.4182040000000 1.0
C      1  0.5150920000000  0.4661970000000  0.4182040000000 1.0
C      1  0.5469130000000  0.5734220000000  0.5594300000000 1.0
C      1  0.4129580000000  0.5039170000000  0.5594300000000 1.0
C      1  0.5401280000000  0.4226610000000  0.5594300000000 1.0
C      1  0.4365080000000  0.4601660000000  0.4199200000000 1.0
C      1  0.5662430000000  0.4649320000000  0.4199200000000 1.0
C      1  0.4972480000000  0.5749030000000  0.4199200000000 1.0
C      1  0.4725940000000  0.5868970000000  0.4331930000000 1.0
C      1  0.4384480000000  0.4328170000000  0.4331930000000 1.0
C      1  0.5889580000000  0.4802860000000  0.4331930000000 1.0
C      1  0.4315420000000  0.5911610000000  0.4675490000000 1.0
C      1  0.4552810000000  0.3951330000000  0.4675490000000 1.0
C      1  0.6131770000000  0.5137060000000  0.4675490000000 1.0
C      1  0.6097610000000  0.4658520000000  0.5108730000000 1.0
C      1  0.4746930000000  0.6121300000000  0.5108730000000 1.0
C      1  0.4155460000000  0.4220180000000  0.5108730000000 1.0
C      1  0.5643470000000  0.5531480000000  0.4365070000000 1.0
C      1  0.4217990000000  0.5291520000000  0.4365070000000 1.0
C      1  0.5138540000000  0.4177000000000  0.4365060000000 1.0
C      1  0.4869630000000  0.4751330000000  0.5093770000000 1.0
C      1  0.5280540000000  0.5011430000000  0.5093770000000 1.0
C      1  0.4849830000000  0.5237230000000  0.5093770000000 1.0
C      1  0.5185260000000  0.4739190000000  0.5170700000000 1.0
C      1  0.5133240000000  0.5290840000000  0.5170700000000 1.0
C      1  0.4681500000000  0.4969970000000  0.5170700000000 1.0
C      1  0.5720820000000  0.5778190000000  0.4836940000000 1.0
C      1  0.3965650000000  0.5235160000000  0.4836940000000 1.0
C      1  0.5313520000000  0.3986650000000  0.4836940000000 1.0
C      1  0.5961400000000  0.4659370000000  0.5411840000000 1.0
C      1  0.4814300000000  0.6002910000000  0.5411850000000 1.0
C      1  0.4224310000000  0.4337720000000  0.5411840000000 1.0
C      1  0.4457000000000  0.5032450000000  0.6165660000000 1.0
C      1  0.5243400000000  0.4513530000000  0.6165660000000 1.0
C      1  0.5299600000000  0.5454020000000  0.6165660000000 1.0
C      1  0.4352690000000  0.4869390000000  0.5567660000000 1.0
C      1  0.5436770000000  0.4504720000000  0.5567660000000 1.0
C      1  0.5210540000000  0.5625890000000  0.5567660000000 1.0
C      1  0.4569760000000  0.6036160000000  0.4805840000000 1.0
C      1  0.4317780000000  0.4109320000000  0.4805840000000 1.0
C      1  0.6112460000000  0.4854520000000  0.4805840000000 1.0
C      1  0.4812640000000  0.5564110000000  0.5685530000000 1.0
C      1  0.4605140000000  0.4555680000000  0.5685530000000 1.0
C      1  0.5582220000000  0.4880200000000  0.5685530000000 1.0
C      1  0.5655540000000  0.5723130000000  0.5378890000000 1.0
C      1  0.4045980000000  0.5206150000000  0.5378890000000 1.0
C      1  0.5298480000000  0.4070720000000  0.5378880000000 1.0
C      1  0.5277970000000  0.5512020000000  0.4946000000000 1.0
C      1  0.4417590000000  0.4984710000000  0.4946000000000 1.0
C      1  0.5304440000000  0.4503260000000  0.4946000000000 1.0
C      1  0.4348490000000  0.4496350000000  0.5045190000000 1.0
C      1  0.5761930000000  0.4687600000000  0.5045190000000 1.0
C      1  0.4889580000000  0.5816050000000  0.5045190000000 1.0
C      1  0.4390970000000  0.5767760000000  0.5239670000000 1.0
C      1  0.4639610000000  0.4088680000000  0.5239670000000 1.0
C      1  0.5969420000000  0.5143560000000  0.5239670000000 1.0
C      1  0.4005670000000  0.5488020000000  0.5427980000000 1.0
C      1  0.5074530000000  0.3894870000000  0.5427980000000 1.0
C      1  0.5919810000000  0.5617110000000  0.5427980000000 1.0
C      1  0.5775910000000  0.5733720000000  0.4531470000000 1.0
C      1  0.3976630000000  0.5305100000000  0.4531470000000 1.0
C      1  0.5247460000000  0.3961190000000  0.4531460000000 1.0
C      1  0.4881790000000  0.4347410000000  0.4754860000000 1.0
C      1  0.5624270000000  0.5223920000000  0.4754860000000 1.0
C      1  0.4493950000000  0.5428670000000  0.4754860000000 1.0
C      1  0.4895970000000  0.4615990000000  0.4008300000000 1.0
C      1  0.5384570000000  0.5101910000000  0.4008300000000 1.0
C      1  0.4719450000000  0.5282100000000  0.4008300000000 1.0
C      1  0.5182310000000  0.5870650000000  0.4648640000000 1.0
C      1  0.4154840000000  0.4722570000000  0.4648640000000 1.0
C      1  0.5662850000000  0.4406790000000  0.4648640000000 1.0
C      1  0.5283020000000  0.4195780000000  0.5089260000000 1.0
C      1  0.5554970000000  0.5647210000000  0.5089270000000 1.0
C      1  0.4162010000000  0.5157010000000  0.5089270000000 1.0
C      1  0.4719190000000  0.5429420000000  0.4401500000000 1.0
C      1  0.4768520000000  0.4542100000000  0.4401500000000 1.0
C      1  0.5512290000000  0.5028480000000  0.4401500000000 1.0
C      1  0.4920940000000  0.5707650000000  0.5916770000000 1.0
C      1  0.4426690000000  0.4577700000000  0.5916770000000 1.0
C      1  0.5652380000000  0.4714640000000  0.5916770000000 1.0
C      1  0.4893190000000  0.5160400000000  0.5916880000000 1.0
C      1  0.4914500000000  0.4827300000000  0.5916880000000 1.0
C      1  0.5192320000000  0.5012300000000  0.5916880000000 1.0
C      1  0.4479490000000  0.5129990000000  0.4676650000000 1.0
C      1  0.5147680000000  0.4484230000000  0.4676650000000 1.0
C      1  0.5372830000000  0.5385780000000  0.4676650000000 1.0
C      1  0.4557920000000  0.4408230000000  0.4586900000000 1.0
C      1  0.5733530000000  0.4913030000000  0.4586900000000 1.0
C      1  0.4708550000000  0.5678740000000  0.4586910000000 1.0
END
