TITL C-862128-1543-1264 5438.61179451065 125000 -131.380376790769 0 0 26 (C1) n - 1
REM
REM in /home/nfs/bkarasulu/CARBON/AIRSS/Generating-Clusters/TERSOFF/Higher-Symm/FIRE-HFTN
REM
REM
REM
REM
REM
REM ./C.cell (b20cbc046b6831c77cfcea5457e17084)
REM AIRSS Version 0.9.1 bugfix July 2018 build 013d7b7c2542+ Fri, 06 Jul 2018 19:26:36 +0100
REM compiler GCC version 9.2.1 20190827 (Red Hat 9.2.1-1)
REM options -cpp -mtune=generic -march=x86-64 -g -O0 -fpre-include=/usr/include/finclude/math-vector-fortran.h
REM seed 2100579912 4234252 -1577482192 1375488075 -1148944191 1390122652 1507165482 -2138049971 -2136385440 -1996386195 -539018601 803122323 1583514049 -412794843 -2057883658 1335738449 -142185167 -2019252194 239931295 -597553054 999477482 -1536144524 1970657790 1669615266 -848901834 -777237084 -73300127 1874292067 286642252 494849974 -2003910530 -171938830 83099889
REM
CELL 1.54180   50.00000   50.00000   50.00000   90.00000   90.00000   90.00000
LATT -1
SFAC C  
C      1  0.5293940000000  0.5323650000000  0.4793860000000 1.0
C      1  0.4701210000000  0.5310150000000  0.4800530000000 1.0
C      1  0.5124200000000  0.4807420000000  0.5665730000000 1.0
C      1  0.4840480000000  0.4859770000000  0.5668090000000 1.0
C      1  0.4732890000000  0.5138700000000  0.5107790000000 1.0
C      1  0.5268760000000  0.5150640000000  0.5101490000000 1.0
C      1  0.5137370000000  0.5537070000000  0.4564660000000 1.0
C      1  0.4842410000000  0.5532510000000  0.4569770000000 1.0
C      1  0.4731160000000  0.4625080000000  0.4923280000000 1.0
C      1  0.5268050000000  0.4641640000000  0.4939480000000 1.0
C      1  0.4854330000000  0.5113830000000  0.4595920000000 1.0
C      1  0.5148500000000  0.5118670000000  0.4595610000000 1.0
C      1  0.5127430000000  0.4356940000000  0.5214380000000 1.0
C      1  0.4938840000000  0.4552070000000  0.5315030000000 1.0
C      1  0.5145350000000  0.5298320000000  0.5329620000000 1.0
C      1  0.4856730000000  0.5288450000000  0.5333730000000 1.0
C      1  0.4743090000000  0.4858240000000  0.4518770000000 1.0
C      1  0.5267610000000  0.4864290000000  0.4526690000000 1.0
C      1  0.5184380000000  0.4846020000000  0.5142710000000 1.0
C      1  0.4825730000000  0.4811650000000  0.5143280000000 1.0
C      1  0.4851390000000  0.5527950000000  0.4989250000000 1.0
C      1  0.5138980000000  0.5536370000000  0.4984230000000 1.0
C      1  0.5280210000000  0.4771920000000  0.5422410000000 1.0
C      1  0.4685940000000  0.4868510000000  0.5425890000000 1.0
C      1  0.5158300000000  0.4633530000000  0.4668690000000 1.0
C      1  0.4852730000000  0.4626590000000  0.4659100000000 1.0
END
