TITL C-862506-1665-1071 -0.0699054697770741 125000 -1102.80101793973 0 0 191 (C3) n - 1
REM
REM in /home/nfs/bkarasulu/CARBON/AIRSS/Generating-Clusters/TERSOFF/Higher-Symm/FIRE-HFTN
REM
REM
REM
REM
REM
REM ./C.cell (b20cbc046b6831c77cfcea5457e17084)
REM AIRSS Version 0.9.1 bugfix July 2018 build 013d7b7c2542+ Fri, 06 Jul 2018 19:26:36 +0100
REM compiler GCC version 9.2.1 20190827 (Red Hat 9.2.1-1)
REM options -cpp -mtune=generic -march=x86-64 -g -O0 -fpre-include=/usr/include/finclude/math-vector-fortran.h
REM seed -417191425 -1586797068 1377341740 818291078 -1556615758 -564051789 132919891 1073758512 -1592024832 1764265754 401757918 -1192255556 514406209 819853417 1795003846 18282319 780359037 -613305959 -1328405970 944720070 1172520999 1996128231 1552956970 -310618196 1170911774 1144195870 1088972038 -2120839624 1420966893 2133557845 462250447 791364428 528059185
REM
CELL 1.54180   50.00000   50.00000   50.00000   90.00000   90.00000   90.00000
LATT -1
SFAC C  
C      1  0.5307200000000  0.4801290000000  0.6144040000000 1.0
C      1  0.3856530000000  0.4801300000000  0.4694460000000 1.0
C      1  0.5837240000000  0.4801300000000  0.4162930000000 1.0
C      1  0.5541340000000  0.4426610000000  0.5595610000000 1.0
C      1  0.4214410000000  0.4426610000000  0.5171440000000 1.0
C      1  0.5245220000000  0.4426620000000  0.4234370000000 1.0
C      1  0.3767370000000  0.5269830000000  0.4939150000000 1.0
C      1  0.5669920000000  0.5269830000000  0.3963370000000 1.0
C      1  0.5563690000000  0.5269820000000  0.6098920000000 1.0
C      1  0.5991580000000  0.4566030000000  0.4874780000000 1.0
C      1  0.4613550000000  0.4566030000000  0.5921770000000 1.0
C      1  0.4395850000000  0.4566040000000  0.4204870000000 1.0
C      1  0.5511790000000  0.4055140000000  0.5402850000000 1.0
C      1  0.4396130000000  0.4055140000000  0.5242230000000 1.0
C      1  0.5093060000000  0.4055150000000  0.4356350000000 1.0
C      1  0.6082790000000  0.5335590000000  0.5087290000000 1.0
C      1  0.4383920000000  0.5335590000000  0.5894510000000 1.0
C      1  0.4534270000000  0.5335600000000  0.4019640000000 1.0
C      1  0.4660330000000  0.4592770000000  0.5633060000000 1.0
C      1  0.4622490000000  0.4592780000000  0.4389740000000 1.0
C      1  0.5718160000000  0.4592770000000  0.4978630000000 1.0
C      1  0.4667560000000  0.5766890000000  0.5824180000000 1.0
C      1  0.4453370000000  0.5766900000000  0.4300450000000 1.0
C      1  0.5880060000000  0.5766900000000  0.4876820000000 1.0
C      1  0.4356100000000  0.5510010000000  0.4192820000000 1.0
C      1  0.6021900000000  0.5510000000000  0.4846400000000 1.0
C      1  0.4622980000000  0.5510000000000  0.5962230000000 1.0
C      1  0.5399940000000  0.5948850000000  0.5173780000000 1.0
C      1  0.4650440000000  0.5948850000000  0.5259910000000 1.0
C      1  0.4950600000000  0.5948850000000  0.4567750000000 1.0
C      1  0.6202790000000  0.5160630000000  0.5520550000000 1.0
C      1  0.3948700000000  0.5160640000000  0.5781810000000 1.0
C      1  0.4849490000000  0.5160640000000  0.3699080000000 1.0
C      1  0.3827240000000  0.4579390000000  0.4940730000000 1.0
C      1  0.5638610000000  0.4579390000000  0.4014430000000 1.0
C      1  0.5535130000000  0.4579380000000  0.6046270000000 1.0
C      1  0.4792960000000  0.5418710000000  0.3840450000000 1.0
C      1  0.6108630000000  0.5418710000000  0.5400910000000 1.0
C      1  0.4099390000000  0.5418710000000  0.5760080000000 1.0
C      1  0.5517140000000  0.5635000000000  0.4433330000000 1.0
C      1  0.5233090000000  0.5635000000000  0.5731630000000 1.0
C      1  0.4250750000000  0.5635000000000  0.4836480000000 1.0
C      1  0.5386400000000  0.4313910000000  0.5994470000000 1.0
C      1  0.3946460000000  0.4313910000000  0.4837830000000 1.0
C      1  0.5668110000000  0.4313910000000  0.4169120000000 1.0
C      1  0.5717360000000  0.5746970000000  0.5572900000000 1.0
C      1  0.4146080000000  0.5746980000000  0.5335240000000 1.0
C      1  0.5137540000000  0.5746980000000  0.4093300000000 1.0
C      1  0.3991160000000  0.4499670000000  0.4562400000000 1.0
C      1  0.5884290000000  0.4499660000000  0.4345550000000 1.0
C      1  0.5125520000000  0.4499660000000  0.6093480000000 1.0
C      1  0.4613520000000  0.4787520000000  0.4780400000000 1.0
C      1  0.5384320000000  0.4787520000000  0.4775530000000 1.0
C      1  0.5003140000000  0.4787520000000  0.5445500000000 1.0
C      1  0.5057430000000  0.5308790000000  0.4455650000000 1.0
C      1  0.5443610000000  0.5308780000000  0.5322350000000 1.0
C      1  0.4499940000000  0.5308780000000  0.5223440000000 1.0
C      1  0.4892190000000  0.4157250000000  0.5843960000000 1.0
C      1  0.4323920000000  0.4157250000000  0.4485080000000 1.0
C      1  0.5784870000000  0.4157250000000  0.4672380000000 1.0
C      1  0.4206280000000  0.4323890000000  0.5636320000000 1.0
C      1  0.4846690000000  0.4323890000000  0.3994880000000 1.0
C      1  0.5948010000000  0.4323880000000  0.5370220000000 1.0
C      1  0.4643010000000  0.3992900000000  0.4874430000000 1.0
C      1  0.5288140000000  0.3992900000000  0.4754050000000 1.0
C      1  0.5069830000000  0.3992900000000  0.5372940000000 1.0
C      1  0.5152530000000  0.5816700000000  0.4756160000000 1.0
C      1  0.5135820000000  0.5816700000000  0.5254450000000 1.0
C      1  0.4712640000000  0.5816700000000  0.4990830000000 1.0
C      1  0.4623640000000  0.5061070000000  0.4424640000000 1.0
C      1  0.5687360000000  0.5061060000000  0.4962180000000 1.0
C      1  0.4689980000000  0.5061060000000  0.5614620000000 1.0
C      1  0.5354840000000  0.4428760000000  0.4762210000000 1.0
C      1  0.5029410000000  0.4428760000000  0.5426630000000 1.0
C      1  0.4616720000000  0.4428760000000  0.4812590000000 1.0
C      1  0.4457820000000  0.5171840000000  0.4629500000000 1.0
C      1  0.5592860000000  0.5171830000000  0.4716150000000 1.0
C      1  0.4950300000000  0.5171830000000  0.5655790000000 1.0
C      1  0.4567380000000  0.5013190000000  0.5315130000000 1.0
C      1  0.4944310000000  0.5013200000000  0.4468210000000 1.0
C      1  0.5489290000000  0.5013190000000  0.5218100000000 1.0
C      1  0.5083370000000  0.4170070000000  0.5623600000000 1.0
C      1  0.4419160000000  0.4170080000000  0.4760830000000 1.0
C      1  0.5498450000000  0.4170080000000  0.4616990000000 1.0
C      1  0.5575780000000  0.5571300000000  0.6065390000000 1.0
C      1  0.3790360000000  0.5571300000000  0.4966380000000 1.0
C      1  0.5634840000000  0.5571310000000  0.3969660000000 1.0
C      1  0.4363060000000  0.5027440000000  0.5953760000000 1.0
C      1  0.4493390000000  0.5027450000000  0.3971950000000 1.0
C      1  0.6144530000000  0.5027440000000  0.5075720000000 1.0
C      1  0.5237340000000  0.4863470000000  0.4503500000000 1.0
C      1  0.5312220000000  0.4863460000000  0.5454220000000 1.0
C      1  0.4451420000000  0.4863460000000  0.5043710000000 1.0
C      1  0.3816570000000  0.4647770000000  0.5226880000000 1.0
C      1  0.5396130000000  0.4647770000000  0.3862110000000 1.0
C      1  0.5788280000000  0.4647760000000  0.5912430000000 1.0
C      1  0.5664980000000  0.4728760000000  0.5217650000000 1.0
C      1  0.4479920000000  0.4728760000000  0.5467490000000 1.0
C      1  0.4856080000000  0.4728770000000  0.4316280000000 1.0
C      1  0.4906740000000  0.4334890000000  0.4776850000000 1.0
C      1  0.5240780000000  0.4334890000000  0.5031240000000 1.0
C      1  0.4853450000000  0.4334890000000  0.5193340000000 1.0
C      1  0.6102950000000  0.4846420000000  0.4846870000000 1.0
C      1  0.4582040000000  0.4846420000000  0.6032180000000 1.0
C      1  0.4315990000000  0.4846430000000  0.4122380000000 1.0
C      1  0.4114400000000  0.4915880000000  0.5819510000000 1.0
C      1  0.4733980000000  0.4915890000000  0.3823730000000 1.0
C      1  0.6152590000000  0.4915880000000  0.5358190000000 1.0
C      1  0.4862050000000  0.4936530000000  0.5252350000000 1.0
C      1  0.4851340000000  0.4936530000000  0.4754790000000 1.0
C      1  0.5287590000000  0.4936530000000  0.4994290000000 1.0
C      1  0.5400970000000  0.4899500000000  0.3718710000000 1.0
C      1  0.5910050000000  0.4899490000000  0.5988330000000 1.0
C      1  0.3689960000000  0.4899500000000  0.5294390000000 1.0
C      1  0.4182130000000  0.4166590000000  0.4995860000000 1.0
C      1  0.5413420000000  0.4166590000000  0.4294200000000 1.0
C      1  0.5405430000000  0.4166580000000  0.5711360000000 1.0
C      1  0.4932190000000  0.4771810000000  0.4011690000000 1.0
C      1  0.5890710000000  0.4771810000000  0.5435860000000 1.0
C      1  0.4178090000000  0.4771810000000  0.5553880000000 1.0
C      1  0.5155290000000  0.5590240000000  0.5440240000000 1.0
C      1  0.4542000000000  0.5590240000000  0.4914800000000 1.0
C      1  0.5303690000000  0.5590240000000  0.4646400000000 1.0
C      1  0.5350290000000  0.5046380000000  0.5677590000000 1.0
C      1  0.4238950000000  0.5046390000000  0.4965000000000 1.0
C      1  0.5411740000000  0.5046390000000  0.4358840000000 1.0
C      1  0.4441780000000  0.5904120000000  0.5704870000000 1.0
C      1  0.4669590000000  0.5904130000000  0.4164570000000 1.0
C      1  0.5889620000000  0.5904120000000  0.5132010000000 1.0
C      1  0.3792500000000  0.5157370000000  0.5213720000000 1.0
C      1  0.5419570000000  0.5157370000000  0.3847850000000 1.0
C      1  0.5788910000000  0.5157360000000  0.5939870000000 1.0
C      1  0.4449290000000  0.4554990000000  0.5087160000000 1.0
C      1  0.5200780000000  0.4554990000000  0.4479920000000 1.0
C      1  0.5350910000000  0.4554980000000  0.5434350000000 1.0
C      1  0.5725060000000  0.5245060000000  0.5671660000000 1.0
C      1  0.4056700000000  0.5245060000000  0.5292520000000 1.0
C      1  0.5219230000000  0.5245070000000  0.4037250000000 1.0
C      1  0.5952690000000  0.4392960000000  0.4626790000000 1.0
C      1  0.4847760000000  0.4392960000000  0.6012090000000 1.0
C      1  0.4200530000000  0.4392960000000  0.4362540000000 1.0
C      1  0.6112400000000  0.4427200000000  0.5133730000000 1.0
C      1  0.4328880000000  0.4427200000000  0.5896930000000 1.0
C      1  0.4559700000000  0.4427210000000  0.3970760000000 1.0
C      1  0.4917800000000  0.5956530000000  0.5419630000000 1.0
C      1  0.4678600000000  0.5956530000000  0.4719440000000 1.0
C      1  0.5404580000000  0.5956530000000  0.4862380000000 1.0
C      1  0.4656420000000  0.5532760000000  0.5314800000000 1.0
C      1  0.4900070000000  0.5532760000000  0.4545490000000 1.0
C      1  0.5444490000000  0.5532760000000  0.5141150000000 1.0
C      1  0.4695820000000  0.4074850000000  0.5160240000000 1.0
C      1  0.5014220000000  0.4074850000000  0.4656890000000 1.0
C      1  0.5290940000000  0.4074840000000  0.5184300000000 1.0
C      1  0.5516280000000  0.5716380000000  0.5806150000000 1.0
C      1  0.4044620000000  0.5716380000000  0.5044470000000 1.0
C      1  0.5440080000000  0.5716380000000  0.4150820000000 1.0
C      1  0.4943480000000  0.5904940000000  0.4267230000000 1.0
C      1  0.5663760000000  0.5904930000000  0.5317880000000 1.0
C      1  0.4393740000000  0.5904930000000  0.5416340000000 1.0
C      1  0.5429170000000  0.5341960000000  0.5637270000000 1.0
C      1  0.4234430000000  0.5341970000000  0.5053470000000 1.0
C      1  0.5337390000000  0.5341970000000  0.4310690000000 1.0
C      1  0.3910430000000  0.5108810000000  0.4712100000000 1.0
C      1  0.5795020000000  0.5108810000000  0.4200780000000 1.0
C      1  0.5295530000000  0.5108800000000  0.6088550000000 1.0
C      1  0.5011540000000  0.5629970000000  0.3850310000000 1.0
C      1  0.5990800000000  0.5629960000000  0.5585270000000 1.0
C      1  0.3998640000000  0.5629960000000  0.5565860000000 1.0
C      1  0.5345040000000  0.5330330000000  0.4760740000000 1.0
C      1  0.5035590000000  0.5330330000000  0.5418880000000 1.0
C      1  0.4620350000000  0.5330330000000  0.4821820000000 1.0
C      1  0.4044710000000  0.4525670000000  0.5420500000000 1.0
C      1  0.5114380000000  0.4525680000000  0.3962880000000 1.0
C      1  0.5841890000000  0.4525670000000  0.5618050000000 1.0
C      1  0.5640030000000  0.5834010000000  0.4707240000000 1.0
C      1  0.4934430000000  0.5834010000000  0.5701100000000 1.0
C      1  0.4426520000000  0.5834010000000  0.4593100000000 1.0
C      1  0.5003850000000  0.5066540000000  0.4117190000000 1.0
C      1  0.5763520000000  0.5066530000000  0.5445170000000 1.0
C      1  0.4233620000000  0.5066530000000  0.5439070000000 1.0
C      1  0.5793150000000  0.4079060000000  0.5336510000000 1.0
C      1  0.4312900000000  0.4079060000000  0.5519070000000 1.0
C      1  0.4894920000000  0.4079070000000  0.4145850000000 1.0
C      1  0.4128660000000  0.5387660000000  0.4326280000000 1.0
C      1  0.6020040000000  0.5387650000000  0.4582690000000 1.0
C      1  0.4852290000000  0.5387650000000  0.6092470000000 1.0
C      1  0.5796110000000  0.5230420000000  0.4487710000000 1.0
C      1  0.5046500000000  0.5230420000000  0.5946030000000 1.0
C      1  0.4158370000000  0.5230430000000  0.4567690000000 1.0
C      1  0.5000330000000  0.5755330000000  0.5000480000000 1.0
C      1  0.5000330000000  0.4992810000000  0.5000480000000 1.0
END
