TITL C-862507-1800-695 -9.8328544572927e-06 125000 -951.316185007378 0 0 168 (Oh) n - 1
REM
REM in /home/nfs/bkarasulu/CARBON/AIRSS/Generating-Clusters/TERSOFF/Higher-Symm/FIRE-HFTN
REM
REM
REM
REM
REM
REM ./C.cell (b20cbc046b6831c77cfcea5457e17084)
REM AIRSS Version 0.9.1 bugfix July 2018 build 013d7b7c2542+ Fri, 06 Jul 2018 19:26:36 +0100
REM compiler GCC version 9.2.1 20190827 (Red Hat 9.2.1-1)
REM options -cpp -mtune=generic -march=x86-64 -g -O0 -fpre-include=/usr/include/finclude/math-vector-fortran.h
REM seed -214849456 -118747957 -1397824588 -1369767871 -29139272 -2079613082 843573326 368784612 1985186168 -85911249 -1803221472 -1551484409 -2091069858 -1605912931 1034737804 -427216310 187988055 -1249804333 -1294643419 -337026103 2108849134 74388331 -969972325 2122368592 -1921746497 1773053477 -2099951408 -535290689 -1224936378 1389979328 -630704419 -478690805 1999242683
REM
CELL 1.54180   50.00000   50.00000   50.00000   90.00000   90.00000   90.00000
LATT -1
SFAC C  
C      1  0.4288550000000  0.5275960000000  0.4288550000000 1.0
C      1  0.5275960000000  0.4288550000000  0.4288550000000 1.0
C      1  0.4288550000000  0.4288550000000  0.5275960000000 1.0
C      1  0.4288550000000  0.4724040000000  0.5711450000000 1.0
C      1  0.5711450000000  0.5275960000000  0.5711450000000 1.0
C      1  0.5711450000000  0.4724040000000  0.4288550000000 1.0
C      1  0.5275960000000  0.5711450000000  0.5711450000000 1.0
C      1  0.4724040000000  0.4288550000000  0.5711450000000 1.0
C      1  0.4724040000000  0.5711450000000  0.4288550000000 1.0
C      1  0.4288550000000  0.5711450000000  0.4724040000000 1.0
C      1  0.5711450000000  0.4288550000000  0.4724040000000 1.0
C      1  0.5711450000000  0.5711450000000  0.5275960000000 1.0
C      1  0.5711450000000  0.5275960000000  0.4288550000000 1.0
C      1  0.4724040000000  0.4288550000000  0.4288550000000 1.0
C      1  0.5711450000000  0.4288550000000  0.5275960000000 1.0
C      1  0.5711450000000  0.4724040000000  0.5711450000000 1.0
C      1  0.4288550000000  0.5275960000000  0.5711450000000 1.0
C      1  0.4288550000000  0.4724040000000  0.4288550000000 1.0
C      1  0.4724040000000  0.5711450000000  0.5711450000000 1.0
C      1  0.5275960000000  0.4288550000000  0.5711450000000 1.0
C      1  0.5275960000000  0.5711450000000  0.4288550000000 1.0
C      1  0.5711450000000  0.5711450000000  0.4724040000000 1.0
C      1  0.4288550000000  0.4288550000000  0.4724040000000 1.0
C      1  0.4288550000000  0.5711450000000  0.5275960000000 1.0
C      1  0.5546950000000  0.4218220000000  0.4218220000000 1.0
C      1  0.4218220000000  0.4218220000000  0.5546950000000 1.0
C      1  0.4218220000000  0.5546950000000  0.4218220000000 1.0
C      1  0.5546950000000  0.5781780000000  0.5781780000000 1.0
C      1  0.4453050000000  0.4218220000000  0.5781780000000 1.0
C      1  0.4453050000000  0.5781780000000  0.4218220000000 1.0
C      1  0.4218220000000  0.5781780000000  0.4453050000000 1.0
C      1  0.5781780000000  0.4218220000000  0.4453050000000 1.0
C      1  0.5781780000000  0.5781780000000  0.5546950000000 1.0
C      1  0.4218220000000  0.4453050000000  0.5781780000000 1.0
C      1  0.5781780000000  0.5546950000000  0.5781780000000 1.0
C      1  0.5781780000000  0.4453050000000  0.4218220000000 1.0
C      1  0.4453050000000  0.4218220000000  0.4218220000000 1.0
C      1  0.5781780000000  0.4218220000000  0.5546950000000 1.0
C      1  0.5781780000000  0.5546950000000  0.4218220000000 1.0
C      1  0.4453050000000  0.5781780000000  0.5781780000000 1.0
C      1  0.5546950000000  0.4218220000000  0.5781780000000 1.0
C      1  0.5546950000000  0.5781780000000  0.4218220000000 1.0
C      1  0.5781780000000  0.5781780000000  0.4453050000000 1.0
C      1  0.4218220000000  0.4218220000000  0.4453050000000 1.0
C      1  0.4218220000000  0.5781780000000  0.5546950000000 1.0
C      1  0.5781780000000  0.4453050000000  0.5781780000000 1.0
C      1  0.4218220000000  0.5546950000000  0.5781780000000 1.0
C      1  0.4218220000000  0.4453050000000  0.4218220000000 1.0
C      1  0.4478420000000  0.4853960000000  0.5920570000000 1.0
C      1  0.4853960000000  0.5920570000000  0.4478420000000 1.0
C      1  0.5920570000000  0.4478420000000  0.4853960000000 1.0
C      1  0.4478420000000  0.5146040000000  0.4079430000000 1.0
C      1  0.5521580000000  0.4853960000000  0.4079430000000 1.0
C      1  0.5521580000000  0.5146040000000  0.5920570000000 1.0
C      1  0.4853960000000  0.4079430000000  0.5521580000000 1.0
C      1  0.5146040000000  0.5920570000000  0.5521580000000 1.0
C      1  0.5146040000000  0.4079430000000  0.4478420000000 1.0
C      1  0.5920570000000  0.5521580000000  0.5146040000000 1.0
C      1  0.4079430000000  0.4478420000000  0.5146040000000 1.0
C      1  0.4079430000000  0.5521580000000  0.4853960000000 1.0
C      1  0.5521580000000  0.4853960000000  0.5920570000000 1.0
C      1  0.5146040000000  0.5920570000000  0.4478420000000 1.0
C      1  0.4079430000000  0.4478420000000  0.4853960000000 1.0
C      1  0.5521580000000  0.5146040000000  0.4079430000000 1.0
C      1  0.4478420000000  0.4853960000000  0.4079430000000 1.0
C      1  0.4478420000000  0.5146040000000  0.5920570000000 1.0
C      1  0.5146040000000  0.4079430000000  0.5521580000000 1.0
C      1  0.4853960000000  0.5920570000000  0.5521580000000 1.0
C      1  0.4853960000000  0.4079430000000  0.4478420000000 1.0
C      1  0.4079430000000  0.5521580000000  0.5146040000000 1.0
C      1  0.5920570000000  0.4478420000000  0.5146040000000 1.0
C      1  0.5920570000000  0.5521580000000  0.4853960000000 1.0
C      1  0.4694570000000  0.4694570000000  0.6052380000000 1.0
C      1  0.4694570000000  0.6052380000000  0.4694570000000 1.0
C      1  0.6052380000000  0.4694570000000  0.4694570000000 1.0
C      1  0.4694570000000  0.5305430000000  0.3947620000000 1.0
C      1  0.5305430000000  0.4694570000000  0.3947620000000 1.0
C      1  0.5305430000000  0.5305430000000  0.6052380000000 1.0
C      1  0.4694570000000  0.3947620000000  0.5305430000000 1.0
C      1  0.5305430000000  0.6052380000000  0.5305430000000 1.0
C      1  0.5305430000000  0.3947620000000  0.4694570000000 1.0
C      1  0.6052380000000  0.5305430000000  0.5305430000000 1.0
C      1  0.3947620000000  0.4694570000000  0.5305430000000 1.0
C      1  0.3947620000000  0.5305430000000  0.4694570000000 1.0
C      1  0.5305430000000  0.4694570000000  0.6052380000000 1.0
C      1  0.5305430000000  0.6052380000000  0.4694570000000 1.0
C      1  0.3947620000000  0.4694570000000  0.4694570000000 1.0
C      1  0.5305430000000  0.5305430000000  0.3947620000000 1.0
C      1  0.4694570000000  0.4694570000000  0.3947620000000 1.0
C      1  0.4694570000000  0.5305430000000  0.6052380000000 1.0
C      1  0.5305430000000  0.3947620000000  0.5305430000000 1.0
C      1  0.4694570000000  0.6052380000000  0.5305430000000 1.0
C      1  0.4694570000000  0.3947620000000  0.4694570000000 1.0
C      1  0.3947620000000  0.5305430000000  0.5305430000000 1.0
C      1  0.6052380000000  0.4694570000000  0.5305430000000 1.0
C      1  0.6052380000000  0.5305430000000  0.4694570000000 1.0
C      1  0.4478420000000  0.4079430000000  0.4853960000000 1.0
C      1  0.4079430000000  0.4853960000000  0.4478420000000 1.0
C      1  0.4853960000000  0.4478420000000  0.4079430000000 1.0
C      1  0.4478420000000  0.5920570000000  0.5146040000000 1.0
C      1  0.5521580000000  0.4079430000000  0.5146040000000 1.0
C      1  0.5521580000000  0.5920570000000  0.4853960000000 1.0
C      1  0.4079430000000  0.5146040000000  0.5521580000000 1.0
C      1  0.5920570000000  0.4853960000000  0.5521580000000 1.0
C      1  0.5920570000000  0.5146040000000  0.4478420000000 1.0
C      1  0.4853960000000  0.5521580000000  0.5920570000000 1.0
C      1  0.5146040000000  0.4478420000000  0.5920570000000 1.0
C      1  0.5146040000000  0.5521580000000  0.4079430000000 1.0
C      1  0.5521580000000  0.4079430000000  0.4853960000000 1.0
C      1  0.5920570000000  0.4853960000000  0.4478420000000 1.0
C      1  0.5146040000000  0.4478420000000  0.4079430000000 1.0
C      1  0.5521580000000  0.5920570000000  0.5146040000000 1.0
C      1  0.4478420000000  0.4079430000000  0.5146040000000 1.0
C      1  0.4478420000000  0.5920570000000  0.4853960000000 1.0
C      1  0.5920570000000  0.5146040000000  0.5521580000000 1.0
C      1  0.4079430000000  0.4853960000000  0.5521580000000 1.0
C      1  0.4079430000000  0.5146040000000  0.4478420000000 1.0
C      1  0.5146040000000  0.5521580000000  0.5920570000000 1.0
C      1  0.4853960000000  0.4478420000000  0.5920570000000 1.0
C      1  0.4853960000000  0.5521580000000  0.4079430000000 1.0
C      1  0.4501460000000  0.5498540000000  0.4841540000000 1.0
C      1  0.5498540000000  0.4841540000000  0.4501460000000 1.0
C      1  0.4841540000000  0.4501460000000  0.5498540000000 1.0
C      1  0.4501460000000  0.4501460000000  0.5158460000000 1.0
C      1  0.5498540000000  0.5498540000000  0.5158460000000 1.0
C      1  0.5498540000000  0.4501460000000  0.4841540000000 1.0
C      1  0.5498540000000  0.5158460000000  0.5498540000000 1.0
C      1  0.4501460000000  0.4841540000000  0.5498540000000 1.0
C      1  0.4501460000000  0.5158460000000  0.4501460000000 1.0
C      1  0.4841540000000  0.5498540000000  0.4501460000000 1.0
C      1  0.5158460000000  0.4501460000000  0.4501460000000 1.0
C      1  0.5158460000000  0.5498540000000  0.5498540000000 1.0
C      1  0.5498540000000  0.5498540000000  0.4841540000000 1.0
C      1  0.4501460000000  0.4841540000000  0.4501460000000 1.0
C      1  0.5158460000000  0.4501460000000  0.5498540000000 1.0
C      1  0.5498540000000  0.4501460000000  0.5158460000000 1.0
C      1  0.4501460000000  0.5498540000000  0.5158460000000 1.0
C      1  0.4501460000000  0.4501460000000  0.4841540000000 1.0
C      1  0.4501460000000  0.5158460000000  0.5498540000000 1.0
C      1  0.5498540000000  0.4841540000000  0.5498540000000 1.0
C      1  0.5498540000000  0.5158460000000  0.4501460000000 1.0
C      1  0.5158460000000  0.5498540000000  0.4501460000000 1.0
C      1  0.4841540000000  0.4501460000000  0.4501460000000 1.0
C      1  0.4841540000000  0.5498540000000  0.5498540000000 1.0
C      1  0.4819460000000  0.4429930000000  0.5180540000000 1.0
C      1  0.4429930000000  0.5180540000000  0.4819460000000 1.0
C      1  0.5180540000000  0.4819460000000  0.4429930000000 1.0
C      1  0.4819460000000  0.5570070000000  0.4819460000000 1.0
C      1  0.5180540000000  0.4429930000000  0.4819460000000 1.0
C      1  0.5180540000000  0.5570070000000  0.5180540000000 1.0
C      1  0.4429930000000  0.4819460000000  0.5180540000000 1.0
C      1  0.5570070000000  0.5180540000000  0.5180540000000 1.0
C      1  0.5570070000000  0.4819460000000  0.4819460000000 1.0
C      1  0.5180540000000  0.5180540000000  0.5570070000000 1.0
C      1  0.4819460000000  0.4819460000000  0.5570070000000 1.0
C      1  0.4819460000000  0.5180540000000  0.4429930000000 1.0
C      1  0.5180540000000  0.4429930000000  0.5180540000000 1.0
C      1  0.5570070000000  0.5180540000000  0.4819460000000 1.0
C      1  0.4819460000000  0.4819460000000  0.4429930000000 1.0
C      1  0.5180540000000  0.5570070000000  0.4819460000000 1.0
C      1  0.4819460000000  0.4429930000000  0.4819460000000 1.0
C      1  0.4819460000000  0.5570070000000  0.5180540000000 1.0
C      1  0.5570070000000  0.4819460000000  0.5180540000000 1.0
C      1  0.4429930000000  0.5180540000000  0.5180540000000 1.0
C      1  0.4429930000000  0.4819460000000  0.4819460000000 1.0
C      1  0.4819460000000  0.5180540000000  0.5570070000000 1.0
C      1  0.5180540000000  0.4819460000000  0.5570070000000 1.0
C      1  0.5180540000000  0.5180540000000  0.4429930000000 1.0
END
