TITL C-862129-6180-244 -0.055036548644053 125000 -608.703640831449 0 0 112 (C2) n - 1
REM
REM in /home/nfs/bkarasulu/CARBON/AIRSS/Generating-Clusters/TERSOFF/Higher-Symm/FIRE-HFTN
REM
REM
REM
REM
REM
REM ./C.cell (b20cbc046b6831c77cfcea5457e17084)
REM AIRSS Version 0.9.1 bugfix July 2018 build 013d7b7c2542+ Fri, 06 Jul 2018 19:26:36 +0100
REM compiler GCC version 9.2.1 20190827 (Red Hat 9.2.1-1)
REM options -cpp -mtune=generic -march=x86-64 -g -O0 -fpre-include=/usr/include/finclude/math-vector-fortran.h
REM seed -62356874 -556241955 547421438 2113097128 1353174957 431661754 1351622060 101053491 399752105 -548897545 2141303166 -1603333650 2106081727 -2060942633 -238573061 -1336591589 -1765857842 840792976 1568181753 1238626022 1592092323 1806263619 -2011683966 1201786085 -1941308616 801721888 1525843867 -1410574149 563016214 738140524 312344058 1382843706 908690951
REM
CELL 1.54180   50.00000   50.00000   50.00000   90.00000   90.00000   90.00000
LATT -1
SFAC C  
C      1  0.4543150000000  0.4913800000000  0.4220800000000 1.0
C      1  0.5456850000000  0.5086200000000  0.4220800000000 1.0
C      1  0.5175600000000  0.5019930000000  0.6037230000000 1.0
C      1  0.4824400000000  0.4980070000000  0.6037230000000 1.0
C      1  0.4660620000000  0.5478730000000  0.5043120000000 1.0
C      1  0.5339380000000  0.4521270000000  0.5043120000000 1.0
C      1  0.5677330000000  0.5393500000000  0.4588600000000 1.0
C      1  0.4322670000000  0.4606500000000  0.4588600000000 1.0
C      1  0.4428740000000  0.4953190000000  0.5555340000000 1.0
C      1  0.5571260000000  0.5046810000000  0.5555340000000 1.0
C      1  0.5176640000000  0.4664230000000  0.4784320000000 1.0
C      1  0.4823360000000  0.5335770000000  0.4784320000000 1.0
C      1  0.5108840000000  0.4408800000000  0.5374910000000 1.0
C      1  0.4891160000000  0.5591200000000  0.5374910000000 1.0
C      1  0.5054310000000  0.4865400000000  0.5020940000000 1.0
C      1  0.4945690000000  0.5134600000000  0.5020940000000 1.0
C      1  0.5259390000000  0.4886590000000  0.5232550000000 1.0
C      1  0.4740610000000  0.5113410000000  0.5232550000000 1.0
C      1  0.5583640000000  0.4975030000000  0.4702630000000 1.0
C      1  0.4416360000000  0.5024970000000  0.4702630000000 1.0
C      1  0.4286680000000  0.4482580000000  0.5631220000000 1.0
C      1  0.5713320000000  0.5517420000000  0.5631220000000 1.0
C      1  0.4603120000000  0.5516590000000  0.4629140000000 1.0
C      1  0.5396880000000  0.4483410000000  0.4629140000000 1.0
C      1  0.5913450000000  0.4593140000000  0.4714140000000 1.0
C      1  0.4086550000000  0.5406860000000  0.4714140000000 1.0
C      1  0.5586020000000  0.4860280000000  0.4365150000000 1.0
C      1  0.4413980000000  0.5139720000000  0.4365150000000 1.0
C      1  0.5047360000000  0.5893500000000  0.5068490000000 1.0
C      1  0.4952640000000  0.4106500000000  0.5068490000000 1.0
C      1  0.4780150000000  0.4429520000000  0.4348800000000 1.0
C      1  0.5219850000000  0.5570480000000  0.4348800000000 1.0
C      1  0.4249130000000  0.4477120000000  0.5077310000000 1.0
C      1  0.5750870000000  0.5522880000000  0.5077310000000 1.0
C      1  0.4508620000000  0.5911010000000  0.4830570000000 1.0
C      1  0.5491380000000  0.4088990000000  0.4830570000000 1.0
C      1  0.4893340000000  0.5533770000000  0.4217150000000 1.0
C      1  0.5106660000000  0.4466230000000  0.4217150000000 1.0
C      1  0.5292940000000  0.4572870000000  0.5544780000000 1.0
C      1  0.4707060000000  0.5427130000000  0.5544780000000 1.0
C      1  0.5194210000000  0.5079780000000  0.5736930000000 1.0
C      1  0.4805790000000  0.4920220000000  0.5736930000000 1.0
C      1  0.4986590000000  0.4145830000000  0.4766160000000 1.0
C      1  0.5013410000000  0.5854170000000  0.4766160000000 1.0
C      1  0.5629730000000  0.4661240000000  0.4776730000000 1.0
C      1  0.4370270000000  0.5338760000000  0.4776730000000 1.0
C      1  0.4640230000000  0.4141120000000  0.5226530000000 1.0
C      1  0.5359770000000  0.5858880000000  0.5226530000000 1.0
C      1  0.5466050000000  0.5356170000000  0.4358760000000 1.0
C      1  0.4533950000000  0.4643830000000  0.4358760000000 1.0
C      1  0.5123950000000  0.5398180000000  0.4739870000000 1.0
C      1  0.4876050000000  0.4601820000000  0.4739870000000 1.0
C      1  0.4746010000000  0.4635860000000  0.5686590000000 1.0
C      1  0.5253990000000  0.5364140000000  0.5686590000000 1.0
C      1  0.5431610000000  0.4576090000000  0.4341780000000 1.0
C      1  0.4568390000000  0.5423910000000  0.4341780000000 1.0
C      1  0.5917670000000  0.5264830000000  0.5028420000000 1.0
C      1  0.4082330000000  0.4735170000000  0.5028420000000 1.0
C      1  0.5198050000000  0.5661570000000  0.4642180000000 1.0
C      1  0.4801950000000  0.4338430000000  0.4642180000000 1.0
C      1  0.3981900000000  0.5171940000000  0.4867400000000 1.0
C      1  0.6018100000000  0.4828060000000  0.4867400000000 1.0
C      1  0.4761010000000  0.5797100000000  0.4339060000000 1.0
C      1  0.5238990000000  0.4202900000000  0.4339060000000 1.0
C      1  0.4050580000000  0.5297920000000  0.5186280000000 1.0
C      1  0.5949420000000  0.4702080000000  0.5186280000000 1.0
C      1  0.5600460000000  0.5615130000000  0.5344300000000 1.0
C      1  0.4399540000000  0.4384870000000  0.5344300000000 1.0
C      1  0.4939540000000  0.5236010000000  0.4287370000000 1.0
C      1  0.5060460000000  0.4763990000000  0.4287370000000 1.0
C      1  0.4725560000000  0.5067500000000  0.4635660000000 1.0
C      1  0.5274440000000  0.4932500000000  0.4635660000000 1.0
C      1  0.4879880000000  0.4827850000000  0.4537020000000 1.0
C      1  0.5120120000000  0.5172150000000  0.4537020000000 1.0
C      1  0.4727730000000  0.5829050000000  0.4642150000000 1.0
C      1  0.5272270000000  0.4170950000000  0.4642150000000 1.0
C      1  0.4520690000000  0.4787550000000  0.6015330000000 1.0
C      1  0.5479310000000  0.5212450000000  0.6015330000000 1.0
C      1  0.5644000000000  0.5593580000000  0.4808640000000 1.0
C      1  0.4356000000000  0.4406420000000  0.4808640000000 1.0
C      1  0.5201630000000  0.4173590000000  0.5234020000000 1.0
C      1  0.4798370000000  0.5826410000000  0.5234020000000 1.0
C      1  0.4788220000000  0.5038990000000  0.4126260000000 1.0
C      1  0.5211780000000  0.4961010000000  0.4126260000000 1.0
C      1  0.5649530000000  0.5035300000000  0.5273520000000 1.0
C      1  0.4350470000000  0.4964710000000  0.5273520000000 1.0
C      1  0.4802810000000  0.5140220000000  0.5522530000000 1.0
C      1  0.5197190000000  0.4859780000000  0.5522530000000 1.0
C      1  0.5825580000000  0.4718680000000  0.5494090000000 1.0
C      1  0.4174420000000  0.5281320000000  0.5494090000000 1.0
C      1  0.4518240000000  0.4844620000000  0.4999110000000 1.0
C      1  0.5481760000000  0.5155380000000  0.4999110000000 1.0
C      1  0.5944890000000  0.5050490000000  0.5238170000000 1.0
C      1  0.4055110000000  0.4949510000000  0.5238170000000 1.0
C      1  0.4407870000000  0.5489100000000  0.5522540000000 1.0
C      1  0.5592130000000  0.4510900000000  0.5522540000000 1.0
C      1  0.4855550000000  0.4522700000000  0.5256480000000 1.0
C      1  0.5144450000000  0.5477300000000  0.5256480000000 1.0
C      1  0.5470900000000  0.4237490000000  0.5081450000000 1.0
C      1  0.4529100000000  0.5762510000000  0.5081450000000 1.0
C      1  0.4459980000000  0.5243150000000  0.5115600000000 1.0
C      1  0.5540020000000  0.4756850000000  0.5115600000000 1.0
C      1  0.5207150000000  0.5304010000000  0.5018380000000 1.0
C      1  0.4792850000000  0.4695990000000  0.5018380000000 1.0
C      1  0.5734410000000  0.4405550000000  0.5230560000000 1.0
C      1  0.4265590000000  0.5594450000000  0.5230560000000 1.0
C      1  0.4348430000000  0.4752840000000  0.5753190000000 1.0
C      1  0.5651570000000  0.5247160000000  0.5753190000000 1.0
C      1  0.4124590000000  0.4865320000000  0.4743170000000 1.0
C      1  0.5875410000000  0.5134680000000  0.4743170000000 1.0
C      1  0.4655760000000  0.4530320000000  0.5436540000000 1.0
C      1  0.5344240000000  0.5469680000000  0.5436540000000 1.0
END
