TITL C-862505-1648-443 -0.00183267764812008 125000 -422.381137750275 0 0 73 (C2) n - 1
REM
REM in /home/nfs/bkarasulu/CARBON/AIRSS/Generating-Clusters/TERSOFF/Higher-Symm/FIRE-HFTN
REM
REM
REM
REM
REM
REM ./C.cell (b20cbc046b6831c77cfcea5457e17084)
REM AIRSS Version 0.9.1 bugfix July 2018 build 013d7b7c2542+ Fri, 06 Jul 2018 19:26:36 +0100
REM compiler GCC version 9.2.1 20190827 (Red Hat 9.2.1-1)
REM options -cpp -mtune=generic -march=x86-64 -g -O0 -fpre-include=/usr/include/finclude/math-vector-fortran.h
REM seed 1963823342 289573707 1988330508 -40856047 -76133383 -600175795 1952492291 -673260491 -708224337 1080129575 -1299564847 1415928760 -627842111 371376903 1848988958 -799817528 1159303887 690288167 -1425920658 2127209522 -312132714 878093123 -1901791851 1997800646 -1435103005 -974917494 366514641 -1158623381 -1333970282 -123381332 393097258 105440033 -328521983
REM
CELL 1.54180   50.00000   50.00000   50.00000   90.00000   90.00000   90.00000
LATT -1
SFAC C  
C      1  0.4465270000000  0.4853170000000  0.5024240000000 1.0
C      1  0.4465270000000  0.5140700000000  0.4985770000000 1.0
C      1  0.5317190000000  0.5066140000000  0.4759220000000 1.0
C      1  0.5317190000000  0.4927750000000  0.5250790000000 1.0
C      1  0.5434430000000  0.5524210000000  0.5169560000000 1.0
C      1  0.5434440000000  0.4469670000000  0.4840450000000 1.0
C      1  0.4717220000000  0.4740480000000  0.5140420000000 1.0
C      1  0.4717220000000  0.5253400000000  0.4869590000000 1.0
C      1  0.5628860000000  0.4641660000000  0.4980310000000 1.0
C      1  0.5628860000000  0.5352220000000  0.5029700000000 1.0
C      1  0.5700090000000  0.4963770000000  0.5418850000000 1.0
C      1  0.5700090000000  0.5030110000000  0.4591150000000 1.0
C      1  0.5362010000000  0.5393780000000  0.4624450000000 1.0
C      1  0.5362020000000  0.4600110000000  0.5385560000000 1.0
C      1  0.4731330000000  0.5226090000000  0.5312580000000 1.0
C      1  0.4731330000000  0.4767790000000  0.4697430000000 1.0
C      1  0.4821610000000  0.5056730000000  0.4687140000000 1.0
C      1  0.4821620000000  0.4937150000000  0.5322870000000 1.0
C      1  0.4990820000000  0.4933170000000  0.4323150000000 1.0
C      1  0.4990830000000  0.5060710000000  0.5686860000000 1.0
C      1  0.5150480000000  0.4467310000000  0.4949660000000 1.0
C      1  0.5150480000000  0.5526580000000  0.5060350000000 1.0
C      1  0.4457840000000  0.4522860000000  0.5466760000000 1.0
C      1  0.4457830000000  0.5471010000000  0.4543250000000 1.0
C      1  0.4653830000000  0.4336170000000  0.4957940000000 1.0
C      1  0.4653820000000  0.5657700000000  0.5052070000000 1.0
C      1  0.4279580000000  0.4961860000000  0.4501030000000 1.0
C      1  0.4279580000000  0.5032010000000  0.5508990000000 1.0
C      1  0.5079900000000  0.4652520000000  0.4347590000000 1.0
C      1  0.5079900000000  0.5341360000000  0.5662420000000 1.0
C      1  0.4550610000000  0.5177230000000  0.5560930000000 1.0
C      1  0.4550610000000  0.4816640000000  0.4449080000000 1.0
C      1  0.5174150000000  0.4417960000000  0.5243270000000 1.0
C      1  0.5174140000000  0.5575920000000  0.4766730000000 1.0
C      1  0.4429900000000  0.4779470000000  0.5619000000000 1.0
C      1  0.4429890000000  0.5214400000000  0.4391010000000 1.0
C      1  0.4680060000000  0.5530900000000  0.4742530000000 1.0
C      1  0.4680070000000  0.4462980000000  0.5267480000000 1.0
C      1  0.4931720000000  0.5600120000000  0.4600730000000 1.0
C      1  0.4931740000000  0.4393760000000  0.5409280000000 1.0
C      1  0.5475770000000  0.4449760000000  0.4556710000000 1.0
C      1  0.5475760000000  0.5544130000000  0.5453290000000 1.0
C      1  0.4794950000000  0.5329760000000  0.4171640000000 1.0
C      1  0.4794960000000  0.4664110000000  0.5838370000000 1.0
C      1  0.4911710000000  0.5637990000000  0.5226650000000 1.0
C      1  0.4911720000000  0.4355880000000  0.4783360000000 1.0
C      1  0.4903740000000  0.4435480000000  0.4484190000000 1.0
C      1  0.4903740000000  0.5558400000000  0.5525820000000 1.0
C      1  0.4397590000000  0.5589800000000  0.5177760000000 1.0
C      1  0.4397600000000  0.4404070000000  0.4832250000000 1.0
C      1  0.5645500000000  0.4657610000000  0.5288890000000 1.0
C      1  0.5645500000000  0.5336270000000  0.4721110000000 1.0
C      1  0.5074370000000  0.5095660000000  0.4556220000000 1.0
C      1  0.5074370000000  0.4898220000000  0.5453790000000 1.0
C      1  0.4996330000000  0.5474640000000  0.4326180000000 1.0
C      1  0.4996340000000  0.4519240000000  0.5683830000000 1.0
C      1  0.4298180000000  0.5321930000000  0.5139230000000 1.0
C      1  0.4298180000000  0.4671940000000  0.4870790000000 1.0
C      1  0.5617750000000  0.4914790000000  0.4874310000000 1.0
C      1  0.5617750000000  0.5079090000000  0.5135690000000 1.0
C      1  0.5386980000000  0.5139010000000  0.4202990000000 1.0
C      1  0.5386990000000  0.4854880000000  0.5807010000000 1.0
C      1  0.4963130000000  0.5252050000000  0.5069900000000 1.0
C      1  0.4963130000000  0.4741820000000  0.4940110000000 1.0
C      1  0.5376920000000  0.4650650000000  0.4377200000000 1.0
C      1  0.5376920000000  0.5343230000000  0.5632800000000 1.0
C      1  0.5287050000000  0.4613040000000  0.5676420000000 1.0
C      1  0.5287040000000  0.5380850000000  0.4333590000000 1.0
C      1  0.4701440000000  0.5034370000000  0.4232640000000 1.0
C      1  0.4701450000000  0.4959500000000  0.5777370000000 1.0
C      1  0.5521570000000  0.5068330000000  0.5653030000000 1.0
C      1  0.5521560000000  0.4925550000000  0.4356970000000 1.0
C      1  0.5132280000000  0.4996940000000  0.5005000000000 1.0
END
