TITL C-862500-986-99 0.00115289999232062 125000 -760.147131555161 0 0 148 (D4) n - 1
REM
REM in /home/nfs/bkarasulu/CARBON/AIRSS/Generating-Clusters/TERSOFF/Higher-Symm/FIRE-HFTN
REM
REM
REM
REM
REM
REM ./C.cell (b20cbc046b6831c77cfcea5457e17084)
REM AIRSS Version 0.9.1 bugfix July 2018 build 013d7b7c2542+ Fri, 06 Jul 2018 19:26:36 +0100
REM compiler GCC version 9.2.1 20190827 (Red Hat 9.2.1-1)
REM options -cpp -mtune=generic -march=x86-64 -g -O0 -fpre-include=/usr/include/finclude/math-vector-fortran.h
REM seed -454675927 697980794 -894918136 2144937666 1610827143 -1241149859 1142285994 1955267872 1709650987 299028454 633850471 1478203905 -303624243 -1943100609 -102385824 -1151657972 1456265656 -680971665 1812061469 -813739711 -556823734 1715903615 -536955631 -513668775 1064676708 -890087864 -2081661933 862043742 1197231175 -929766609 -936225841 1043738669 1278118788
REM
CELL 1.54180   50.00000   50.00000   50.00000   90.00000   90.00000   90.00000
LATT -1
SFAC C  
C      1  0.4294050000000  0.5564290000000  0.5528050000000 1.0
C      1  0.4294050000000  0.4471950000000  0.5564290000000 1.0
C      1  0.4294050000000  0.4435710000000  0.4471950000000 1.0
C      1  0.4294050000000  0.5528050000000  0.4435710000000 1.0
C      1  0.5704510000000  0.4435710000000  0.5528050000000 1.0
C      1  0.5704510000000  0.5528050000000  0.5564290000000 1.0
C      1  0.5704510000000  0.5564290000000  0.4471950000000 1.0
C      1  0.5704510000000  0.4471950000000  0.4435710000000 1.0
C      1  0.5295390000000  0.5134840000000  0.5957980000000 1.0
C      1  0.5295390000000  0.4042020000000  0.5134840000000 1.0
C      1  0.5295390000000  0.4865160000000  0.4042020000000 1.0
C      1  0.5295390000000  0.5957980000000  0.4865160000000 1.0
C      1  0.4703160000000  0.4865160000000  0.5957980000000 1.0
C      1  0.4703160000000  0.5957980000000  0.5134840000000 1.0
C      1  0.4703160000000  0.5134840000000  0.4042020000000 1.0
C      1  0.4703160000000  0.4042020000000  0.4865160000000 1.0
C      1  0.5204940000000  0.4551330000000  0.4060670000000 1.0
C      1  0.5204940000000  0.5939330000000  0.4551330000000 1.0
C      1  0.5204940000000  0.5448670000000  0.5939330000000 1.0
C      1  0.5204940000000  0.4060670000000  0.5448670000000 1.0
C      1  0.4793610000000  0.5448670000000  0.4060670000000 1.0
C      1  0.4793610000000  0.4060670000000  0.4551330000000 1.0
C      1  0.4793610000000  0.4551330000000  0.5939330000000 1.0
C      1  0.4793610000000  0.5939330000000  0.5448670000000 1.0
C      1  0.4133070000000  0.4419140000000  0.4952240000000 1.0
C      1  0.4133070000000  0.5047760000000  0.4419140000000 1.0
C      1  0.4133070000000  0.5580860000000  0.5047760000000 1.0
C      1  0.4133070000000  0.4952240000000  0.5580860000000 1.0
C      1  0.5865490000000  0.5580860000000  0.4952240000000 1.0
C      1  0.5865490000000  0.4952240000000  0.4419140000000 1.0
C      1  0.5865490000000  0.4419140000000  0.5047760000000 1.0
C      1  0.5865490000000  0.5047760000000  0.5580860000000 1.0
C      1  0.5204380000000  0.5217040000000  0.4960470000000 1.0
C      1  0.5204380000000  0.5039530000000  0.5217040000000 1.0
C      1  0.5204380000000  0.4782960000000  0.5039530000000 1.0
C      1  0.5204380000000  0.4960470000000  0.4782960000000 1.0
C      1  0.4794180000000  0.4782960000000  0.4960470000000 1.0
C      1  0.4794180000000  0.4960470000000  0.5217040000000 1.0
C      1  0.4794180000000  0.5217040000000  0.5039530000000 1.0
C      1  0.4794180000000  0.5039530000000  0.4782960000000 1.0
C      1  0.5418430000000  0.5428540000000  0.4885260000000 1.0
C      1  0.5418430000000  0.5114740000000  0.5428540000000 1.0
C      1  0.5418430000000  0.4571460000000  0.5114740000000 1.0
C      1  0.5418430000000  0.4885260000000  0.4571460000000 1.0
C      1  0.4580130000000  0.4571460000000  0.4885260000000 1.0
C      1  0.4580130000000  0.4885260000000  0.5428540000000 1.0
C      1  0.4580130000000  0.5428540000000  0.5114740000000 1.0
C      1  0.4580130000000  0.5114740000000  0.4571460000000 1.0
C      1  0.4367830000000  0.5325380000000  0.4208190000000 1.0
C      1  0.4367830000000  0.5791810000000  0.5325380000000 1.0
C      1  0.4367830000000  0.4674620000000  0.5791810000000 1.0
C      1  0.4367830000000  0.4208190000000  0.4674620000000 1.0
C      1  0.5630730000000  0.4674620000000  0.4208190000000 1.0
C      1  0.5630730000000  0.4208190000000  0.5325380000000 1.0
C      1  0.5630730000000  0.5325380000000  0.5791810000000 1.0
C      1  0.5630730000000  0.5791810000000  0.4674620000000 1.0
C      1  0.4500310000000  0.4219650000000  0.5578220000000 1.0
C      1  0.4500310000000  0.4421780000000  0.4219650000000 1.0
C      1  0.4500310000000  0.5780350000000  0.4421780000000 1.0
C      1  0.4500310000000  0.5578220000000  0.5780350000000 1.0
C      1  0.5498250000000  0.5780350000000  0.5578220000000 1.0
C      1  0.5498250000000  0.5578220000000  0.4219650000000 1.0
C      1  0.5498250000000  0.4219650000000  0.4421780000000 1.0
C      1  0.5498250000000  0.4421780000000  0.5780350000000 1.0
C      1  0.5567450000000  0.4729800000000  0.5503400000000 1.0
C      1  0.5567450000000  0.4496600000000  0.4729800000000 1.0
C      1  0.5567450000000  0.5270200000000  0.4496600000000 1.0
C      1  0.5567450000000  0.5503400000000  0.5270200000000 1.0
C      1  0.4431110000000  0.5270200000000  0.5503400000000 1.0
C      1  0.4431110000000  0.5503400000000  0.4729800000000 1.0
C      1  0.4431110000000  0.4729800000000  0.4496600000000 1.0
C      1  0.4431110000000  0.4496600000000  0.5270200000000 1.0
C      1  0.4093750000000  0.4673910000000  0.5446460000000 1.0
C      1  0.4093750000000  0.4553540000000  0.4673910000000 1.0
C      1  0.4093750000000  0.5326090000000  0.4553540000000 1.0
C      1  0.4093750000000  0.5446460000000  0.5326090000000 1.0
C      1  0.5904810000000  0.5326090000000  0.5446460000000 1.0
C      1  0.5904810000000  0.5446460000000  0.4673910000000 1.0
C      1  0.5904810000000  0.4673910000000  0.4553540000000 1.0
C      1  0.5904810000000  0.4553540000000  0.5326090000000 1.0
C      1  0.5302480000000  0.4319300000000  0.5562660000000 1.0
C      1  0.5302480000000  0.4437340000000  0.4319300000000 1.0
C      1  0.5302480000000  0.5680700000000  0.4437340000000 1.0
C      1  0.5302480000000  0.5562660000000  0.5680700000000 1.0
C      1  0.4696080000000  0.5680700000000  0.5562660000000 1.0
C      1  0.4696080000000  0.5562660000000  0.4319300000000 1.0
C      1  0.4696080000000  0.4319300000000  0.4437340000000 1.0
C      1  0.4696080000000  0.4437340000000  0.5680700000000 1.0
C      1  0.4904370000000  0.4729860000000  0.4141170000000 1.0
C      1  0.4904370000000  0.5858830000000  0.4729860000000 1.0
C      1  0.4904370000000  0.5270140000000  0.5858830000000 1.0
C      1  0.4904370000000  0.4141170000000  0.5270140000000 1.0
C      1  0.5094180000000  0.5270140000000  0.4141170000000 1.0
C      1  0.5094180000000  0.4141170000000  0.4729860000000 1.0
C      1  0.5094180000000  0.4729860000000  0.5858830000000 1.0
C      1  0.5094180000000  0.5858830000000  0.5270140000000 1.0
C      1  0.4352750000000  0.4960470000000  0.5223680000000 1.0
C      1  0.4352750000000  0.4776320000000  0.4960470000000 1.0
C      1  0.4352750000000  0.5039530000000  0.4776320000000 1.0
C      1  0.4352750000000  0.5223680000000  0.5039530000000 1.0
C      1  0.5645810000000  0.5039540000000  0.5223680000000 1.0
C      1  0.5645810000000  0.5223680000000  0.4960460000000 1.0
C      1  0.5645810000000  0.4960460000000  0.4776320000000 1.0
C      1  0.5645810000000  0.4776320000000  0.5039540000000 1.0
C      1  0.4941190000000  0.4446070000000  0.5268680000000 1.0
C      1  0.4941190000000  0.4731320000000  0.4446070000000 1.0
C      1  0.4941190000000  0.5553930000000  0.4731320000000 1.0
C      1  0.4941190000000  0.5268680000000  0.5553930000000 1.0
C      1  0.5057360000000  0.5553930000000  0.5268680000000 1.0
C      1  0.5057360000000  0.5268680000000  0.4446070000000 1.0
C      1  0.5057360000000  0.4446070000000  0.4731320000000 1.0
C      1  0.5057360000000  0.4731320000000  0.5553930000000 1.0
C      1  0.5225340000000  0.4526930000000  0.5371320000000 1.0
C      1  0.5225340000000  0.4628680000000  0.4526930000000 1.0
C      1  0.5225340000000  0.5473070000000  0.4628680000000 1.0
C      1  0.5225340000000  0.5371320000000  0.5473070000000 1.0
C      1  0.4773220000000  0.5473070000000  0.5371320000000 1.0
C      1  0.4773220000000  0.5371320000000  0.4526930000000 1.0
C      1  0.4773220000000  0.4526930000000  0.4628680000000 1.0
C      1  0.4773220000000  0.4628680000000  0.5473070000000 1.0
C      1  0.4452550000000  0.4990070000000  0.4258220000000 1.0
C      1  0.4452550000000  0.5741780000000  0.4990070000000 1.0
C      1  0.4452550000000  0.5009930000000  0.5741780000000 1.0
C      1  0.4452550000000  0.4258220000000  0.5009930000000 1.0
C      1  0.5546010000000  0.5009930000000  0.4258220000000 1.0
C      1  0.5546010000000  0.4258220000000  0.4990070000000 1.0
C      1  0.5546010000000  0.4990070000000  0.5741780000000 1.0
C      1  0.5546010000000  0.5741780000000  0.5009930000000 1.0
C      1  0.5931110000000  0.5144440000000  0.4663310000000 1.0
C      1  0.5931110000000  0.5336690000000  0.5144440000000 1.0
C      1  0.5931110000000  0.4855560000000  0.5336690000000 1.0
C      1  0.5931110000000  0.4663310000000  0.4855560000000 1.0
C      1  0.4067440000000  0.4855560000000  0.4663310000000 1.0
C      1  0.4067440000000  0.4663310000000  0.5144440000000 1.0
C      1  0.4067440000000  0.5144440000000  0.5336690000000 1.0
C      1  0.4067440000000  0.5336690000000  0.4855560000000 1.0
C      1  0.4599720000000  0.5307560000000  0.5885810000000 1.0
C      1  0.4599720000000  0.4114190000000  0.5307560000000 1.0
C      1  0.4599720000000  0.4692440000000  0.4114190000000 1.0
C      1  0.4599720000000  0.5885810000000  0.4692440000000 1.0
C      1  0.5398840000000  0.4692440000000  0.5885810000000 1.0
C      1  0.5398840000000  0.5885810000000  0.5307560000000 1.0
C      1  0.5398840000000  0.5307560000000  0.4114190000000 1.0
C      1  0.5398840000000  0.4114190000000  0.4692440000000 1.0
C      1  0.4999280000000  0.5000000000000  0.5993340000000 1.0
C      1  0.4999280000000  0.4006660000000  0.5000000000000 1.0
C      1  0.4999280000000  0.5000000000000  0.4006660000000 1.0
C      1  0.4999280000000  0.5993340000000  0.5000000000000 1.0
END
