TITL C-862502-1143-650 18.2072145769357 125000 -583.806098316463 0 0 124 (S4) n - 1
REM
REM in /home/nfs/bkarasulu/CARBON/AIRSS/Generating-Clusters/TERSOFF/Higher-Symm/FIRE-HFTN
REM
REM
REM
REM
REM
REM ./C.cell (b20cbc046b6831c77cfcea5457e17084)
REM AIRSS Version 0.9.1 bugfix July 2018 build 013d7b7c2542+ Fri, 06 Jul 2018 19:26:36 +0100
REM compiler GCC version 9.2.1 20190827 (Red Hat 9.2.1-1)
REM options -cpp -mtune=generic -march=x86-64 -g -O0 -fpre-include=/usr/include/finclude/math-vector-fortran.h
REM seed -872022098 1678858965 -201696119 -709627536 -895264265 349827349 506560884 1817229378 -462318672 660475549 620311222 1309099873 1376090915 894501901 -920360440 -1553978493 -1799042653 1969017372 1468970848 983404614 -303007406 -577325018 769135567 1144984621 415077948 1584981659 46028484 40594719 -1226318066 -683904185 -2039897507 1017909688 779575373
REM
CELL 1.54180   50.00000   50.00000   50.00000   90.00000   90.00000   90.00000
LATT -1
SFAC C  
C      1  0.4293340000000  0.4522810000000  0.5341140000000 1.0
C      1  0.5706660000000  0.4522810000000  0.4658860000000 1.0
C      1  0.5705650000000  0.5473440000000  0.5347270000000 1.0
C      1  0.4294350000000  0.5473440000000  0.4652730000000 1.0
C      1  0.5347270000000  0.4526560000000  0.4294350000000 1.0
C      1  0.4652730000000  0.4526560000000  0.5705650000000 1.0
C      1  0.5341140000000  0.5477190000000  0.5706660000000 1.0
C      1  0.4658860000000  0.5477190000000  0.4293340000000 1.0
C      1  0.4509010000000  0.4813590000000  0.4203970000000 1.0
C      1  0.5490990000000  0.4813590000000  0.5796030000000 1.0
C      1  0.5480430000000  0.5189730000000  0.4214120000000 1.0
C      1  0.4519570000000  0.5189730000000  0.5785880000000 1.0
C      1  0.4214120000000  0.4810270000000  0.4519570000000 1.0
C      1  0.5785880000000  0.4810270000000  0.5480430000000 1.0
C      1  0.4203970000000  0.5186410000000  0.5490990000000 1.0
C      1  0.5796030000000  0.5186410000000  0.4509010000000 1.0
C      1  0.4994620000000  0.4789830000000  0.5830130000000 1.0
C      1  0.5005380000000  0.4789830000000  0.4169870000000 1.0
C      1  0.5003510000000  0.5209080000000  0.5825790000000 1.0
C      1  0.4996490000000  0.5209080000000  0.4174210000000 1.0
C      1  0.5825790000000  0.4790920000000  0.4996490000000 1.0
C      1  0.4174210000000  0.4790920000000  0.5003510000000 1.0
C      1  0.5830130000000  0.5210170000000  0.5005380000000 1.0
C      1  0.4169870000000  0.5210170000000  0.4994620000000 1.0
C      1  0.4460420000000  0.5490590000000  0.5771740000000 1.0
C      1  0.5539580000000  0.5490590000000  0.4228260000000 1.0
C      1  0.5547540000000  0.4512430000000  0.5765790000000 1.0
C      1  0.4452460000000  0.4512430000000  0.4234210000000 1.0
C      1  0.5765790000000  0.5487570000000  0.4452460000000 1.0
C      1  0.4234210000000  0.5487570000000  0.5547540000000 1.0
C      1  0.5771740000000  0.4509410000000  0.5539580000000 1.0
C      1  0.4228260000000  0.4509410000000  0.4460420000000 1.0
C      1  0.4471740000000  0.5119640000000  0.5322100000000 1.0
C      1  0.5528260000000  0.5119640000000  0.4677900000000 1.0
C      1  0.5522970000000  0.4880110000000  0.5309850000000 1.0
C      1  0.4477030000000  0.4880110000000  0.4690150000000 1.0
C      1  0.5309850000000  0.5119890000000  0.4477030000000 1.0
C      1  0.4690150000000  0.5119890000000  0.5522970000000 1.0
C      1  0.5322100000000  0.4880360000000  0.5528260000000 1.0
C      1  0.4677900000000  0.4880360000000  0.4471740000000 1.0
C      1  0.4726810000000  0.5002090000000  0.4073380000000 1.0
C      1  0.5273190000000  0.5002100000000  0.5926620000000 1.0
C      1  0.5275210000000  0.4997260000000  0.4077070000000 1.0
C      1  0.4724790000000  0.4997260000000  0.5922930000000 1.0
C      1  0.4077070000000  0.5002740000000  0.4724790000000 1.0
C      1  0.5922930000000  0.5002740000000  0.5275210000000 1.0
C      1  0.4073380000000  0.4997900000000  0.5273190000000 1.0
C      1  0.5926620000000  0.4997900000000  0.4726810000000 1.0
C      1  0.5430300000000  0.5439060000000  0.5234030000000 1.0
C      1  0.4569700000000  0.5439060000000  0.4765970000000 1.0
C      1  0.4569940000000  0.4561640000000  0.5229620000000 1.0
C      1  0.5430060000000  0.4561640000000  0.4770380000000 1.0
C      1  0.5229620000000  0.5438360000000  0.5430060000000 1.0
C      1  0.4770380000000  0.5438360000000  0.4569940000000 1.0
C      1  0.5234030000000  0.4560940000000  0.4569700000000 1.0
C      1  0.4765970000000  0.4560940000000  0.5430300000000 1.0
C      1  0.5766640000000  0.5227640000000  0.5515890000000 1.0
C      1  0.4233360000000  0.5227630000000  0.4484110000000 1.0
C      1  0.4230600000000  0.4768430000000  0.5508710000000 1.0
C      1  0.5769400000000  0.4768430000000  0.4491290000000 1.0
C      1  0.5508710000000  0.5231570000000  0.5769400000000 1.0
C      1  0.4491290000000  0.5231570000000  0.4230600000000 1.0
C      1  0.5515890000000  0.4772360000000  0.4233360000000 1.0
C      1  0.4484110000000  0.4772370000000  0.5766640000000 1.0
C      1  0.4943690000000  0.5579410000000  0.5308330000000 1.0
C      1  0.5056310000000  0.5579410000000  0.4691670000000 1.0
C      1  0.5055360000000  0.4418420000000  0.5314040000000 1.0
C      1  0.4944640000000  0.4418420000000  0.4685960000000 1.0
C      1  0.5314040000000  0.5581580000000  0.4944640000000 1.0
C      1  0.4685960000000  0.5581580000000  0.5055360000000 1.0
C      1  0.5308330000000  0.4420590000000  0.5056310000000 1.0
C      1  0.4691670000000  0.4420590000000  0.4943690000000 1.0
C      1  0.5137360000000  0.4845190000000  0.4469700000000 1.0
C      1  0.4862640000000  0.4845190000000  0.5530300000000 1.0
C      1  0.4856680000000  0.5153490000000  0.4473220000000 1.0
C      1  0.5143320000000  0.5153490000000  0.5526780000000 1.0
C      1  0.4473220000000  0.4846510000000  0.5143320000000 1.0
C      1  0.5526780000000  0.4846510000000  0.4856680000000 1.0
C      1  0.4469700000000  0.5154810000000  0.4862640000000 1.0
C      1  0.5530300000000  0.5154810000000  0.5137360000000 1.0
C      1  0.5868540000000  0.4442980000000  0.4912440000000 1.0
C      1  0.4131460000000  0.4442980000000  0.5087560000000 1.0
C      1  0.4128280000000  0.5556150000000  0.4902490000000 1.0
C      1  0.5871720000000  0.5556150000000  0.5097510000000 1.0
C      1  0.4902490000000  0.4443850000000  0.5871720000000 1.0
C      1  0.5097510000000  0.4443850000000  0.4128280000000 1.0
C      1  0.4912440000000  0.5557020000000  0.4131460000000 1.0
C      1  0.5087560000000  0.5557020000000  0.5868540000000 1.0
C      1  0.5221860000000  0.4855020000000  0.4984030000000 1.0
C      1  0.4778140000000  0.4855020000000  0.5015970000000 1.0
C      1  0.4760900000000  0.5171170000000  0.5023320000000 1.0
C      1  0.5239100000000  0.5171170000000  0.4976680000000 1.0
C      1  0.5023320000000  0.4828830000000  0.5239100000000 1.0
C      1  0.4976680000000  0.4828830000000  0.4760900000000 1.0
C      1  0.4984030000000  0.5144980000000  0.4778140000000 1.0
C      1  0.5015970000000  0.5144980000000  0.5221860000000 1.0
C      1  0.5672570000000  0.4162530000000  0.4871980000000 1.0
C      1  0.4327430000000  0.4162530000000  0.5128020000000 1.0
C      1  0.4323790000000  0.5836530000000  0.4861750000000 1.0
C      1  0.5676210000000  0.5836530000000  0.5138250000000 1.0
C      1  0.4861750000000  0.4163470000000  0.5676210000000 1.0
C      1  0.5138250000000  0.4163470000000  0.4323790000000 1.0
C      1  0.4871980000000  0.5837470000000  0.4327430000000 1.0
C      1  0.5128020000000  0.5837480000000  0.5672570000000 1.0
C      1  0.4871720000000  0.4160900000000  0.5362130000000 1.0
C      1  0.5128280000000  0.4160900000000  0.4637870000000 1.0
C      1  0.5126020000000  0.5838360000000  0.5358360000000 1.0
C      1  0.4873980000000  0.5838360000000  0.4641640000000 1.0
C      1  0.5358360000000  0.4161640000000  0.4873980000000 1.0
C      1  0.4641640000000  0.4161640000000  0.5126020000000 1.0
C      1  0.5362130000000  0.5839100000000  0.5128280000000 1.0
C      1  0.4637870000000  0.5839100000000  0.4871720000000 1.0
C      1  0.5575950000000  0.5469790000000  0.4758570000000 1.0
C      1  0.4424050000000  0.5469790000000  0.5241430000000 1.0
C      1  0.4425080000000  0.4529400000000  0.4763290000000 1.0
C      1  0.5574920000000  0.4529400000000  0.5236710000000 1.0
C      1  0.4763290000000  0.5470600000000  0.5574920000000 1.0
C      1  0.5236710000000  0.5470600000000  0.4425080000000 1.0
C      1  0.4758570000000  0.4530210000000  0.4424050000000 1.0
C      1  0.5241430000000  0.4530210000000  0.5575950000000 1.0
C      1  0.5432320000000  0.5713390000000  0.4565390000000 1.0
C      1  0.4567680000000  0.5713390000000  0.5434610000000 1.0
C      1  0.4565390000000  0.4286610000000  0.4567680000000 1.0
C      1  0.5434610000000  0.4286610000000  0.5432320000000 1.0
END
