TITL C-862506-1665-1224 0.00214490635454633 125000 -1037.15666752625 0 0 186 (D3) n - 1
REM
REM in /home/nfs/bkarasulu/CARBON/AIRSS/Generating-Clusters/TERSOFF/Higher-Symm/FIRE-HFTN
REM
REM
REM
REM
REM
REM ./C.cell (b20cbc046b6831c77cfcea5457e17084)
REM AIRSS Version 0.9.1 bugfix July 2018 build 013d7b7c2542+ Fri, 06 Jul 2018 19:26:36 +0100
REM compiler GCC version 9.2.1 20190827 (Red Hat 9.2.1-1)
REM options -cpp -mtune=generic -march=x86-64 -g -O0 -fpre-include=/usr/include/finclude/math-vector-fortran.h
REM seed -1573502524 -1577115892 -25514881 1201357076 -1401368573 -825589433 -1299942162 277669357 -1919694774 -506710851 361467703 -1583421112 -370540470 -119028910 1061013577 503813839 2054983545 -205962867 1668155041 -1548902875 816164431 -181694513 1904169959 2032348044 -447451934 168333109 -1999703556 365375093 -605117832 381772866 -891845424 1057277849 1090021927
REM
CELL 1.54180   50.00000   50.00000   50.00000   90.00000   90.00000   90.00000
LATT -1
SFAC C  
C      1  0.5814790000000  0.5382170000000  0.4436990000000 1.0
C      1  0.5814790000000  0.4321340000000  0.4950530000000 1.0
C      1  0.5814800000000  0.5296490000000  0.5612470000000 1.0
C      1  0.4185210000000  0.5382170000000  0.5563010000000 1.0
C      1  0.4185210000000  0.4321340000000  0.5049470000000 1.0
C      1  0.4185200000000  0.5296490000000  0.4387530000000 1.0
C      1  0.6011310000000  0.5451870000000  0.5438420000000 1.0
C      1  0.6011300000000  0.5153750000000  0.4389450000000 1.0
C      1  0.6011310000000  0.4394380000000  0.5172120000000 1.0
C      1  0.3988690000000  0.5451870000000  0.4561580000000 1.0
C      1  0.3988700000000  0.5153750000000  0.5610550000000 1.0
C      1  0.3988690000000  0.4394370000000  0.4827890000000 1.0
C      1  0.4830140000000  0.5267850000000  0.4291190000000 1.0
C      1  0.4830140000000  0.4252230000000  0.5122440000000 1.0
C      1  0.4830140000000  0.5479930000000  0.5586370000000 1.0
C      1  0.5169860000000  0.5267850000000  0.5708810000000 1.0
C      1  0.5169860000000  0.4252230000000  0.4877560000000 1.0
C      1  0.5169860000000  0.5479930000000  0.4413630000000 1.0
C      1  0.4685130000000  0.4973670000000  0.5356260000000 1.0
C      1  0.4685130000000  0.5321700000000  0.4844680000000 1.0
C      1  0.4685130000000  0.4704640000000  0.4799070000000 1.0
C      1  0.5314870000000  0.4973670000000  0.4643740000000 1.0
C      1  0.5314870000000  0.5321700000000  0.5155320000000 1.0
C      1  0.5314870000000  0.4704640000000  0.5200940000000 1.0
C      1  0.5560250000000  0.4025070000000  0.4798500000000 1.0
C      1  0.5560260000000  0.5312960000000  0.5945060000000 1.0
C      1  0.5560250000000  0.5661970000000  0.4256440000000 1.0
C      1  0.4439750000000  0.4025070000000  0.5201510000000 1.0
C      1  0.4439740000000  0.5312960000000  0.4054940000000 1.0
C      1  0.4439750000000  0.5661970000000  0.5743560000000 1.0
C      1  0.5863180000000  0.5286610000000  0.4886380000000 1.0
C      1  0.5863180000000  0.4758300000000  0.4808590000000 1.0
C      1  0.5863180000000  0.4955090000000  0.5305020000000 1.0
C      1  0.4136820000000  0.5286610000000  0.5113620000000 1.0
C      1  0.4136820000000  0.4758300000000  0.5191410000000 1.0
C      1  0.4136820000000  0.4955090000000  0.4694980000000 1.0
C      1  0.4686660000000  0.3930040000000  0.5350150000000 1.0
C      1  0.4686660000000  0.5838210000000  0.5751540000000 1.0
C      1  0.4686650000000  0.5231740000000  0.3898320000000 1.0
C      1  0.5313350000000  0.3930040000000  0.4649860000000 1.0
C      1  0.5313340000000  0.5838210000000  0.4248460000000 1.0
C      1  0.5313350000000  0.5231750000000  0.6101680000000 1.0
C      1  0.4735540000000  0.5401730000000  0.5118830000000 1.0
C      1  0.4735540000000  0.4902040000000  0.4592680000000 1.0
C      1  0.4735540000000  0.4696230000000  0.5288500000000 1.0
C      1  0.5264460000000  0.5401730000000  0.4881170000000 1.0
C      1  0.5264460000000  0.4902040000000  0.5407320000000 1.0
C      1  0.5264460000000  0.4696230000000  0.4711500000000 1.0
C      1  0.4718210000000  0.4944240000000  0.3940230000000 1.0
C      1  0.4718220000000  0.4110090000000  0.5578180000000 1.0
C      1  0.4718220000000  0.5945670000000  0.5481600000000 1.0
C      1  0.5281790000000  0.4944240000000  0.6059770000000 1.0
C      1  0.5281780000000  0.4110090000000  0.4421820000000 1.0
C      1  0.5281780000000  0.5945670000000  0.4518400000000 1.0
C      1  0.5368310000000  0.4600680000000  0.4270280000000 1.0
C      1  0.5368320000000  0.4567710000000  0.5710680000000 1.0
C      1  0.5368310000000  0.5831610000000  0.5019030000000 1.0
C      1  0.4631690000000  0.4600680000000  0.5729720000000 1.0
C      1  0.4631680000000  0.4567710000000  0.4289320000000 1.0
C      1  0.4631690000000  0.5831610000000  0.4980970000000 1.0
C      1  0.5549830000000  0.5414120000000  0.5296050000000 1.0
C      1  0.5549830000000  0.5049330000000  0.4493330000000 1.0
C      1  0.5549830000000  0.4536550000000  0.5210620000000 1.0
C      1  0.4450170000000  0.5414120000000  0.4703950000000 1.0
C      1  0.4450170000000  0.5049330000000  0.5506670000000 1.0
C      1  0.4450170000000  0.4536550000000  0.4789390000000 1.0
C      1  0.4858200000000  0.5141730000000  0.4714880000000 1.0
C      1  0.4858200000000  0.4682210000000  0.5019820000000 1.0
C      1  0.4858200000000  0.5176060000000  0.5265310000000 1.0
C      1  0.5141800000000  0.5141730000000  0.5285120000000 1.0
C      1  0.5141800000000  0.4682210000000  0.4980180000000 1.0
C      1  0.5141800000000  0.5176060000000  0.4734690000000 1.0
C      1  0.5466350000000  0.4821220000000  0.5862150000000 1.0
C      1  0.5466350000000  0.5836030000000  0.4723760000000 1.0
C      1  0.5466350000000  0.4342750000000  0.4414090000000 1.0
C      1  0.4533650000000  0.4821210000000  0.4137850000000 1.0
C      1  0.4533650000000  0.5836030000000  0.5276240000000 1.0
C      1  0.4533650000000  0.4342750000000  0.5585910000000 1.0
C      1  0.4500310000000  0.4319400000000  0.5020200000000 1.0
C      1  0.4500310000000  0.5357790000000  0.5579320000000 1.0
C      1  0.4500310000000  0.5322810000000  0.4400490000000 1.0
C      1  0.5499690000000  0.4319400000000  0.4979800000000 1.0
C      1  0.5499690000000  0.5357790000000  0.4420680000000 1.0
C      1  0.5499690000000  0.5322810000000  0.5599510000000 1.0
C      1  0.4863250000000  0.4218560000000  0.4314140000000 1.0
C      1  0.4863250000000  0.4796750000000  0.6019680000000 1.0
C      1  0.4863250000000  0.5984690000000  0.4666190000000 1.0
C      1  0.5136750000000  0.4218560000000  0.5685860000000 1.0
C      1  0.5136750000000  0.4796740000000  0.3980320000000 1.0
C      1  0.5136750000000  0.5984690000000  0.5333810000000 1.0
C      1  0.3835380000000  0.5278230000000  0.5089620000000 1.0
C      1  0.3835380000000  0.4938500000000  0.4714250000000 1.0
C      1  0.3835380000000  0.4783280000000  0.5196150000000 1.0
C      1  0.6164620000000  0.5278230000000  0.4910380000000 1.0
C      1  0.6164620000000  0.4938500000000  0.5285750000000 1.0
C      1  0.6164620000000  0.4783280000000  0.4803850000000 1.0
C      1  0.4883550000000  0.4591600000000  0.5532390000000 1.0
C      1  0.4883540000000  0.5665260000000  0.5087490000000 1.0
C      1  0.4883540000000  0.4743130000000  0.4380120000000 1.0
C      1  0.5116450000000  0.4591600000000  0.4467610000000 1.0
C      1  0.5116450000000  0.5665260000000  0.4912510000000 1.0
C      1  0.5116460000000  0.4743140000000  0.5619880000000 1.0
C      1  0.5500570000000  0.4485770000000  0.4697320000000 1.0
C      1  0.5500570000000  0.4994990000000  0.5596670000000 1.0
C      1  0.5500570000000  0.5519240000000  0.4706000000000 1.0
C      1  0.4499430000000  0.4485770000000  0.5302680000000 1.0
C      1  0.4499430000000  0.4994990000000  0.4403330000000 1.0
C      1  0.4499430000000  0.5519240000000  0.5294000000000 1.0
C      1  0.5769830000000  0.5036090000000  0.4712170000000 1.0
C      1  0.5769840000000  0.4732690000000  0.5112650000000 1.0
C      1  0.5769830000000  0.5231220000000  0.5175170000000 1.0
C      1  0.4230170000000  0.5036090000000  0.5287830000000 1.0
C      1  0.4230170000000  0.4732690000000  0.4887350000000 1.0
C      1  0.4230160000000  0.5231210000000  0.4824830000000 1.0
C      1  0.4187560000000  0.4589230000000  0.4371690000000 1.0
C      1  0.4187560000000  0.4661250000000  0.5669900000000 1.0
C      1  0.4187560000000  0.5749530000000  0.4958420000000 1.0
C      1  0.5812440000000  0.4589230000000  0.5628320000000 1.0
C      1  0.5812440000000  0.4661250000000  0.4330100000000 1.0
C      1  0.5812440000000  0.5749530000000  0.5041580000000 1.0
C      1  0.4802810000000  0.5591030000000  0.4242600000000 1.0
C      1  0.4802810000000  0.4048560000000  0.4866850000000 1.0
C      1  0.4802820000000  0.5360410000000  0.5890550000000 1.0
C      1  0.5197190000000  0.5591030000000  0.5757400000000 1.0
C      1  0.5197190000000  0.4048560000000  0.5133150000000 1.0
C      1  0.5197180000000  0.5360410000000  0.4109450000000 1.0
C      1  0.6197430000000  0.5239250000000  0.5215080000000 1.0
C      1  0.6197430000000  0.5066640000000  0.4685260000000 1.0
C      1  0.6197430000000  0.4694110000000  0.5099650000000 1.0
C      1  0.3802570000000  0.5239250000000  0.4784920000000 1.0
C      1  0.3802570000000  0.5066640000000  0.5314740000000 1.0
C      1  0.3802570000000  0.4694110000000  0.4900350000000 1.0
C      1  0.5800210000000  0.5713600000000  0.5569510000000 1.0
C      1  0.5800210000000  0.5136420000000  0.4097250000000 1.0
C      1  0.5800210000000  0.4149990000000  0.5333230000000 1.0
C      1  0.4199790000000  0.5713590000000  0.4430490000000 1.0
C      1  0.4199790000000  0.5136420000000  0.5902750000000 1.0
C      1  0.4199790000000  0.4149990000000  0.4666770000000 1.0
C      1  0.4148370000000  0.4197120000000  0.5335710000000 1.0
C      1  0.4148360000000  0.5692170000000  0.5527460000000 1.0
C      1  0.4148360000000  0.5110710000000  0.4136840000000 1.0
C      1  0.5851640000000  0.4197120000000  0.4664290000000 1.0
C      1  0.5851630000000  0.5692170000000  0.4472540000000 1.0
C      1  0.5851640000000  0.5110710000000  0.5863160000000 1.0
C      1  0.4937460000000  0.4296490000000  0.5464890000000 1.0
C      1  0.4937460000000  0.5754360000000  0.5376810000000 1.0
C      1  0.4937450000000  0.4949150000000  0.4158300000000 1.0
C      1  0.5062540000000  0.4296490000000  0.4535110000000 1.0
C      1  0.5062540000000  0.5754360000000  0.4623190000000 1.0
C      1  0.5062550000000  0.4949150000000  0.5841700000000 1.0
C      1  0.4527850000000  0.4078390000000  0.4662030000000 1.0
C      1  0.4527860000000  0.5168110000000  0.5967120000000 1.0
C      1  0.4527850000000  0.5753500000000  0.4370850000000 1.0
C      1  0.5472150000000  0.4078390000000  0.5337970000000 1.0
C      1  0.5472140000000  0.5168110000000  0.4032880000000 1.0
C      1  0.5472150000000  0.5753500000000  0.5629150000000 1.0
C      1  0.4424070000000  0.5714940000000  0.4785340000000 1.0
C      1  0.4424070000000  0.4456630000000  0.4488170000000 1.0
C      1  0.4424080000000  0.4828430000000  0.5726490000000 1.0
C      1  0.5575930000000  0.5714950000000  0.5214660000000 1.0
C      1  0.5575930000000  0.4456630000000  0.5511830000000 1.0
C      1  0.5575920000000  0.4828430000000  0.4273510000000 1.0
C      1  0.5043970000000  0.3855240000000  0.4793340000000 1.0
C      1  0.5043970000000  0.5393410000000  0.6094720000000 1.0
C      1  0.5043970000000  0.5751350000000  0.4111940000000 1.0
C      1  0.4956030000000  0.3855240000000  0.5206660000000 1.0
C      1  0.4956020000000  0.5393410000000  0.3905280000000 1.0
C      1  0.4956030000000  0.5751350000000  0.5888060000000 1.0
C      1  0.4627930000000  0.4932290000000  0.6103700000000 1.0
C      1  0.4627920000000  0.5989680000000  0.4506790000000 1.0
C      1  0.4627920000000  0.4078020000000  0.4389520000000 1.0
C      1  0.5372070000000  0.4932290000000  0.3896300000000 1.0
C      1  0.5372080000000  0.5989680000000  0.5493210000000 1.0
C      1  0.5372080000000  0.4078020000000  0.5610480000000 1.0
C      1  0.5113530000000  0.4340280000000  0.5955100000000 1.0
C      1  0.5113530000000  0.6157000000000  0.5093790000000 1.0
C      1  0.5113530000000  0.4502720000000  0.3951120000000 1.0
C      1  0.4886470000000  0.4340280000000  0.4044900000000 1.0
C      1  0.4886470000000  0.6157000000000  0.4906210000000 1.0
C      1  0.4886480000000  0.4502720000000  0.6048880000000 1.0
C      1  0.5797130000000  0.4878770000000  0.5592840000000 1.0
C      1  0.5797130000000  0.5574030000000  0.4808560000000 1.0
C      1  0.5797130000000  0.4547190000000  0.4598590000000 1.0
C      1  0.4202870000000  0.4878770000000  0.4407160000000 1.0
C      1  0.4202870000000  0.5574030000000  0.5191440000000 1.0
C      1  0.4202870000000  0.4547190000000  0.5401410000000 1.0
END
