TITL C-862131-2149-52 0.000500334843798931 125000 -1116.39036573339 0 0 199 (C3i) n - 1
REM
REM in /home/nfs/bkarasulu/CARBON/AIRSS/Generating-Clusters/TERSOFF/Higher-Symm/FIRE-HFTN
REM
REM
REM
REM
REM
REM ./C.cell (b20cbc046b6831c77cfcea5457e17084)
REM AIRSS Version 0.9.1 bugfix July 2018 build 013d7b7c2542+ Fri, 06 Jul 2018 19:26:36 +0100
REM compiler GCC version 9.2.1 20190827 (Red Hat 9.2.1-1)
REM options -cpp -mtune=generic -march=x86-64 -g -O0 -fpre-include=/usr/include/finclude/math-vector-fortran.h
REM seed -1074496477 -460924487 -64264215 -1083330205 1940295393 -1777101575 -1134540336 -2109304423 -1682710438 1819124569 584135389 -1336556864 2134902965 -2098551908 1505913514 -340421844 925181967 -1822973981 -2089936840 1146006215 -835384407 -7933308 1898662406 1526496803 -248908946 1443453538 -1144491882 1040225819 1650098915 -242597230 -1196515328 -1985958010 -952278321
REM
CELL 1.54180   50.00000   50.00000   50.00000   90.00000   90.00000   90.00000
LATT -1
SFAC C  
C      1  0.5203460000000  0.4554700000000  0.5437190000000 1.0
C      1  0.4791630000000  0.5156270000000  0.5603780000000 1.0
C      1  0.5203470000000  0.5601310000000  0.5166100000000 1.0
C      1  0.4791630000000  0.5444800000000  0.4561840000000 1.0
C      1  0.5203470000000  0.4843230000000  0.4395260000000 1.0
C      1  0.4791630000000  0.4398190000000  0.4832940000000 1.0
C      1  0.4076830000000  0.5609640000000  0.5157000000000 1.0
C      1  0.5918260000000  0.5441080000000  0.4550080000000 1.0
C      1  0.4076830000000  0.4831190000000  0.4392600000000 1.0
C      1  0.5918260000000  0.4389860000000  0.4842030000000 1.0
C      1  0.4076830000000  0.4558420000000  0.5448950000000 1.0
C      1  0.5918260000000  0.5168310000000  0.5606440000000 1.0
C      1  0.6197600000000  0.5051970000000  0.5282360000000 1.0
C      1  0.3797500000000  0.5270800000000  0.5095720000000 1.0
C      1  0.6197600000000  0.5218590000000  0.4812880000000 1.0
C      1  0.3797500000000  0.4947530000000  0.4716680000000 1.0
C      1  0.6197600000000  0.4728700000000  0.4903320000000 1.0
C      1  0.3797500000000  0.4780910000000  0.5186160000000 1.0
C      1  0.4531210000000  0.4600980000000  0.6013970000000 1.0
C      1  0.5463880000000  0.5678910000000  0.5852090000000 1.0
C      1  0.4531210000000  0.6077680000000  0.4837630000000 1.0
C      1  0.5463880000000  0.5398520000000  0.3985060000000 1.0
C      1  0.4531210000000  0.4320590000000  0.4146950000000 1.0
C      1  0.5463880000000  0.3921820000000  0.5161400000000 1.0
C      1  0.5006630000000  0.6133220000000  0.4622500000000 1.0
C      1  0.4988460000000  0.5239980000000  0.3829400000000 1.0
C      1  0.5006630000000  0.4106510000000  0.4206410000000 1.0
C      1  0.4988460000000  0.3866280000000  0.5376530000000 1.0
C      1  0.5006630000000  0.4759520000000  0.6169640000000 1.0
C      1  0.4988460000000  0.5892990000000  0.5792620000000 1.0
C      1  0.4813700000000  0.4795550000000  0.5196210000000 1.0
C      1  0.5181390000000  0.5068000000000  0.5274700000000 1.0
C      1  0.4813700000000  0.5272190000000  0.5078010000000 1.0
C      1  0.5181390000000  0.5203950000000  0.4802820000000 1.0
C      1  0.4813700000000  0.4931500000000  0.4724330000000 1.0
C      1  0.5181390000000  0.4727310000000  0.4921030000000 1.0
C      1  0.4203020000000  0.5872410000000  0.5230040000000 1.0
C      1  0.5792080000000  0.5635720000000  0.4359040000000 1.0
C      1  0.4203020000000  0.4763060000000  0.4128510000000 1.0
C      1  0.5792080000000  0.4127090000000  0.4769000000000 1.0
C      1  0.4203020000000  0.4363790000000  0.5640000000000 1.0
C      1  0.5792080000000  0.5236440000000  0.5870520000000 1.0
C      1  0.4525610000000  0.5350060000000  0.4661010000000 1.0
C      1  0.5469480000000  0.4881760000000  0.4526880000000 1.0
C      1  0.4525610000000  0.4531440000000  0.4865390000000 1.0
C      1  0.5469480000000  0.4649440000000  0.5338020000000 1.0
C      1  0.4525610000000  0.5117750000000  0.5472150000000 1.0
C      1  0.5469480000000  0.5468060000000  0.5133650000000 1.0
C      1  0.4948950000000  0.4554250000000  0.5274430000000 1.0
C      1  0.5046140000000  0.5015080000000  0.5522790000000 1.0
C      1  0.4948950000000  0.5460580000000  0.5247880000000 1.0
C      1  0.5046140000000  0.5445250000000  0.4724600000000 1.0
C      1  0.4948950000000  0.4984420000000  0.4476240000000 1.0
C      1  0.5046140000000  0.4538920000000  0.4751160000000 1.0
C      1  0.5727140000000  0.4722210000000  0.4366960000000 1.0
C      1  0.4267950000000  0.4313170000000  0.4923600000000 1.0
C      1  0.5727140000000  0.4590720000000  0.5556150000000 1.0
C      1  0.4267950000000  0.5277290000000  0.5632070000000 1.0
C      1  0.5727140000000  0.5686330000000  0.5075430000000 1.0
C      1  0.4267950000000  0.5408780000000  0.4442880000000 1.0
C      1  0.4909620000000  0.4622770000000  0.3898920000000 1.0
C      1  0.5085470000000  0.3858120000000  0.4775690000000 1.0
C      1  0.4909620000000  0.4235100000000  0.5876290000000 1.0
C      1  0.5085470000000  0.5376730000000  0.6100110000000 1.0
C      1  0.4909620000000  0.6141380000000  0.5223340000000 1.0
C      1  0.5085470000000  0.5764400000000  0.4122750000000 1.0
C      1  0.4750910000000  0.5749840000000  0.4594960000000 1.0
C      1  0.5244180000000  0.5024440000000  0.4147640000000 1.0
C      1  0.4750910000000  0.4274350000000  0.4552200000000 1.0
C      1  0.5244180000000  0.4249660000000  0.5404080000000 1.0
C      1  0.4750910000000  0.4975060000000  0.5851390000000 1.0
C      1  0.5244180000000  0.5725150000000  0.5446830000000 1.0
C      1  0.5714470000000  0.4950610000000  0.5966640000000 1.0
C      1  0.4280620000000  0.5812730000000  0.5525630000000 1.0
C      1  0.5714470000000  0.5861870000000  0.4558520000000 1.0
C      1  0.4280620000000  0.5048890000000  0.4032400000000 1.0
C      1  0.5714470000000  0.4186770000000  0.4473400000000 1.0
C      1  0.4280620000000  0.4137630000000  0.5440520000000 1.0
C      1  0.4267400000000  0.4711340000000  0.5275430000000 1.0
C      1  0.5727690000000  0.5094490000000  0.5387240000000 1.0
C      1  0.4267400000000  0.5382900000000  0.5111330000000 1.0
C      1  0.5727690000000  0.5288160000000  0.4723610000000 1.0
C      1  0.4267400000000  0.4905010000000  0.4611790000000 1.0
C      1  0.5727690000000  0.4616600000000  0.4887700000000 1.0
C      1  0.5857380000000  0.4450230000000  0.4406960000000 1.0
C      1  0.4137710000000  0.4211820000000  0.5179140000000 1.0
C      1  0.5857380000000  0.4761340000000  0.5771690000000 1.0
C      1  0.4137710000000  0.5549270000000  0.5592070000000 1.0
C      1  0.5857380000000  0.5787680000000  0.4819900000000 1.0
C      1  0.4137710000000  0.5238160000000  0.4227340000000 1.0
C      1  0.4840580000000  0.5773260000000  0.4886790000000 1.0
C      1  0.5154510000000  0.5288880000000  0.4273280000000 1.0
C      1  0.4840580000000  0.4515370000000  0.4386000000000 1.0
C      1  0.5154510000000  0.4226240000000  0.5112240000000 1.0
C      1  0.4840580000000  0.4710620000000  0.5725760000000 1.0
C      1  0.5154510000000  0.5484130000000  0.5613030000000 1.0
C      1  0.4176390000000  0.4854220000000  0.5780940000000 1.0
C      1  0.5818700000000  0.5603720000000  0.5516260000000 1.0
C      1  0.4176390000000  0.5749240000000  0.4734840000000 1.0
C      1  0.5818700000000  0.5145280000000  0.4218100000000 1.0
C      1  0.4176390000000  0.4395780000000  0.4482770000000 1.0
C      1  0.5818700000000  0.4250260000000  0.5264200000000 1.0
C      1  0.4461220000000  0.4432540000000  0.5772580000000 1.0
C      1  0.5533870000000  0.5385640000000  0.5877270000000 1.0
C      1  0.4461220000000  0.5952850000000  0.5104200000000 1.0
C      1  0.5533870000000  0.5566960000000  0.4226460000000 1.0
C      1  0.4461220000000  0.4613860000000  0.4121770000000 1.0
C      1  0.5533870000000  0.4046650000000  0.4894830000000 1.0
C      1  0.5320370000000  0.4417230000000  0.5816370000000 1.0
C      1  0.4674730000000  0.5415910000000  0.5912420000000 1.0
C      1  0.5320370000000  0.5998430000000  0.5095570000000 1.0
C      1  0.4674730000000  0.5582270000000  0.4182660000000 1.0
C      1  0.5320370000000  0.4583590000000  0.4086610000000 1.0
C      1  0.4674730000000  0.4001070000000  0.4903470000000 1.0
C      1  0.4742100000000  0.5058740000000  0.4241920000000 1.0
C      1  0.5252990000000  0.4373150000000  0.4569630000000 1.0
C      1  0.4742100000000  0.4314160000000  0.5327230000000 1.0
C      1  0.5252990000000  0.4940760000000  0.5757120000000 1.0
C      1  0.4742100000000  0.5626350000000  0.5429400000000 1.0
C      1  0.5252990000000  0.5685340000000  0.4671800000000 1.0
C      1  0.5552230000000  0.4128250000000  0.5403000000000 1.0
C      1  0.4442860000000  0.4913420000000  0.5956000000000 1.0
C      1  0.5552230000000  0.5784930000000  0.5552520000000 1.0
C      1  0.4442860000000  0.5871250000000  0.4596030000000 1.0
C      1  0.5552230000000  0.5086080000000  0.4043030000000 1.0
C      1  0.4442860000000  0.4214570000000  0.4446510000000 1.0
C      1  0.4430990000000  0.5654570000000  0.4340130000000 1.0
C      1  0.5564100000000  0.4756110000000  0.4102730000000 1.0
C      1  0.4430990000000  0.4101290000000  0.4762120000000 1.0
C      1  0.5564100000000  0.4344930000000  0.5658910000000 1.0
C      1  0.4430990000000  0.5243390000000  0.5896300000000 1.0
C      1  0.5564100000000  0.5898210000000  0.5236910000000 1.0
C      1  0.5063110000000  0.4947740000000  0.3921330000000 1.0
C      1  0.4931980000000  0.4040010000000  0.4505460000000 1.0
C      1  0.5063110000000  0.4092010000000  0.5583650000000 1.0
C      1  0.4931980000000  0.5051760000000  0.6077710000000 1.0
C      1  0.5063110000000  0.5959490000000  0.5493570000000 1.0
C      1  0.4931980000000  0.5907490000000  0.4415380000000 1.0
C      1  0.4051590000000  0.4443000000000  0.4753360000000 1.0
C      1  0.5943500000000  0.4508200000000  0.5358600000000 1.0
C      1  0.4051590000000  0.5064950000000  0.5604760000000 1.0
C      1  0.5943500000000  0.5556500000000  0.5245680000000 1.0
C      1  0.4051590000000  0.5491300000000  0.4640430000000 1.0
C      1  0.5943500000000  0.4934550000000  0.4394280000000 1.0
C      1  0.6091280000000  0.4925330000000  0.5667820000000 1.0
C      1  0.3903810000000  0.5541310000000  0.5398120000000 1.0
C      1  0.6091280000000  0.5615730000000  0.4729810000000 1.0
C      1  0.3903820000000  0.5074170000000  0.4331210000000 1.0
C      1  0.6091280000000  0.4458190000000  0.4600920000000 1.0
C      1  0.3903810000000  0.4383770000000  0.5269220000000 1.0
C      1  0.4829480000000  0.4294710000000  0.4030100000000 1.0
C      1  0.5165610000000  0.3807690000000  0.5125390000000 1.0
C      1  0.4829480000000  0.4512730000000  0.6094810000000 1.0
C      1  0.5165610000000  0.5704790000000  0.5968930000000 1.0
C      1  0.4829480000000  0.6191810000000  0.4873640000000 1.0
C      1  0.5165610000000  0.5486770000000  0.3904230000000 1.0
C      1  0.4525400000000  0.4767090000000  0.4661090000000 1.0
C      1  0.5469700000000  0.4590340000000  0.5031790000000 1.0
C      1  0.4525400000000  0.4822990000000  0.5370210000000 1.0
C      1  0.5469700000000  0.5232410000000  0.5337940000000 1.0
C      1  0.4525400000000  0.5409160000000  0.4967240000000 1.0
C      1  0.5469700000000  0.5176510000000  0.4628820000000 1.0
C      1  0.5367840000000  0.3914030000000  0.4674880000000 1.0
C      1  0.4627250000000  0.4175750000000  0.5777460000000 1.0
C      1  0.5367840000000  0.5261470000000  0.6102090000000 1.0
C      1  0.4627250000000  0.6085470000000  0.5324150000000 1.0
C      1  0.5367840000000  0.5823750000000  0.4221580000000 1.0
C      1  0.4627250000000  0.4738030000000  0.3896940000000 1.0
C      1  0.5357880000000  0.5267500000000  0.5644840000000 1.0
C      1  0.4637220000000  0.5692490000000  0.5090300000000 1.0
C      1  0.5357880000000  0.5424740000000  0.4444970000000 1.0
C      1  0.4637220000000  0.4732000000000  0.4354190000000 1.0
C      1  0.5357880000000  0.4307010000000  0.4908740000000 1.0
C      1  0.4637220000000  0.4574760000000  0.5554060000000 1.0
C      1  0.3897890000000  0.4702920000000  0.4881430000000 1.0
C      1  0.6097210000000  0.4749060000000  0.5197540000000 1.0
C      1  0.3897890000000  0.5045900000000  0.5315630000000 1.0
C      1  0.6097210000000  0.5296580000000  0.5117610000000 1.0
C      1  0.3897890000000  0.5250440000000  0.4801500000000 1.0
C      1  0.6097210000000  0.4953600000000  0.4683410000000 1.0
C      1  0.4578090000000  0.5868610000000  0.5534210000000 1.0
C      1  0.5417000000000  0.5897240000000  0.4514410000000 1.0
C      1  0.4578090000000  0.5028380000000  0.3979710000000 1.0
C      1  0.5417000000000  0.4130890000000  0.4464820000000 1.0
C      1  0.4578090000000  0.4102260000000  0.5484630000000 1.0
C      1  0.5417000000000  0.4971120000000  0.6019320000000 1.0
C      1  0.4177040000000  0.5090700000000  0.4824320000000 1.0
C      1  0.5818050000000  0.4893500000000  0.4833150000000 1.0
C      1  0.4177040000000  0.4802550000000  0.5008350000000 1.0
C      1  0.5818050000000  0.4908800000000  0.5174710000000 1.0
C      1  0.4177040000000  0.5106000000000  0.5165880000000 1.0
C      1  0.5818050000000  0.5196950000000  0.4990690000000 1.0
C      1  0.4855360000000  0.5444440000000  0.5661840000000 1.0
C      1  0.5139730000000  0.5795690000000  0.4945570000000 1.0
C      1  0.4855360000000  0.5351000000000  0.4283240000000 1.0
C      1  0.5139740000000  0.4555060000000  0.4337190000000 1.0
C      1  0.4855360000000  0.4203810000000  0.5053470000000 1.0
C      1  0.5139730000000  0.4648500000000  0.5715790000000 1.0
C      1  0.4997550000000  0.4999750000000  0.4999520000000 1.0
END
