TITL C-862502-1143-275 0.0010978298872337 125000 -289.604955071546 0 0 56 (C5) n - 1
REM
REM in /home/nfs/bkarasulu/CARBON/AIRSS/Generating-Clusters/TERSOFF/Higher-Symm/FIRE-HFTN
REM
REM
REM
REM
REM
REM ./C.cell (b20cbc046b6831c77cfcea5457e17084)
REM AIRSS Version 0.9.1 bugfix July 2018 build 013d7b7c2542+ Fri, 06 Jul 2018 19:26:36 +0100
REM compiler GCC version 9.2.1 20190827 (Red Hat 9.2.1-1)
REM options -cpp -mtune=generic -march=x86-64 -g -O0 -fpre-include=/usr/include/finclude/math-vector-fortran.h
REM seed 1903039006 -1952373138 1162897846 451179791 -568053345 -452813628 1650164857 -1232501957 274041694 158673127 -2052075634 -1095246209 -132383966 -1943557688 -914692038 1156562545 1718114275 455453020 880906609 1137496717 -2031836906 1852489297 -1428798202 76476175 585342081 -1394025171 973899198 502968904 -644475368 318746723 -1782408964 -305656298 260507952
REM
CELL 1.54180   50.00000   50.00000   50.00000   90.00000   90.00000   90.00000
LATT -1
SFAC C  
C      1  0.4956300000000  0.5104400000000  0.5681380000000 1.0
C      1  0.4956300000000  0.5677820000000  0.5116370000000 1.0
C      1  0.4956300000000  0.5317660000000  0.4396420000000 1.0
C      1  0.4956300000000  0.4521650000000  0.4516470000000 1.0
C      1  0.4956300000000  0.4389850000000  0.5310620000000 1.0
C      1  0.5228830000000  0.5833680000000  0.5090110000000 1.0
C      1  0.5228830000000  0.5340850000000  0.4240070000000 1.0
C      1  0.5228830000000  0.4380120000000  0.4446100000000 1.0
C      1  0.5228830000000  0.4279190000000  0.5423480000000 1.0
C      1  0.5228830000000  0.5177540000000  0.5821500000000 1.0
C      1  0.5135640000000  0.5241970000000  0.4931100000000 1.0
C      1  0.5135640000000  0.5006770000000  0.4753690000000 1.0
C      1  0.5135640000000  0.4765370000000  0.4922540000000 1.0
C      1  0.5135640000000  0.4851360000000  0.5204320000000 1.0
C      1  0.5135640000000  0.5145910000000  0.5209610000000 1.0
C      1  0.4398790000000  0.5183820000000  0.4699090000000 1.0
C      1  0.4398790000000  0.4768150000000  0.4737280000000 1.0
C      1  0.4398790000000  0.4676030000000  0.5144420000000 1.0
C      1  0.4398790000000  0.5034770000000  0.5357850000000 1.0
C      1  0.4398790000000  0.5348610000000  0.5082610000000 1.0
C      1  0.4869730000000  0.5498240000000  0.4613880000000 1.0
C      1  0.4869730000000  0.4784270000000  0.4411930000000 1.0
C      1  0.4869730000000  0.4371580000000  0.5028540000000 1.0
C      1  0.4869730000000  0.4830480000000  0.5611590000000 1.0
C      1  0.4869730000000  0.5526800000000  0.5355310000000 1.0
C      1  0.5626700000000  0.4757180000000  0.4920100000000 1.0
C      1  0.5626690000000  0.4846500000000  0.5211350000000 1.0
C      1  0.5626690000000  0.5151100000000  0.5216400000000 1.0
C      1  0.5626690000000  0.5250030000000  0.4928270000000 1.0
C      1  0.5626700000000  0.5006570000000  0.4745150000000 1.0
C      1  0.5592070000000  0.5529290000000  0.4842640000000 1.0
C      1  0.5592070000000  0.5011430000000  0.4453090000000 1.0
C      1  0.5592070000000  0.4480920000000  0.4825230000000 1.0
C      1  0.5592070000000  0.4670900000000  0.5444770000000 1.0
C      1  0.5592070000000  0.5318830000000  0.5455530000000 1.0
C      1  0.5337800000000  0.4554560000000  0.5529580000000 1.0
C      1  0.5337800000000  0.5363540000000  0.5592390000000 1.0
C      1  0.5337800000000  0.5673260000000  0.4842410000000 1.0
C      1  0.5337800000000  0.5055700000000  0.4316090000000 1.0
C      1  0.5337800000000  0.4364310000000  0.4740790000000 1.0
C      1  0.5057170000000  0.4680220000000  0.5431550000000 1.0
C      1  0.5057170000000  0.5309140000000  0.5442590000000 1.0
C      1  0.5057170000000  0.5513980000000  0.4847860000000 1.0
C      1  0.5057170000000  0.5011660000000  0.4469260000000 1.0
C      1  0.5057170000000  0.4496370000000  0.4830000000000 1.0
C      1  0.4572680000000  0.4444980000000  0.4967070000000 1.0
C      1  0.4572680000000  0.4794700000000  0.5522780000000 1.0
C      1  0.4572680000000  0.5431280000000  0.5361900000000 1.0
C      1  0.4572680000000  0.5474990000000  0.4706760000000 1.0
C      1  0.4572680000000  0.4865420000000  0.4462740000000 1.0
C      1  0.4716130000000  0.4804830000000  0.5210020000000 1.0
C      1  0.4716130000000  0.5136960000000  0.5255610000000 1.0
C      1  0.4716130000000  0.5282960000000  0.4953830000000 1.0
C      1  0.4716130000000  0.5041060000000  0.4721720000000 1.0
C      1  0.4716130000000  0.4745560000000  0.4880060000000 1.0
C      1  0.4311140000000  0.5002270000000  0.5004250000000 1.0
END
