TITL C-862506-1665-278 0.00237946610712965 125000 -301.194212168432 0 0 58 (S8) n - 1
REM
REM in /home/nfs/bkarasulu/CARBON/AIRSS/Generating-Clusters/TERSOFF/Higher-Symm/FIRE-HFTN
REM
REM
REM
REM
REM
REM ./C.cell (b20cbc046b6831c77cfcea5457e17084)
REM AIRSS Version 0.9.1 bugfix July 2018 build 013d7b7c2542+ Fri, 06 Jul 2018 19:26:36 +0100
REM compiler GCC version 9.2.1 20190827 (Red Hat 9.2.1-1)
REM options -cpp -mtune=generic -march=x86-64 -g -O0 -fpre-include=/usr/include/finclude/math-vector-fortran.h
REM seed 983977303 171038396 -1118296294 -389815333 -409872495 -256330664 782007132 1155510113 -1164650965 1783284828 1684806982 1463900070 1902060566 387035856 -359506371 -255601338 59198391 -747903223 -925443045 -448095604 1554010246 -932184952 1133540604 -74200530 -218755567 1412059242 -1052354529 -1380385197 344319113 -728946863 -734086448 1599956003 1446230029
REM
CELL 1.54180   50.00000   50.00000   50.00000   90.00000   90.00000   90.00000
LATT -1
SFAC C  
C      1  0.5049420000000  0.4764740000000  0.5627810000000 1.0
C      1  0.4592160000000  0.5235260000000  0.5473000000000 1.0
C      1  0.4378300000000  0.4764740000000  0.5040200000000 1.0
C      1  0.4533110000000  0.5235260000000  0.4582950000000 1.0
C      1  0.4965910000000  0.4764740000000  0.4369090000000 1.0
C      1  0.5423170000000  0.5235260000000  0.4523900000000 1.0
C      1  0.5637030000000  0.4764740000000  0.4956700000000 1.0
C      1  0.5482210000000  0.5235260000000  0.5413950000000 1.0
C      1  0.4513300000000  0.4524420000000  0.4533970000000 1.0
C      1  0.4986530000000  0.5475580000000  0.4320440000000 1.0
C      1  0.5472140000000  0.4524420000000  0.4504080000000 1.0
C      1  0.5685670000000  0.5475580000000  0.4977310000000 1.0
C      1  0.5502030000000  0.4524420000000  0.5462930000000 1.0
C      1  0.5028800000000  0.5475580000000  0.5676460000000 1.0
C      1  0.4543180000000  0.4524420000000  0.5492820000000 1.0
C      1  0.4329660000000  0.5475580000000  0.5019580000000 1.0
C      1  0.4755790000000  0.4447600000000  0.5004440000000 1.0
C      1  0.4825320000000  0.5552400000000  0.4824580000000 1.0
C      1  0.5001670000000  0.4447600000000  0.4746570000000 1.0
C      1  0.5181530000000  0.5552400000000  0.4816110000000 1.0
C      1  0.5259540000000  0.4447600000000  0.4992460000000 1.0
C      1  0.5190000000000  0.5552400000000  0.5172320000000 1.0
C      1  0.5013660000000  0.4447600000000  0.5250330000000 1.0
C      1  0.4833800000000  0.5552400000000  0.5180790000000 1.0
C      1  0.5676510000000  0.4718950000000  0.5283080000000 1.0
C      1  0.5279350000000  0.5281050000000  0.5672660000000 1.0
C      1  0.4723040000000  0.4718950000000  0.5667300000000 1.0
C      1  0.4333450000000  0.5281050000000  0.5270140000000 1.0
C      1  0.4338810000000  0.4718950000000  0.4713820000000 1.0
C      1  0.4735980000000  0.5281050000000  0.4324240000000 1.0
C      1  0.5292290000000  0.4718950000000  0.4329600000000 1.0
C      1  0.5681870000000  0.5281050000000  0.4726760000000 1.0
C      1  0.5294070000000  0.5231130000000  0.4923370000000 1.0
C      1  0.5263280000000  0.4768870000000  0.5147880000000 1.0
C      1  0.5082740000000  0.5231130000000  0.5284860000000 1.0
C      1  0.4858230000000  0.4768870000000  0.5254060000000 1.0
C      1  0.4721250000000  0.5231130000000  0.5073530000000 1.0
C      1  0.4752050000000  0.4768870000000  0.4849020000000 1.0
C      1  0.4932580000000  0.5231130000000  0.4712040000000 1.0
C      1  0.5157090000000  0.4768870000000  0.4742840000000 1.0
C      1  0.5223510000000  0.5461790000000  0.4516660000000 1.0
C      1  0.5500960000000  0.4538210000000  0.4810400000000 1.0
C      1  0.5489450000000  0.5461790000000  0.5214290000000 1.0
C      1  0.5195710000000  0.4538210000000  0.5491750000000 1.0
C      1  0.4791820000000  0.5461790000000  0.5480230000000 1.0
C      1  0.4514360000000  0.4538210000000  0.5186500000000 1.0
C      1  0.4525880000000  0.5461790000000  0.4782600000000 1.0
C      1  0.4819620000000  0.4538210000000  0.4505150000000 1.0
C      1  0.4889440000000  0.5051750000000  0.4457850000000 1.0
C      1  0.5306330000000  0.4948250000000  0.4532590000000 1.0
C      1  0.5548260000000  0.5051750000000  0.4880230000000 1.0
C      1  0.5473520000000  0.4948250000000  0.5297110000000 1.0
C      1  0.5125890000000  0.5051750000000  0.5539050000000 1.0
C      1  0.4709000000000  0.4948250000000  0.5464300000000 1.0
C      1  0.4467070000000  0.5051750000000  0.5116670000000 1.0
C      1  0.4541810000000  0.4948250000000  0.4699780000000 1.0
C      1  0.5007660000000  0.5132460000000  0.4998450000000 1.0
C      1  0.5007660000000  0.4867540000000  0.4998450000000 1.0
END
