TITL C-862506-1665-1067 2478903.36075435 125000 -1160.96774398242 0 0 199 (Ci) n - 1
REM
REM in /home/nfs/bkarasulu/CARBON/AIRSS/Generating-Clusters/TERSOFF/Higher-Symm/FIRE-HFTN
REM
REM
REM
REM
REM
REM ./C.cell (b20cbc046b6831c77cfcea5457e17084)
REM AIRSS Version 0.9.1 bugfix July 2018 build 013d7b7c2542+ Fri, 06 Jul 2018 19:26:36 +0100
REM compiler GCC version 9.2.1 20190827 (Red Hat 9.2.1-1)
REM options -cpp -mtune=generic -march=x86-64 -g -O0 -fpre-include=/usr/include/finclude/math-vector-fortran.h
REM seed -1009121768 2006914820 -734789528 -655362900 -2042972723 449074410 -1498763615 -320723926 -131448803 -1609965954 1110738204 1066581538 474333897 1275451151 -459342503 -1823037905 -558130427 -1373770101 804263436 -1188206895 -900059179 -1687887165 -1609449099 -207235777 98478776 1063162245 -367641160 -1822135559 698540950 -533838263 -1229937526 508792935 -1848292641
REM
CELL 1.54180   50.00000   50.00000   50.00000   90.00000   90.00000   90.00000
LATT -1
SFAC C  
C      1  0.5676580000000  0.4703920000000  0.5114420000000 1.0
C      1  0.4331060000000  0.4688590000000  0.4879280000000 1.0
C      1  0.5672860000000  0.5298700000000  0.5118740000000 1.0
C      1  0.4326580000000  0.5282890000000  0.4884540000000 1.0
C      1  0.4216160000000  0.5219800000000  0.3908870000000 1.0
C      1  0.5763910000000  0.5284430000000  0.6092390000000 1.0
C      1  0.4239900000000  0.4700990000000  0.3906320000000 1.0
C      1  0.5786380000000  0.4765330000000  0.6089820000000 1.0
C      1  0.5386310000000  0.5920400000000  0.5532540000000 1.0
C      1  0.4642670000000  0.5888600000000  0.4474230000000 1.0
C      1  0.5363290000000  0.4095830000000  0.5525820000000 1.0
C      1  0.4619530000000  0.4066420000000  0.4469100000000 1.0
C      1  0.4227600000000  0.5514670000000  0.3921450000000 1.0
C      1  0.5732220000000  0.5578250000000  0.6081910000000 1.0
C      1  0.4271880000000  0.4407240000000  0.3916980000000 1.0
C      1  0.5774030000000  0.4470470000000  0.6077310000000 1.0
C      1  0.5308060000000  0.5628180000000  0.5647990000000 1.0
C      1  0.4666560000000  0.5594410000000  0.4342030000000 1.0
C      1  0.5335080000000  0.4391050000000  0.5656750000000 1.0
C      1  0.4696330000000  0.4358180000000  0.4350940000000 1.0
C      1  0.4608400000000  0.3862670000000  0.4930280000000 1.0
C      1  0.5365350000000  0.3889840000000  0.5069230000000 1.0
C      1  0.4638680000000  0.6096260000000  0.4929750000000 1.0
C      1  0.5395160000000  0.6123100000000  0.5071200000000 1.0
C      1  0.5446470000000  0.5171240000000  0.3865290000000 1.0
C      1  0.4578770000000  0.5135570000000  0.6096320000000 1.0
C      1  0.5425050000000  0.4850770000000  0.3902640000000 1.0
C      1  0.4558190000000  0.4814890000000  0.6132380000000 1.0
C      1  0.5006120000000  0.5719240000000  0.4349580000000 1.0
C      1  0.5011900000000  0.5627210000000  0.5527520000000 1.0
C      1  0.4992790000000  0.4360110000000  0.4470480000000 1.0
C      1  0.4996660000000  0.4263290000000  0.5643510000000 1.0
C      1  0.4978260000000  0.4871170000000  0.4543640000000 1.0
C      1  0.5007880000000  0.4774940000000  0.5493580000000 1.0
C      1  0.4996180000000  0.5212930000000  0.4504190000000 1.0
C      1  0.5025620000000  0.5116410000000  0.5454610000000 1.0
C      1  0.5168210000000  0.3682910000000  0.5163550000000 1.0
C      1  0.4787290000000  0.3640740000000  0.4828230000000 1.0
C      1  0.5214800000000  0.6344020000000  0.5172680000000 1.0
C      1  0.4835790000000  0.6303090000000  0.4835500000000 1.0
C      1  0.4969360000000  0.4534810000000  0.5324690000000 1.0
C      1  0.5066900000000  0.4589790000000  0.4630380000000 1.0
C      1  0.4937630000000  0.5397700000000  0.5367500000000 1.0
C      1  0.5034830000000  0.5453270000000  0.4672940000000 1.0
C      1  0.5598530000000  0.4451280000000  0.4320110000000 1.0
C      1  0.4338870000000  0.4430490000000  0.5687780000000 1.0
C      1  0.5665790000000  0.5555830000000  0.4310170000000 1.0
C      1  0.4405900000000  0.5535590000000  0.5678520000000 1.0
C      1  0.5398390000000  0.4728040000000  0.5768980000000 1.0
C      1  0.4623500000000  0.4692750000000  0.4233980000000 1.0
C      1  0.5380410000000  0.5293520000000  0.5764840000000 1.0
C      1  0.4603900000000  0.5257520000000  0.4229600000000 1.0
C      1  0.4171740000000  0.3947840000000  0.5195900000000 1.0
C      1  0.5789630000000  0.3965520000000  0.4785690000000 1.0
C      1  0.4214340000000  0.6021020000000  0.5213080000000 1.0
C      1  0.5829740000000  0.6037880000000  0.4803570000000 1.0
C      1  0.4066400000000  0.4233520000000  0.5166250000000 1.0
C      1  0.5912370000000  0.4246300000000  0.4824340000000 1.0
C      1  0.4091460000000  0.5740260000000  0.5174280000000 1.0
C      1  0.5936960000000  0.5752920000000  0.4833390000000 1.0
C      1  0.4579610000000  0.5400570000000  0.6238080000000 1.0
C      1  0.5507830000000  0.5444990000000  0.3741370000000 1.0
C      1  0.4497080000000  0.4541550000000  0.6256820000000 1.0
C      1  0.5425590000000  0.4586070000000  0.3760640000000 1.0
C      1  0.3973300000000  0.5137590000000  0.4710200000000 1.0
C      1  0.6028410000000  0.5150090000000  0.5285660000000 1.0
C      1  0.3973730000000  0.4835280000000  0.4714490000000 1.0
C      1  0.6029950000000  0.4847820000000  0.5289750000000 1.0
C      1  0.5266590000000  0.6159890000000  0.5640780000000 1.0
C      1  0.4802620000000  0.6106210000000  0.4373490000000 1.0
C      1  0.5204710000000  0.3877160000000  0.5626570000000 1.0
C      1  0.4736710000000  0.3825890000000  0.4360420000000 1.0
C      1  0.4535070000000  0.4278110000000  0.6116600000000 1.0
C      1  0.5367900000000  0.4324510000000  0.3898300000000 1.0
C      1  0.4637650000000  0.5661910000000  0.6100110000000 1.0
C      1  0.5469330000000  0.5708290000000  0.3881830000000 1.0
C      1  0.5173020000000  0.5456640000000  0.4921540000000 1.0
C      1  0.4802880000000  0.5430850000000  0.5118260000000 1.0
C      1  0.5201450000000  0.4556810000000  0.4879650000000 1.0
C      1  0.4831140000000  0.4531470000000  0.5076110000000 1.0
C      1  0.4164080000000  0.5592030000000  0.4197950000000 1.0
C      1  0.5803400000000  0.5654510000000  0.5806390000000 1.0
C      1  0.4200810000000  0.4331250000000  0.4192680000000 1.0
C      1  0.5837630000000  0.4392830000000  0.5800940000000 1.0
C      1  0.5478690000000  0.4431700000000  0.6155960000000 1.0
C      1  0.4574210000000  0.4394830000000  0.3849750000000 1.0
C      1  0.5429960000000  0.5591170000000  0.6149290000000 1.0
C      1  0.4522770000000  0.5554390000000  0.3842790000000 1.0
C      1  0.5420380000000  0.4269250000000  0.4188830000000 1.0
C      1  0.4498650000000  0.4234280000000  0.5822580000000 1.0
C      1  0.5505410000000  0.5751920000000  0.4175970000000 1.0
C      1  0.4584630000000  0.5717180000000  0.5809680000000 1.0
C      1  0.5447880000000  0.4854130000000  0.5188130000000 1.0
C      1  0.4557710000000  0.4843940000000  0.4804800000000 1.0
C      1  0.5445960000000  0.5143720000000  0.5193020000000 1.0
C      1  0.4555530000000  0.5133390000000  0.4810460000000 1.0
C      1  0.5573760000000  0.5153510000000  0.4613700000000 1.0
C      1  0.4437350000000  0.5127290000000  0.5378530000000 1.0
C      1  0.5566400000000  0.4859370000000  0.4620190000000 1.0
C      1  0.4430720000000  0.4833060000000  0.5384530000000 1.0
C      1  0.6119080000000  0.4357210000000  0.5036900000000 1.0
C      1  0.3860860000000  0.4351120000000  0.4959600000000 1.0
C      1  0.6140850000000  0.5635240000000  0.5041790000000 1.0
C      1  0.3884900000000  0.5629060000000  0.4961740000000 1.0
C      1  0.5584640000000  0.5161700000000  0.6304410000000 1.0
C      1  0.4404580000000  0.5113490000000  0.3694670000000 1.0
C      1  0.5598390000000  0.4872250000000  0.6304080000000 1.0
C      1  0.4419010000000  0.4824030000000  0.3694310000000 1.0
C      1  0.5192810000000  0.5224200000000  0.5082740000000 1.0
C      1  0.4800820000000  0.5217890000000  0.4930340000000 1.0
C      1  0.5203020000000  0.4770090000000  0.5067100000000 1.0
C      1  0.4811210000000  0.4763620000000  0.4914490000000 1.0
C      1  0.5500190000000  0.4713210000000  0.4375630000000 1.0
C      1  0.4457960000000  0.4687090000000  0.5645110000000 1.0
C      1  0.5546690000000  0.5299200000000  0.4352890000000 1.0
C      1  0.4503350000000  0.5273280000000  0.5623270000000 1.0
C      1  0.5772550000000  0.4452370000000  0.4700860000000 1.0
C      1  0.4226300000000  0.4428290000000  0.5284590000000 1.0
C      1  0.5779680000000  0.5557570000000  0.4712900000000 1.0
C      1  0.4230570000000  0.5534060000000  0.5298360000000 1.0
C      1  0.4940150000000  0.4770600000000  0.5794140000000 1.0
C      1  0.5053100000000  0.4897490000000  0.4233070000000 1.0
C      1  0.4950760000000  0.5089780000000  0.5765360000000 1.0
C      1  0.5063800000000  0.5216830000000  0.4203480000000 1.0
C      1  0.5964610000000  0.3737640000000  0.4739340000000 1.0
C      1  0.3984990000000  0.3726360000000  0.5220420000000 1.0
C      1  0.6015030000000  0.6260460000000  0.4778270000000 1.0
C      1  0.4039410000000  0.6248910000000  0.5259610000000 1.0
C      1  0.3618550000000  0.4840860000000  0.5060160000000 1.0
C      1  0.6382190000000  0.4842520000000  0.4942280000000 1.0
C      1  0.3621330000000  0.5144330000000  0.5057940000000 1.0
C      1  0.6385010000000  0.5146010000000  0.4941460000000 1.0
C      1  0.4647940000000  0.3885650000000  0.5460030000000 1.0
C      1  0.5293010000000  0.3923150000000  0.4550030000000 1.0
C      1  0.4710860000000  0.6063730000000  0.5448780000000 1.0
C      1  0.5351370000000  0.6096570000000  0.4541350000000 1.0
C      1  0.6001550000000  0.5142850000000  0.4770210000000 1.0
C      1  0.4003080000000  0.5123390000000  0.5231670000000 1.0
C      1  0.6000790000000  0.4862490000000  0.4767690000000 1.0
C      1  0.4002990000000  0.4843000000000  0.5229230000000 1.0
C      1  0.3820530000000  0.5310870000000  0.4903450000000 1.0
C      1  0.6193430000000  0.5318860000000  0.5099240000000 1.0
C      1  0.3808670000000  0.4667230000000  0.4901530000000 1.0
C      1  0.6183090000000  0.4675260000000  0.5096200000000 1.0
C      1  0.5279200000000  0.5719000000000  0.5940610000000 1.0
C      1  0.4666500000000  0.5695710000000  0.4046550000000 1.0
C      1  0.5334160000000  0.4290810000000  0.5952460000000 1.0
C      1  0.4724980000000  0.4267070000000  0.4058480000000 1.0
C      1  0.5749360000000  0.4474540000000  0.5292970000000 1.0
C      1  0.4255430000000  0.4460850000000  0.4700480000000 1.0
C      1  0.5749180000000  0.5525750000000  0.5298290000000 1.0
C      1  0.4253310000000  0.5511980000000  0.4705900000000 1.0
C      1  0.4493580000000  0.4036490000000  0.4731950000000 1.0
C      1  0.5490700000000  0.4055970000000  0.5266970000000 1.0
C      1  0.4514160000000  0.5929450000000  0.4732280000000 1.0
C      1  0.5512480000000  0.5951510000000  0.5269950000000 1.0
C      1  0.4346700000000  0.5530300000000  0.4418740000000 1.0
C      1  0.5638710000000  0.5567050000000  0.5579160000000 1.0
C      1  0.4365640000000  0.4418890000000  0.4419760000000 1.0
C      1  0.5655460000000  0.4455110000000  0.5579950000000 1.0
C      1  0.4284950000000  0.5777460000000  0.4803910000000 1.0
C      1  0.5735590000000  0.5792080000000  0.5199300000000 1.0
C      1  0.4270120000000  0.4195590000000  0.4801520000000 1.0
C      1  0.5718890000000  0.4209050000000  0.5194700000000 1.0
C      1  0.5752780000000  0.5293470000000  0.4819010000000 1.0
C      1  0.4251090000000  0.5272350000000  0.5184740000000 1.0
C      1  0.5752330000000  0.4714180000000  0.4814310000000 1.0
C      1  0.4251970000000  0.4692910000000  0.5179120000000 1.0
C      1  0.5353350000000  0.4702810000000  0.6231740000000 1.0
C      1  0.4676840000000  0.4676410000000  0.3774130000000 1.0
C      1  0.5327030000000  0.5309780000000  0.6224840000000 1.0
C      1  0.4649190000000  0.5283610000000  0.3767040000000 1.0
C      1  0.5352140000000  0.5233520000000  0.4142850000000 1.0
C      1  0.4678470000000  0.5170940000000  0.5825620000000 1.0
C      1  0.5325160000000  0.4815550000000  0.4173070000000 1.0
C      1  0.4652330000000  0.4752840000000  0.5854990000000 1.0
C      1  0.5199950000000  0.4832230000000  0.5984350000000 1.0
C      1  0.4815960000000  0.4819720000000  0.4027870000000 1.0
C      1  0.5187710000000  0.5166930000000  0.5970980000000 1.0
C      1  0.4802970000000  0.5154430000000  0.4014450000000 1.0
C      1  0.4342800000000  0.4813150000000  0.4173800000000 1.0
C      1  0.5671230000000  0.4869970000000  0.5824500000000 1.0
C      1  0.4331530000000  0.5115390000000  0.4174160000000 1.0
C      1  0.5660750000000  0.5172370000000  0.5824890000000 1.0
C      1  0.4527290000000  0.6066080000000  0.5203130000000 1.0
C      1  0.5520460000000  0.6093020000000  0.4799000000000 1.0
C      1  0.4480820000000  0.3890950000000  0.5201640000000 1.0
C      1  0.5476640000000  0.3920430000000  0.4795690000000 1.0
C      1  0.4790820000000  0.5823590000000  0.5619490000000 1.0
C      1  0.5287920000000  0.5867940000000  0.4346550000000 1.0
C      1  0.4714470000000  0.4115340000000  0.5652040000000 1.0
C      1  0.5213770000000  0.4163340000000  0.4378990000000 1.0
C      1  0.5117520000000  0.3670360000000  0.5449680000000 1.0
C      1  0.4798300000000  0.3608610000000  0.4537590000000 1.0
C      1  0.5201910000000  0.6375920000000  0.5463240000000 1.0
C      1  0.4888040000000  0.6314320000000  0.4549630000000 1.0
C      1  0.5002630000000  0.3531470000000  0.4984970000000 1.0
C      1  0.5001360000000  0.6454080000000  0.5014260000000 1.0
C      1  0.5002190000000  0.4994030000000  0.4998030000000 1.0
END
