TITL C-862133-5440-296 -69.2333792719775 125000 -543.08865280218 0 0 96 (C1) n - 1
REM
REM in /home/nfs/bkarasulu/CARBON/AIRSS/Generating-Clusters/TERSOFF/Higher-Symm/FIRE-HFTN
REM
REM
REM
REM
REM
REM ./C.cell (b20cbc046b6831c77cfcea5457e17084)
REM AIRSS Version 0.9.1 bugfix July 2018 build 013d7b7c2542+ Fri, 06 Jul 2018 19:26:36 +0100
REM compiler GCC version 9.2.1 20190827 (Red Hat 9.2.1-1)
REM options -cpp -mtune=generic -march=x86-64 -g -O0 -fpre-include=/usr/include/finclude/math-vector-fortran.h
REM seed 506305006 -1186000306 -1035448151 -642575112 -421969973 1010873947 -279076671 1370037202 -330616993 -1996930422 1326685989 -1145083559 550212989 1811376948 1691946269 615655512 991804278 -1187418279 780717884 -145886201 453081072 502485479 -984208556 -556354699 -1830528341 61222262 -1120082803 -450687346 -355247514 1857615946 -212310660 702499165 2027793099
REM
CELL 1.54180   50.00000   50.00000   50.00000   90.00000   90.00000   90.00000
LATT -1
SFAC C  
C      1  0.5208550000000  0.4365800000000  0.5746300000000 1.0
C      1  0.5464210000000  0.4363970000000  0.5559130000000 1.0
C      1  0.4937780000000  0.5575790000000  0.5629660000000 1.0
C      1  0.4701870000000  0.5435280000000  0.5767850000000 1.0
C      1  0.5043920000000  0.4495800000000  0.4992860000000 1.0
C      1  0.5027310000000  0.5440010000000  0.5344230000000 1.0
C      1  0.5423550000000  0.5071320000000  0.4126190000000 1.0
C      1  0.4577850000000  0.5596040000000  0.5336500000000 1.0
C      1  0.4247970000000  0.4600400000000  0.5216950000000 1.0
C      1  0.4736050000000  0.5791810000000  0.4617320000000 1.0
C      1  0.5210860000000  0.4219730000000  0.4669470000000 1.0
C      1  0.5248160000000  0.5259080000000  0.5374860000000 1.0
C      1  0.4349680000000  0.4514970000000  0.4738050000000 1.0
C      1  0.4741170000000  0.4465500000000  0.4595240000000 1.0
C      1  0.4235670000000  0.5413670000000  0.5175300000000 1.0
C      1  0.5687160000000  0.5086600000000  0.5216000000000 1.0
C      1  0.5441530000000  0.4177930000000  0.5251070000000 1.0
C      1  0.4708000000000  0.4821640000000  0.5229590000000 1.0
C      1  0.4989710000000  0.5018600000000  0.4988480000000 1.0
C      1  0.4341470000000  0.4975790000000  0.4927700000000 1.0
C      1  0.4766380000000  0.5373850000000  0.4644750000000 1.0
C      1  0.4839580000000  0.5453700000000  0.4113300000000 1.0
C      1  0.5344640000000  0.4888430000000  0.5848120000000 1.0
C      1  0.4753090000000  0.4994110000000  0.4300220000000 1.0
C      1  0.5739870000000  0.4594850000000  0.5228970000000 1.0
C      1  0.5624250000000  0.5586870000000  0.5253530000000 1.0
C      1  0.5278430000000  0.4079210000000  0.4937920000000 1.0
C      1  0.4364210000000  0.4998320000000  0.5475050000000 1.0
C      1  0.5748680000000  0.5364840000000  0.5108800000000 1.0
C      1  0.5302860000000  0.5888050000000  0.4763250000000 1.0
C      1  0.5393580000000  0.4893430000000  0.5105340000000 1.0
C      1  0.5637180000000  0.4606090000000  0.5522550000000 1.0
C      1  0.5567410000000  0.5135850000000  0.4753380000000 1.0
C      1  0.5208890000000  0.5886080000000  0.5064770000000 1.0
C      1  0.4223900000000  0.4697640000000  0.4935810000000 1.0
C      1  0.4722760000000  0.5743770000000  0.4921570000000 1.0
C      1  0.5217150000000  0.4967000000000  0.5336250000000 1.0
C      1  0.4741510000000  0.5183110000000  0.4084300000000 1.0
C      1  0.5187920000000  0.5379640000000  0.5771970000000 1.0
C      1  0.5568040000000  0.4864060000000  0.5653750000000 1.0
C      1  0.4632080000000  0.4895110000000  0.4801860000000 1.0
C      1  0.4722450000000  0.4303340000000  0.5181850000000 1.0
C      1  0.5461370000000  0.4834410000000  0.4320100000000 1.0
C      1  0.5048950000000  0.4556910000000  0.5917530000000 1.0
C      1  0.5311340000000  0.5491490000000  0.4899610000000 1.0
C      1  0.5539650000000  0.4431700000000  0.5094190000000 1.0
C      1  0.4307640000000  0.5198420000000  0.4732730000000 1.0
C      1  0.5116240000000  0.5082470000000  0.5820500000000 1.0
C      1  0.4825960000000  0.4467560000000  0.5436180000000 1.0
C      1  0.5025530000000  0.4273450000000  0.5543200000000 1.0
C      1  0.5303150000000  0.5171200000000  0.4628100000000 1.0
C      1  0.5058450000000  0.5029270000000  0.4709930000000 1.0
C      1  0.5706550000000  0.4790870000000  0.4486560000000 1.0
C      1  0.5631590000000  0.5108440000000  0.5513150000000 1.0
C      1  0.4292520000000  0.5127810000000  0.5200470000000 1.0
C      1  0.5335960000000  0.4611180000000  0.4951770000000 1.0
C      1  0.5708150000000  0.5380480000000  0.4818890000000 1.0
C      1  0.4440780000000  0.5623030000000  0.5049670000000 1.0
C      1  0.5150940000000  0.5716190000000  0.4538820000000 1.0
C      1  0.5326990000000  0.5354780000000  0.4194890000000 1.0
C      1  0.4874020000000  0.5461560000000  0.5071150000000 1.0
C      1  0.4772070000000  0.4660120000000  0.4965930000000 1.0
C      1  0.5808580000000  0.4837770000000  0.5073540000000 1.0
C      1  0.4450850000000  0.4720330000000  0.5402400000000 1.0
C      1  0.5530190000000  0.5611070000000  0.4683530000000 1.0
C      1  0.4786950000000  0.5074390000000  0.4579400000000 1.0
C      1  0.4796600000000  0.4697220000000  0.5825300000000 1.0
C      1  0.4479980000000  0.4611060000000  0.4424080000000 1.0
C      1  0.4598940000000  0.4551170000000  0.5630560000000 1.0
C      1  0.4803430000000  0.5789420000000  0.5407970000000 1.0
C      1  0.5241610000000  0.4657120000000  0.4416190000000 1.0
C      1  0.4928740000000  0.4192550000000  0.4576150000000 1.0
C      1  0.4954080000000  0.4809370000000  0.5425660000000 1.0
C      1  0.4742800000000  0.4714370000000  0.4257200000000 1.0
C      1  0.5026730000000  0.5432540000000  0.4821240000000 1.0
C      1  0.5118870000000  0.5486520000000  0.4041700000000 1.0
C      1  0.4441190000000  0.5384300000000  0.4298130000000 1.0
C      1  0.5304920000000  0.4496700000000  0.4656460000000 1.0
C      1  0.4709110000000  0.5554250000000  0.4388430000000 1.0
C      1  0.4630310000000  0.5306390000000  0.5374790000000 1.0
C      1  0.4858860000000  0.4965940000000  0.5699870000000 1.0
C      1  0.4329270000000  0.5148290000000  0.4447490000000 1.0
C      1  0.4722590000000  0.5148650000000  0.5123680000000 1.0
C      1  0.5005140000000  0.4579920000000  0.4249470000000 1.0
C      1  0.4709880000000  0.4090460000000  0.4779950000000 1.0
C      1  0.4307130000000  0.4870900000000  0.4332860000000 1.0
C      1  0.4614720000000  0.5158950000000  0.5651330000000 1.0
C      1  0.5708400000000  0.4882790000000  0.4771740000000 1.0
C      1  0.5301630000000  0.5431570000000  0.4475520000000 1.0
C      1  0.5140490000000  0.4117360000000  0.5332580000000 1.0
C      1  0.4997730000000  0.4175780000000  0.5073400000000 1.0
C      1  0.4587710000000  0.4378930000000  0.4895320000000 1.0
C      1  0.5351470000000  0.5635350000000  0.5162990000000 1.0
C      1  0.4915410000000  0.5886360000000  0.5131620000000 1.0
C      1  0.4495530000000  0.5411530000000  0.4801850000000 1.0
C      1  0.5455020000000  0.5352200000000  0.5584140000000 1.0
END
