TITL C-862500-986-1226 0.00959130527521607 125000 -630.518542783737 0 0 118 (C1) n - 1
REM
REM in /home/nfs/bkarasulu/CARBON/AIRSS/Generating-Clusters/TERSOFF/Higher-Symm/FIRE-HFTN
REM
REM
REM
REM
REM
REM ./C.cell (b20cbc046b6831c77cfcea5457e17084)
REM AIRSS Version 0.9.1 bugfix July 2018 build 013d7b7c2542+ Fri, 06 Jul 2018 19:26:36 +0100
REM compiler GCC version 9.2.1 20190827 (Red Hat 9.2.1-1)
REM options -cpp -mtune=generic -march=x86-64 -g -O0 -fpre-include=/usr/include/finclude/math-vector-fortran.h
REM seed 798852843 1189388153 1873671343 -1351374947 1476037334 660762630 1974853756 7264352 456458353 320978180 -1506386537 -1863957367 -1392832409 -692388255 -1603629355 -814402045 -1689346290 -1754107733 1179244715 -1102232510 965436387 -1743357416 1017646208 -1603953206 -1340618077 1448232130 861761105 -2030360128 49307690 1556900631 1514298232 -968809638 114413162
REM
CELL 1.54180   50.00000   50.00000   50.00000   90.00000   90.00000   90.00000
LATT -1
SFAC C  
C      1  0.5169890000000  0.5746650000000  0.5375140000000 1.0
C      1  0.4586550000000  0.5760450000000  0.4960340000000 1.0
C      1  0.5284150000000  0.5732850000000  0.4634260000000 1.0
C      1  0.5184190000000  0.4312870000000  0.4945850000000 1.0
C      1  0.4959290000000  0.4309900000000  0.5213060000000 1.0
C      1  0.4829110000000  0.4326600000000  0.4891350000000 1.0
C      1  0.5021110000000  0.5374320000000  0.5728870000000 1.0
C      1  0.4360080000000  0.5387500000000  0.4675640000000 1.0
C      1  0.5628930000000  0.5378930000000  0.4592670000000 1.0
C      1  0.4618610000000  0.5108950000000  0.5135540000000 1.0
C      1  0.5089200000000  0.5109780000000  0.4583880000000 1.0
C      1  0.5329740000000  0.5138690000000  0.5264900000000 1.0
C      1  0.5122000000000  0.5355990000000  0.4456020000000 1.0
C      1  0.5407720000000  0.5394450000000  0.5353220000000 1.0
C      1  0.4490490000000  0.5351620000000  0.5195940000000 1.0
C      1  0.5378460000000  0.4685130000000  0.4398840000000 1.0
C      1  0.5332010000000  0.4713820000000  0.5622510000000 1.0
C      1  0.4285050000000  0.4706320000000  0.4973470000000 1.0
C      1  0.4873540000000  0.5560650000000  0.4186730000000 1.0
C      1  0.5787100000000  0.5558870000000  0.5281410000000 1.0
C      1  0.4336290000000  0.5532820000000  0.5541770000000 1.0
C      1  0.4601230000000  0.5006310000000  0.4455590000000 1.0
C      1  0.5685870000000  0.5009390000000  0.4925860000000 1.0
C      1  0.4716540000000  0.4988980000000  0.5615350000000 1.0
C      1  0.4294030000000  0.4971020000000  0.4347510000000 1.0
C      1  0.5928380000000  0.4955940000000  0.4715940000000 1.0
C      1  0.4774900000000  0.4951640000000  0.5932090000000 1.0
C      1  0.5741880000000  0.5300980000000  0.5452870000000 1.0
C      1  0.4225170000000  0.5273530000000  0.5416930000000 1.0
C      1  0.5026320000000  0.5289750000000  0.4128200000000 1.0
C      1  0.5276910000000  0.5506870000000  0.5628470000000 1.0
C      1  0.4320410000000  0.5508660000000  0.4954530000000 1.0
C      1  0.5416570000000  0.5485860000000  0.4406030000000 1.0
C      1  0.5380650000000  0.5226810000000  0.4154490000000 1.0
C      1  0.5517470000000  0.5253720000000  0.5730910000000 1.0
C      1  0.4099180000000  0.5251250000000  0.5090720000000 1.0
C      1  0.4778140000000  0.5922360000000  0.5160080000000 1.0
C      1  0.5069400000000  0.5926000000000  0.4753700000000 1.0
C      1  0.5093030000000  0.5936750000000  0.5077070000000 1.0
C      1  0.5586760000000  0.4794770000000  0.5126920000000 1.0
C      1  0.4614840000000  0.4747960000000  0.5422530000000 1.0
C      1  0.4819350000000  0.4779480000000  0.4439900000000 1.0
C      1  0.5106850000000  0.4883990000000  0.4424290000000 1.0
C      1  0.5456900000000  0.4912990000000  0.5375650000000 1.0
C      1  0.4484090000000  0.4871900000000  0.5183580000000 1.0
C      1  0.4851980000000  0.4104680000000  0.5637720000000 1.0
C      1  0.4505080000000  0.4125630000000  0.4572450000000 1.0
C      1  0.5617740000000  0.4112560000000  0.4816800000000 1.0
C      1  0.4561150000000  0.4265590000000  0.5087380000000 1.0
C      1  0.5151730000000  0.4252780000000  0.4632840000000 1.0
C      1  0.5240640000000  0.4274530000000  0.5360150000000 1.0
C      1  0.4567260000000  0.4499620000000  0.5761320000000 1.0
C      1  0.4523390000000  0.4508580000000  0.4243850000000 1.0
C      1  0.5892210000000  0.4503540000000  0.4981760000000 1.0
C      1  0.6057880000000  0.4712750000000  0.4874230000000 1.0
C      1  0.4571010000000  0.4710900000000  0.5956310000000 1.0
C      1  0.4357290000000  0.4725980000000  0.4154660000000 1.0
C      1  0.5210030000000  0.4809290000000  0.4849950000000 1.0
C      1  0.5054460000000  0.4823700000000  0.5239210000000 1.0
C      1  0.4795000000000  0.4803090000000  0.4909740000000 1.0
C      1  0.4986180000000  0.4733100000000  0.6015540000000 1.0
C      1  0.4106960000000  0.4754470000000  0.4490540000000 1.0
C      1  0.5889270000000  0.4729300000000  0.4490060000000 1.0
C      1  0.4167650000000  0.4766850000000  0.5558190000000 1.0
C      1  0.4907640000000  0.4784400000000  0.4005130000000 1.0
C      1  0.5908080000000  0.4794710000000  0.5426030000000 1.0
C      1  0.4743800000000  0.4096410000000  0.4719700000000 1.0
C      1  0.5376350000000  0.4083900000000  0.4961420000000 1.0
C      1  0.4845070000000  0.4074630000000  0.5356740000000 1.0
C      1  0.4664870000000  0.5281630000000  0.4606510000000 1.0
C      1  0.5524470000000  0.5287130000000  0.4894480000000 1.0
C      1  0.4814850000000  0.5273090000000  0.5493950000000 1.0
C      1  0.5442450000000  0.4493910000000  0.5381560000000 1.0
C      1  0.4374460000000  0.4466830000000  0.5189920000000 1.0
C      1  0.5096860000000  0.4464680000000  0.4424780000000 1.0
C      1  0.4913200000000  0.5125630000000  0.5216450000000 1.0
C      1  0.4869670000000  0.5117190000000  0.4799270000000 1.0
C      1  0.5252660000000  0.5127890000000  0.4969820000000 1.0
C      1  0.5777740000000  0.5593130000000  0.4759360000000 1.0
C      1  0.4788330000000  0.5552170000000  0.5806590000000 1.0
C      1  0.4420520000000  0.5585270000000  0.4450540000000 1.0
C      1  0.4211220000000  0.5137830000000  0.4625970000000 1.0
C      1  0.5734500000000  0.5119300000000  0.4501010000000 1.0
C      1  0.5058520000000  0.5122200000000  0.5875430000000 1.0
C      1  0.4834460000000  0.4372580000000  0.5737590000000 1.0
C      1  0.4418590000000  0.4386740000000  0.4494430000000 1.0
C      1  0.5725570000000  0.4374320000000  0.4771390000000 1.0
C      1  0.4386820000000  0.4560780000000  0.5506310000000 1.0
C      1  0.4824480000000  0.4568320000000  0.4212950000000 1.0
C      1  0.5769880000000  0.4576230000000  0.5255770000000 1.0
C      1  0.5226710000000  0.5530830000000  0.5147280000000 1.0
C      1  0.4726670000000  0.5512090000000  0.5091000000000 1.0
C      1  0.5052450000000  0.5510810000000  0.4702600000000 1.0
C      1  0.4733410000000  0.5604710000000  0.4447210000000 1.0
C      1  0.5623710000000  0.5609870000000  0.5036660000000 1.0
C      1  0.4626560000000  0.5584400000000  0.5543240000000 1.0
C      1  0.5665510000000  0.4542260000000  0.4516260000000 1.0
C      1  0.5085580000000  0.4548200000000  0.5810700000000 1.0
C      1  0.4235230000000  0.4563880000000  0.4670610000000 1.0
C      1  0.6146450000000  0.5162510000000  0.5157450000000 1.0
C      1  0.4272110000000  0.5126230000000  0.5909110000000 1.0
C      1  0.4564520000000  0.5162180000000  0.3933440000000 1.0
C      1  0.5328090000000  0.5001850000000  0.5796440000000 1.0
C      1  0.4136580000000  0.5004300000000  0.4891480000000 1.0
C      1  0.5531480000000  0.4985350000000  0.4309610000000 1.0
C      1  0.4323310000000  0.5150700000000  0.4098190000000 1.0
C      1  0.6129960000000  0.5138710000000  0.4865320000000 1.0
C      1  0.4537520000000  0.5123510000000  0.6033540000000 1.0
C      1  0.4216330000000  0.5051810000000  0.5627220000000 1.0
C      1  0.4833900000000  0.5075100000000  0.4021530000000 1.0
C      1  0.5932180000000  0.5081450000000  0.5346940000000 1.0
C      1  0.4803950000000  0.5866230000000  0.4617060000000 1.0
C      1  0.5443940000000  0.5876210000000  0.5050040000000 1.0
C      1  0.4715840000000  0.5859550000000  0.5440600000000 1.0
C      1  0.4825980000000  0.4631550000000  0.5224760000000 1.0
C      1  0.4937100000000  0.4618670000000  0.4708850000000 1.0
C      1  0.5307660000000  0.4624340000000  0.5078510000000 1.0
C      1  0.5002580000000  0.5370240000000  0.4988600000000 1.0
END
