TITL C-862502-1143-1054 6.26839160190402 125000 -570.476727036061 0 0 95 (C1) n - 1
REM
REM in /home/nfs/bkarasulu/CARBON/AIRSS/Generating-Clusters/TERSOFF/Higher-Symm/FIRE-HFTN
REM
REM
REM
REM
REM
REM ./C.cell (b20cbc046b6831c77cfcea5457e17084)
REM AIRSS Version 0.9.1 bugfix July 2018 build 013d7b7c2542+ Fri, 06 Jul 2018 19:26:36 +0100
REM compiler GCC version 9.2.1 20190827 (Red Hat 9.2.1-1)
REM options -cpp -mtune=generic -march=x86-64 -g -O0 -fpre-include=/usr/include/finclude/math-vector-fortran.h
REM seed -492359727 597164775 1588046042 -1849535404 287685850 -1240440419 -2052213791 -1163558276 -1397002336 -838966444 -1861758889 442898019 212060600 -565726176 -1860040637 2005761098 586541019 1072105758 -833737621 -55323875 -2041297904 -931483364 -1985028942 -241475228 -146276679 -1496750765 913262391 1937811515 -411440518 -1434298315 2107487901 -490511884 878702193
REM
CELL 1.54180   50.00000   50.00000   50.00000   90.00000   90.00000   90.00000
LATT -1
SFAC C  
C      1  0.5433830000000  0.4742500000000  0.4491610000000 1.0
C      1  0.4564190000000  0.5245530000000  0.5508740000000 1.0
C      1  0.5501370000000  0.5032000000000  0.4471470000000 1.0
C      1  0.4505750000000  0.4956480000000  0.5531190000000 1.0
C      1  0.4242090000000  0.4374180000000  0.4591430000000 1.0
C      1  0.5739170000000  0.5651670000000  0.5369670000000 1.0
C      1  0.5630540000000  0.4621590000000  0.5672640000000 1.0
C      1  0.4373250000000  0.5466520000000  0.4330450000000 1.0
C      1  0.4538530000000  0.4799240000000  0.5782890000000 1.0
C      1  0.5464360000000  0.5196060000000  0.4228790000000 1.0
C      1  0.4499650000000  0.4162100000000  0.4953280000000 1.0
C      1  0.5462160000000  0.5816970000000  0.4999710000000 1.0
C      1  0.4832730000000  0.4723500000000  0.4822250000000 1.0
C      1  0.4952210000000  0.5096050000000  0.5178640000000 1.0
C      1  0.4502220000000  0.4804840000000  0.5287420000000 1.0
C      1  0.5507840000000  0.5181730000000  0.4712790000000 1.0
C      1  0.4899380000000  0.5606680000000  0.5281840000000 1.0
C      1  0.5140160000000  0.4318230000000  0.4730690000000 1.0
C      1  0.5476250000000  0.4647800000000  0.5084630000000 1.0
C      1  0.4542890000000  0.5357510000000  0.4907000000000 1.0
C      1  0.5489870000000  0.4184610000000  0.5058790000000 1.0
C      1  0.4564150000000  0.5824250000000  0.4977810000000 1.0
C      1  0.5017280000000  0.4514180000000  0.4899890000000 1.0
C      1  0.5003220000000  0.5385160000000  0.5127400000000 1.0
C      1  0.5143170000000  0.4329340000000  0.4314000000000 1.0
C      1  0.4827920000000  0.5666180000000  0.5690390000000 1.0
C      1  0.4416910000000  0.5623690000000  0.4801820000000 1.0
C      1  0.5624650000000  0.4407610000000  0.5219540000000 1.0
C      1  0.5000360000000  0.5240070000000  0.5785570000000 1.0
C      1  0.4989720000000  0.4754810000000  0.4205340000000 1.0
C      1  0.5240200000000  0.4613200000000  0.4298550000000 1.0
C      1  0.4747320000000  0.5376620000000  0.5702350000000 1.0
C      1  0.5766410000000  0.5064820000000  0.5140670000000 1.0
C      1  0.4240180000000  0.4949420000000  0.4844700000000 1.0
C      1  0.5175590000000  0.4573710000000  0.5127400000000 1.0
C      1  0.4848750000000  0.5393880000000  0.4878010000000 1.0
C      1  0.4752920000000  0.5759030000000  0.4496530000000 1.0
C      1  0.5284630000000  0.4287470000000  0.5533290000000 1.0
C      1  0.5243540000000  0.5406660000000  0.5711420000000 1.0
C      1  0.4737290000000  0.4602420000000  0.4263560000000 1.0
C      1  0.5092940000000  0.4943420000000  0.5379730000000 1.0
C      1  0.4912970000000  0.5077760000000  0.4499410000000 1.0
C      1  0.5223470000000  0.5652890000000  0.4294780000000 1.0
C      1  0.4809530000000  0.4369630000000  0.5726910000000 1.0
C      1  0.5704040000000  0.5679560000000  0.5082680000000 1.0
C      1  0.4277880000000  0.4331320000000  0.4877580000000 1.0
C      1  0.5718320000000  0.5394820000000  0.5498650000000 1.0
C      1  0.4257250000000  0.4636130000000  0.4471500000000 1.0
C      1  0.5934760000000  0.4973230000000  0.4735470000000 1.0
C      1  0.4076180000000  0.5027090000000  0.5244790000000 1.0
C      1  0.4556310000000  0.4509640000000  0.5753140000000 1.0
C      1  0.5465870000000  0.5488520000000  0.4263560000000 1.0
C      1  0.5559280000000  0.4593480000000  0.4738170000000 1.0
C      1  0.4455160000000  0.5394640000000  0.5255370000000 1.0
C      1  0.5852400000000  0.4687930000000  0.4730240000000 1.0
C      1  0.4161460000000  0.5308800000000  0.5256190000000 1.0
C      1  0.4694170000000  0.4118570000000  0.4479070000000 1.0
C      1  0.5254450000000  0.5878620000000  0.5470530000000 1.0
C      1  0.4992840000000  0.4964410000000  0.5898450000000 1.0
C      1  0.4996450000000  0.5056070000000  0.4165900000000 1.0
C      1  0.4248600000000  0.4806380000000  0.5116520000000 1.0
C      1  0.5766790000000  0.5193600000000  0.4868830000000 1.0
C      1  0.4705080000000  0.4077810000000  0.4767850000000 1.0
C      1  0.5238500000000  0.5874780000000  0.5177680000000 1.0
C      1  0.5431470000000  0.4826340000000  0.5692740000000 1.0
C      1  0.4551220000000  0.5249190000000  0.4275870000000 1.0
C      1  0.4524770000000  0.4751750000000  0.4403090000000 1.0
C      1  0.5446190000000  0.5279750000000  0.5546910000000 1.0
C      1  0.4957040000000  0.5549370000000  0.4390070000000 1.0
C      1  0.5060850000000  0.4493600000000  0.5624270000000 1.0
C      1  0.5429940000000  0.4295520000000  0.4781690000000 1.0
C      1  0.4617360000000  0.5676540000000  0.5235380000000 1.0
C      1  0.5288960000000  0.5368510000000  0.4753910000000 1.0
C      1  0.4725260000000  0.4619340000000  0.5245460000000 1.0
C      1  0.5570270000000  0.4391630000000  0.5513080000000 1.0
C      1  0.4460350000000  0.5670030000000  0.4511960000000 1.0
C      1  0.5842910000000  0.5486300000000  0.4900250000000 1.0
C      1  0.4155540000000  0.4521340000000  0.5071960000000 1.0
C      1  0.4820890000000  0.5333290000000  0.4180100000000 1.0
C      1  0.5173130000000  0.4744140000000  0.5797300000000 1.0
C      1  0.5267850000000  0.4131310000000  0.5269170000000 1.0
C      1  0.4783860000000  0.5889120000000  0.4771580000000 1.0
C      1  0.5888380000000  0.5203600000000  0.5361940000000 1.0
C      1  0.4100300000000  0.4823130000000  0.4626910000000 1.0
C      1  0.5541640000000  0.4907090000000  0.5216270000000 1.0
C      1  0.4457860000000  0.5115020000000  0.4756900000000 1.0
C      1  0.4724930000000  0.4897050000000  0.5977780000000 1.0
C      1  0.5259480000000  0.5107360000000  0.4056780000000 1.0
C      1  0.4594450000000  0.5033940000000  0.4498760000000 1.0
C      1  0.5384530000000  0.5001300000000  0.5453430000000 1.0
C      1  0.4843590000000  0.4322090000000  0.4334070000000 1.0
C      1  0.5126710000000  0.5683750000000  0.5647770000000 1.0
C      1  0.5011090000000  0.4654440000000  0.5365490000000 1.0
C      1  0.5004850000000  0.5341710000000  0.4627970000000 1.0
C      1  0.4763950000000  0.4954160000000  0.4994860000000 1.0
END
