TITL C-862502-1143-1077 -0.00130846395564004 125000 -248.353305269692 0 0 46 (C5) n - 1
REM
REM in /home/nfs/bkarasulu/CARBON/AIRSS/Generating-Clusters/TERSOFF/Higher-Symm/FIRE-HFTN
REM
REM
REM
REM
REM
REM ./C.cell (b20cbc046b6831c77cfcea5457e17084)
REM AIRSS Version 0.9.1 bugfix July 2018 build 013d7b7c2542+ Fri, 06 Jul 2018 19:26:36 +0100
REM compiler GCC version 9.2.1 20190827 (Red Hat 9.2.1-1)
REM options -cpp -mtune=generic -march=x86-64 -g -O0 -fpre-include=/usr/include/finclude/math-vector-fortran.h
REM seed 1539020730 -672976816 1411250811 -452627529 947113117 1358054970 -1830926199 1948241391 887803110 -559069648 2140647117 -370084912 1183403618 1538188474 -1358773031 261433966 -1175816107 -345898124 906784665 889703643 -766465252 -1101776384 882300242 -1036395023 1189438760 -187894972 435071789 1641438041 -321156363 -1825713377 66991846 1678402428 -1765024139
REM
CELL 1.54180   50.00000   50.00000   50.00000   90.00000   90.00000   90.00000
LATT -1
SFAC C  
C      1  0.4761650000000  0.4421240000000  0.4618770000000 1.0
C      1  0.4761650000000  0.4453770000000  0.5431010000000 1.0
C      1  0.4761650000000  0.5236300000000  0.5651050000000 1.0
C      1  0.4761650000000  0.5687400000000  0.4974820000000 1.0
C      1  0.4761650000000  0.5183660000000  0.4336840000000 1.0
C      1  0.4555170000000  0.4986920000000  0.5268250000000 1.0
C      1  0.4555170000000  0.5246270000000  0.5093710000000 1.0
C      1  0.4555170000000  0.5160410000000  0.4793120000000 1.0
C      1  0.4555170000000  0.4848000000000  0.4781880000000 1.0
C      1  0.4555170000000  0.4740780000000  0.5075530000000 1.0
C      1  0.4842170000000  0.5563070000000  0.4581860000000 1.0
C      1  0.4842170000000  0.4771510000000  0.4333650000000 1.0
C      1  0.4842170000000  0.4290840000000  0.5009760000000 1.0
C      1  0.4842160000000  0.4785330000000  0.5675840000000 1.0
C      1  0.4842170000000  0.5571610000000  0.5411380000000 1.0
C      1  0.5025570000000  0.4513180000000  0.4704460000000 1.0
C      1  0.5025560000000  0.4563680000000  0.5370040000000 1.0
C      1  0.5025570000000  0.5212280000000  0.5527680000000 1.0
C      1  0.5025570000000  0.5562640000000  0.4959540000000 1.0
C      1  0.5025570000000  0.5130580000000  0.4450770000000 1.0
C      1  0.4640630000000  0.4679530000000  0.4542360000000 1.0
C      1  0.4640630000000  0.4460910000000  0.5161740000000 1.0
C      1  0.4640630000000  0.4982430000000  0.5561060000000 1.0
C      1  0.4640630000000  0.5523350000000  0.5188460000000 1.0
C      1  0.4640630000000  0.5336150000000  0.4558870000000 1.0
C      1  0.5448760000000  0.4907510000000  0.4559110000000 1.0
C      1  0.5448760000000  0.4547300000000  0.4950090000000 1.0
C      1  0.5448760000000  0.4807830000000  0.5413500000000 1.0
C      1  0.5448760000000  0.5329060000000  0.5308920000000 1.0
C      1  0.5448770000000  0.5390670000000  0.4780880000000 1.0
C      1  0.5158410000000  0.4875820000000  0.4406000000000 1.0
C      1  0.5158410000000  0.4391890000000  0.4932920000000 1.0
C      1  0.5158410000000  0.4743480000000  0.5555990000000 1.0
C      1  0.5158410000000  0.5444700000000  0.5414150000000 1.0
C      1  0.5158410000000  0.5526490000000  0.4703420000000 1.0
C      1  0.5563630000000  0.4611310000000  0.5219050000000 1.0
C      1  0.5563630000000  0.5083410000000  0.5435730000000 1.0
C      1  0.5563630000000  0.5435360000000  0.5053700000000 1.0
C      1  0.5563640000000  0.5180790000000  0.4600920000000 1.0
C      1  0.5563630000000  0.4671500000000  0.4703110000000 1.0
C      1  0.5069700000000  0.5336170000000  0.5128820000000 1.0
C      1  0.5069700000000  0.5221580000000  0.4718460000000 1.0
C      1  0.5069700000000  0.4795900000000  0.4700640000000 1.0
C      1  0.5069700000000  0.4647400000000  0.5099980000000 1.0
C      1  0.5069700000000  0.4981310000000  0.5364610000000 1.0
C      1  0.5085270000000  0.4996470000000  0.5002500000000 1.0
END
