TITL C-862130-1496-305 480.101613774777 125000 -782.160021758685 0 0 136 (C1) n - 1
REM
REM in /home/nfs/bkarasulu/CARBON/AIRSS/Generating-Clusters/TERSOFF/Higher-Symm/FIRE-HFTN
REM
REM
REM
REM
REM
REM ./C.cell (b20cbc046b6831c77cfcea5457e17084)
REM AIRSS Version 0.9.1 bugfix July 2018 build 013d7b7c2542+ Fri, 06 Jul 2018 19:26:36 +0100
REM compiler GCC version 9.2.1 20190827 (Red Hat 9.2.1-1)
REM options -cpp -mtune=generic -march=x86-64 -g -O0 -fpre-include=/usr/include/finclude/math-vector-fortran.h
REM seed 325453057 -1262114438 -1096407235 -847402959 -550846141 1454467255 -266291864 162566356 -1472071407 1824911308 1410315384 1067476424 1303601752 -398546653 1692777021 1222054824 102489560 1261294830 318168617 -1484623062 1802705392 -782613351 -903315206 379291592 -1592847943 455498597 444105444 -119457887 -339169794 -1308404536 1623421838 -548456966 1097806117
REM
CELL 1.54180   50.00000   50.00000   50.00000   90.00000   90.00000   90.00000
LATT -1
SFAC C  
C      1  0.5211270000000  0.5225500000000  0.5923680000000 1.0
C      1  0.4335960000000  0.5770190000000  0.5315610000000 1.0
C      1  0.4885900000000  0.3745980000000  0.5094640000000 1.0
C      1  0.4911860000000  0.5471390000000  0.4835600000000 1.0
C      1  0.5210470000000  0.4317120000000  0.5721740000000 1.0
C      1  0.4831010000000  0.4022410000000  0.4713230000000 1.0
C      1  0.5391130000000  0.4068070000000  0.5401510000000 1.0
C      1  0.5870590000000  0.5340120000000  0.5310450000000 1.0
C      1  0.4388350000000  0.4649540000000  0.5503020000000 1.0
C      1  0.4499260000000  0.4598920000000  0.4767370000000 1.0
C      1  0.4964740000000  0.4462500000000  0.4411920000000 1.0
C      1  0.4236220000000  0.5265900000000  0.4659980000000 1.0
C      1  0.5757530000000  0.5103940000000  0.5424260000000 1.0
C      1  0.5874570000000  0.4836810000000  0.5405870000000 1.0
C      1  0.5931910000000  0.4940300000000  0.4369320000000 1.0
C      1  0.4695910000000  0.4813480000000  0.4840410000000 1.0
C      1  0.5692620000000  0.4614320000000  0.5506590000000 1.0
C      1  0.5199030000000  0.4770050000000  0.4107810000000 1.0
C      1  0.4695340000000  0.5355460000000  0.5962480000000 1.0
C      1  0.5899500000000  0.5367130000000  0.5006060000000 1.0
C      1  0.4415020000000  0.4172920000000  0.5047160000000 1.0
C      1  0.5001950000000  0.5272390000000  0.5688280000000 1.0
C      1  0.5147010000000  0.5103270000000  0.5086130000000 1.0
C      1  0.4074990000000  0.5036460000000  0.4318660000000 1.0
C      1  0.5775910000000  0.4981160000000  0.6020900000000 1.0
C      1  0.5700150000000  0.4762080000000  0.4378460000000 1.0
C      1  0.5034970000000  0.5891250000000  0.3918180000000 1.0
C      1  0.4838690000000  0.5480690000000  0.5293570000000 1.0
C      1  0.4498070000000  0.5028710000000  0.5644590000000 1.0
C      1  0.4440890000000  0.3891020000000  0.4990730000000 1.0
C      1  0.4844360000000  0.4586160000000  0.5883980000000 1.0
C      1  0.5916220000000  0.3970000000000  0.4645680000000 1.0
C      1  0.4636310000000  0.6161050000000  0.4483020000000 1.0
C      1  0.4563250000000  0.4332340000000  0.4852870000000 1.0
C      1  0.5415500000000  0.4707330000000  0.4975910000000 1.0
C      1  0.4077490000000  0.5509010000000  0.4636730000000 1.0
C      1  0.4751560000000  0.5031290000000  0.6008510000000 1.0
C      1  0.4578860000000  0.5350380000000  0.5294760000000 1.0
C      1  0.5940710000000  0.4734390000000  0.5133540000000 1.0
C      1  0.4123030000000  0.5751780000000  0.4788980000000 1.0
C      1  0.4527070000000  0.5254030000000  0.4641510000000 1.0
C      1  0.5515110000000  0.4878610000000  0.5947110000000 1.0
C      1  0.5340940000000  0.4728510000000  0.6136470000000 1.0
C      1  0.5666360000000  0.5563100000000  0.4599380000000 1.0
C      1  0.5654720000000  0.4542600000000  0.4195670000000 1.0
C      1  0.4043550000000  0.4855960000000  0.5291940000000 1.0
C      1  0.5670190000000  0.4525790000000  0.5780290000000 1.0
C      1  0.4442720000000  0.4527090000000  0.5779210000000 1.0
C      1  0.4099190000000  0.5342050000000  0.5491020000000 1.0
C      1  0.5240270000000  0.5725310000000  0.4651600000000 1.0
C      1  0.5009290000000  0.5923780000000  0.5256350000000 1.0
C      1  0.5021310000000  0.4225420000000  0.4819980000000 1.0
C      1  0.4100260000000  0.4857760000000  0.4550010000000 1.0
C      1  0.5153270000000  0.4178040000000  0.5072660000000 1.0
C      1  0.5970980000000  0.5172890000000  0.4543770000000 1.0
C      1  0.5244560000000  0.6030070000000  0.4086700000000 1.0
C      1  0.5560840000000  0.5735920000000  0.5525330000000 1.0
C      1  0.4823030000000  0.5792390000000  0.5725970000000 1.0
C      1  0.4096660000000  0.4989450000000  0.5039710000000 1.0
C      1  0.4592930000000  0.4956690000000  0.5094860000000 1.0
C      1  0.5779360000000  0.4488460000000  0.5061320000000 1.0
C      1  0.5455220000000  0.4356100000000  0.5871380000000 1.0
C      1  0.4382210000000  0.5878390000000  0.4824540000000 1.0
C      1  0.5256680000000  0.4438180000000  0.5256100000000 1.0
C      1  0.5990770000000  0.5142850000000  0.4829600000000 1.0
C      1  0.5276390000000  0.5237410000000  0.5311450000000 1.0
C      1  0.5916220000000  0.4253700000000  0.4955380000000 1.0
C      1  0.4858000000000  0.5499440000000  0.4560060000000 1.0
C      1  0.5721180000000  0.4269640000000  0.4284480000000 1.0
C      1  0.4748980000000  0.6042820000000  0.5159520000000 1.0
C      1  0.4301450000000  0.4643710000000  0.4551750000000 1.0
C      1  0.5565620000000  0.4463930000000  0.5283130000000 1.0
C      1  0.5401270000000  0.4913230000000  0.5682840000000 1.0
C      1  0.4309780000000  0.4668290000000  0.3750200000000 1.0
C      1  0.4993100000000  0.5338450000000  0.4353440000000 1.0
C      1  0.5685100000000  0.5590380000000  0.5289430000000 1.0
C      1  0.3962360000000  0.4919760000000  0.4795930000000 1.0
C      1  0.4523180000000  0.4961060000000  0.4117500000000 1.0
C      1  0.4492830000000  0.5897720000000  0.5100730000000 1.0
C      1  0.5020960000000  0.5601710000000  0.3905940000000 1.0
C      1  0.4832670000000  0.4145140000000  0.5657790000000 1.0
C      1  0.5140700000000  0.4807040000000  0.5680000000000 1.0
C      1  0.4332840000000  0.5482770000000  0.5365950000000 1.0
C      1  0.4610510000000  0.4850780000000  0.5390730000000 1.0
C      1  0.5166870000000  0.4825200000000  0.5043980000000 1.0
C      1  0.5106190000000  0.4514800000000  0.5519340000000 1.0
C      1  0.5398170000000  0.5548140000000  0.4482350000000 1.0
C      1  0.5471670000000  0.4124430000000  0.5054440000000 1.0
C      1  0.5065290000000  0.5386020000000  0.5442590000000 1.0
C      1  0.4787910000000  0.6043740000000  0.4002090000000 1.0
C      1  0.5727670000000  0.4178240000000  0.4568670000000 1.0
C      1  0.4551630000000  0.5901640000000  0.4586400000000 1.0
C      1  0.5279930000000  0.5285630000000  0.4411240000000 1.0
C      1  0.5884820000000  0.5433170000000  0.4466840000000 1.0
C      1  0.5481930000000  0.5104050000000  0.5487100000000 1.0
C      1  0.5668470000000  0.5636060000000  0.4931810000000 1.0
C      1  0.4862620000000  0.5444490000000  0.4092080000000 1.0
C      1  0.4964960000000  0.4700380000000  0.4871300000000 1.0
C      1  0.4641040000000  0.5655490000000  0.4458430000000 1.0
C      1  0.4936220000000  0.4683280000000  0.4221770000000 1.0
C      1  0.4733160000000  0.4915600000000  0.4320950000000 1.0
C      1  0.5285650000000  0.5692720000000  0.5639090000000 1.0
C      1  0.5257980000000  0.5964880000000  0.5101420000000 1.0
C      1  0.5539820000000  0.4287180000000  0.4772120000000 1.0
C      1  0.4062070000000  0.5046680000000  0.5518940000000 1.0
C      1  0.5058390000000  0.3986540000000  0.5512330000000 1.0
C      1  0.4914670000000  0.5223500000000  0.4970380000000 1.0
C      1  0.5072290000000  0.4483270000000  0.4685490000000 1.0
C      1  0.4155560000000  0.4557430000000  0.5333460000000 1.0
C      1  0.5040510000000  0.5826560000000  0.5533010000000 1.0
C      1  0.4541130000000  0.4267080000000  0.5588620000000 1.0
C      1  0.4337180000000  0.5421790000000  0.4116010000000 1.0
C      1  0.4298870000000  0.5136330000000  0.4161240000000 1.0
C      1  0.4536280000000  0.4759460000000  0.3905650000000 1.0
C      1  0.4801080000000  0.4594630000000  0.5557650000000 1.0
C      1  0.5346260000000  0.5058270000000  0.4602480000000 1.0
C      1  0.4355870000000  0.5110920000000  0.5031540000000 1.0
C      1  0.4682820000000  0.5007390000000  0.4603590000000 1.0
C      1  0.4817130000000  0.6198480000000  0.4258150000000 1.0
C      1  0.5211810000000  0.5549370000000  0.5923690000000 1.0
C      1  0.5027390000000  0.3959730000000  0.5222100000000 1.0
C      1  0.5390190000000  0.4544880000000  0.4723920000000 1.0
C      1  0.4700920000000  0.3812490000000  0.4884340000000 1.0
C      1  0.4767690000000  0.4594430000000  0.3976440000000 1.0
C      1  0.5033730000000  0.4952880000000  0.5958570000000 1.0
C      1  0.4584140000000  0.5564700000000  0.4176730000000 1.0
C      1  0.6084970000000  0.4892610000000  0.4941520000000 1.0
C      1  0.5117100000000  0.6206830000000  0.4288750000000 1.0
C      1  0.5104320000000  0.4550110000000  0.6054370000000 1.0
C      1  0.4888760000000  0.5592190000000  0.5940910000000 1.0
C      1  0.4542330000000  0.5305930000000  0.5710740000000 1.0
C      1  0.5367950000000  0.5775970000000  0.4907940000000 1.0
C      1  0.4344460000000  0.4278050000000  0.5312820000000 1.0
C      1  0.4513530000000  0.4843760000000  0.5889810000000 1.0
C      1  0.5416830000000  0.4588420000000  0.4032160000000 1.0
C      1  0.5483050000000  0.4794880000000  0.4561740000000 1.0
END
