TITL C-862501-1041-199 -8.78467215692019e-05 125000 -264.987084658329 0 0 44 (S4) n - 1
REM
REM in /home/nfs/bkarasulu/CARBON/AIRSS/Generating-Clusters/TERSOFF/Higher-Symm/FIRE-HFTN
REM
REM
REM
REM
REM
REM ./C.cell (b20cbc046b6831c77cfcea5457e17084)
REM AIRSS Version 0.9.1 bugfix July 2018 build 013d7b7c2542+ Fri, 06 Jul 2018 19:26:36 +0100
REM compiler GCC version 9.2.1 20190827 (Red Hat 9.2.1-1)
REM options -cpp -mtune=generic -march=x86-64 -g -O0 -fpre-include=/usr/include/finclude/math-vector-fortran.h
REM seed 1189533623 -1443597086 1381693090 -1415467699 -377004212 947312784 -178971925 1220580577 -1203804484 1447194960 -1112171254 998346518 -1775188866 -1841037310 -766520036 -1969513292 -2059786487 -790866961 734310673 706409999 743211161 -266946640 1839082676 71072833 185622108 -967021800 -111934076 351188040 446224400 293976033 2066957786 1073246610 508604229
REM
CELL 1.54180   50.00000   50.00000   50.00000   90.00000   90.00000   90.00000
LATT -1
SFAC C  
C      1  0.5708750000000  0.4653440000000  0.5071390000000 1.0
C      1  0.4291250000000  0.5346560000000  0.5071390000000 1.0
C      1  0.4289560000000  0.4652830000000  0.4938130000000 1.0
C      1  0.5710440000000  0.5347170000000  0.4938130000000 1.0
C      1  0.4652830000000  0.5710440000000  0.5061870000000 1.0
C      1  0.5347170000000  0.4289560000000  0.5061870000000 1.0
C      1  0.4653450000000  0.4291250000000  0.4928610000000 1.0
C      1  0.5346560000000  0.5708750000000  0.4928610000000 1.0
C      1  0.4978280000000  0.4564150000000  0.5534730000000 1.0
C      1  0.5021710000000  0.5435850000000  0.5534730000000 1.0
C      1  0.5018290000000  0.4584650000000  0.4465730000000 1.0
C      1  0.4981710000000  0.5415350000000  0.4465730000000 1.0
C      1  0.4584650000000  0.4981710000000  0.5534270000000 1.0
C      1  0.5415350000000  0.5018290000000  0.5534270000000 1.0
C      1  0.4564150000000  0.5021710000000  0.4465270000000 1.0
C      1  0.5435850000000  0.4978290000000  0.4465270000000 1.0
C      1  0.4999100000000  0.5210000000000  0.4261280000000 1.0
C      1  0.5000900000000  0.4790000000000  0.4261280000000 1.0
C      1  0.5000320000000  0.5237490000000  0.5745420000000 1.0
C      1  0.4999680000000  0.4762510000000  0.5745420000000 1.0
C      1  0.5237490000000  0.4999680000000  0.4254580000000 1.0
C      1  0.4762510000000  0.5000320000000  0.4254580000000 1.0
C      1  0.5209990000000  0.5000900000000  0.5738720000000 1.0
C      1  0.4790000000000  0.4999100000000  0.5738720000000 1.0
C      1  0.5555700000000  0.4865850000000  0.4944890000000 1.0
C      1  0.4444300000000  0.5134150000000  0.4944890000000 1.0
C      1  0.4445710000000  0.4865180000000  0.5060840000000 1.0
C      1  0.5554290000000  0.5134820000000  0.5060840000000 1.0
C      1  0.4865180000000  0.5554290000000  0.4939160000000 1.0
C      1  0.5134820000000  0.4445710000000  0.4939160000000 1.0
C      1  0.4865850000000  0.4444300000000  0.5055110000000 1.0
C      1  0.5134150000000  0.5555700000000  0.5055110000000 1.0
C      1  0.4811230000000  0.4597830000000  0.5297430000000 1.0
C      1  0.5188770000000  0.5402170000000  0.5297430000000 1.0
C      1  0.5189760000000  0.4605720000000  0.4701160000000 1.0
C      1  0.4810240000000  0.5394290000000  0.4701160000000 1.0
C      1  0.4605710000000  0.4810240000000  0.5298840000000 1.0
C      1  0.5394280000000  0.5189760000000  0.5298840000000 1.0
C      1  0.4597830000000  0.5188770000000  0.4702570000000 1.0
C      1  0.5402170000000  0.4811230000000  0.4702570000000 1.0
C      1  0.4396990000000  0.4399290000000  0.4848820000000 1.0
C      1  0.5603010000000  0.5600710000000  0.4848830000000 1.0
C      1  0.5600710000000  0.4396990000000  0.5151180000000 1.0
C      1  0.4399290000000  0.5603010000000  0.5151180000000 1.0
END
