TITL C-862500-986-1303 842742.046787559 125000 -1031.40119083516 0 0 175 (C1) n - 1
REM
REM in /home/nfs/bkarasulu/CARBON/AIRSS/Generating-Clusters/TERSOFF/Higher-Symm/FIRE-HFTN
REM
REM
REM
REM
REM
REM ./C.cell (b20cbc046b6831c77cfcea5457e17084)
REM AIRSS Version 0.9.1 bugfix July 2018 build 013d7b7c2542+ Fri, 06 Jul 2018 19:26:36 +0100
REM compiler GCC version 9.2.1 20190827 (Red Hat 9.2.1-1)
REM options -cpp -mtune=generic -march=x86-64 -g -O0 -fpre-include=/usr/include/finclude/math-vector-fortran.h
REM seed -1771282193 -538195075 894497067 1161336527 745245007 -51376888 1218356153 698934304 -914560794 1143959613 406060078 348549948 -1639608724 -1611456978 -1492830757 2140516545 2020960531 -237648264 -1264907476 1005514267 1648764857 -2036706534 2075915869 -329178122 -1598006154 1756355148 -134046693 -1966289085 -592138365 12963157 1636572740 -1837112797 952190266
REM
CELL 1.54180   50.00000   50.00000   50.00000   90.00000   90.00000   90.00000
LATT -1
SFAC C  
C      1  0.5253120000000  0.4315410000000  0.4371780000000 1.0
C      1  0.5897100000000  0.4042330000000  0.5285820000000 1.0
C      1  0.4783950000000  0.5161590000000  0.4542280000000 1.0
C      1  0.5510310000000  0.4713300000000  0.4648210000000 1.0
C      1  0.5172990000000  0.4011850000000  0.5772790000000 1.0
C      1  0.4727580000000  0.5129600000000  0.6107370000000 1.0
C      1  0.4905350000000  0.4520130000000  0.5736730000000 1.0
C      1  0.5303960000000  0.5963060000000  0.4700310000000 1.0
C      1  0.3931070000000  0.4933380000000  0.5428490000000 1.0
C      1  0.5974080000000  0.4454520000000  0.5539250000000 1.0
C      1  0.4227200000000  0.5019930000000  0.4139420000000 1.0
C      1  0.5390430000000  0.6117310000000  0.5419000000000 1.0
C      1  0.4496780000000  0.5456090000000  0.5244680000000 1.0
C      1  0.5676530000000  0.5844400000000  0.5039910000000 1.0
C      1  0.6147010000000  0.4764840000000  0.5201170000000 1.0
C      1  0.4728430000000  0.5425070000000  0.4620830000000 1.0
C      1  0.4380170000000  0.5004990000000  0.5387640000000 1.0
C      1  0.4256030000000  0.4186430000000  0.4517370000000 1.0
C      1  0.4782660000000  0.4140790000000  0.4405210000000 1.0
C      1  0.4948840000000  0.3911680000000  0.5041760000000 1.0
C      1  0.4891920000000  0.5358050000000  0.5113050000000 1.0
C      1  0.4670640000000  0.4380090000000  0.5833150000000 1.0
C      1  0.4868000000000  0.4661470000000  0.4368750000000 1.0
C      1  0.4036460000000  0.5514000000000  0.5350150000000 1.0
C      1  0.5145830000000  0.5233960000000  0.5514740000000 1.0
C      1  0.3852830000000  0.4867760000000  0.4936260000000 1.0
C      1  0.5451550000000  0.4936430000000  0.3864950000000 1.0
C      1  0.5121410000000  0.6037220000000  0.4918090000000 1.0
C      1  0.5437100000000  0.4218850000000  0.4799240000000 1.0
C      1  0.4480980000000  0.5463490000000  0.4283960000000 1.0
C      1  0.3951090000000  0.4926160000000  0.4656700000000 1.0
C      1  0.4289650000000  0.5853210000000  0.4583550000000 1.0
C      1  0.4122230000000  0.5699390000000  0.4778870000000 1.0
C      1  0.5627580000000  0.4569150000000  0.5899850000000 1.0
C      1  0.5558260000000  0.4443240000000  0.4001680000000 1.0
C      1  0.5755190000000  0.4362140000000  0.4447800000000 1.0
C      1  0.5634070000000  0.4732190000000  0.3989070000000 1.0
C      1  0.5407240000000  0.3956620000000  0.4915250000000 1.0
C      1  0.5275380000000  0.5491260000000  0.5599750000000 1.0
C      1  0.5172260000000  0.4950420000000  0.5660760000000 1.0
C      1  0.5181100000000  0.5360040000000  0.3850250000000 1.0
C      1  0.4050650000000  0.5211840000000  0.4580240000000 1.0
C      1  0.5047060000000  0.5819590000000  0.5109000000000 1.0
C      1  0.4394540000000  0.4553050000000  0.4192260000000 1.0
C      1  0.4566280000000  0.4163030000000  0.5667100000000 1.0
C      1  0.4813400000000  0.4671120000000  0.4640880000000 1.0
C      1  0.4751600000000  0.5364280000000  0.4157930000000 1.0
C      1  0.4711010000000  0.5339030000000  0.5885250000000 1.0
C      1  0.4445410000000  0.5181130000000  0.5168880000000 1.0
C      1  0.4556630000000  0.4566890000000  0.4690730000000 1.0
C      1  0.4496940000000  0.5508000000000  0.4771590000000 1.0
C      1  0.4851090000000  0.3959740000000  0.5323080000000 1.0
C      1  0.5525140000000  0.5849130000000  0.5305800000000 1.0
C      1  0.5692810000000  0.4345160000000  0.4734780000000 1.0
C      1  0.5394020000000  0.5284180000000  0.6037310000000 1.0
C      1  0.5692230000000  0.5132270000000  0.4800690000000 1.0
C      1  0.4776670000000  0.4386820000000  0.4244620000000 1.0
C      1  0.5838550000000  0.4925590000000  0.5596370000000 1.0
C      1  0.4775570000000  0.5827680000000  0.4511050000000 1.0
C      1  0.5150000000000  0.4577360000000  0.4269230000000 1.0
C      1  0.5535710000000  0.5598120000000  0.4279620000000 1.0
C      1  0.4330100000000  0.6296390000000  0.4872960000000 1.0
C      1  0.4638250000000  0.4713860000000  0.4021120000000 1.0
C      1  0.4446100000000  0.4586850000000  0.4955410000000 1.0
C      1  0.5232350000000  0.5650950000000  0.4281620000000 1.0
C      1  0.5118890000000  0.5250750000000  0.5232040000000 1.0
C      1  0.5317980000000  0.4476000000000  0.5443770000000 1.0
C      1  0.5990150000000  0.5249580000000  0.4404930000000 1.0
C      1  0.4892050000000  0.6003790000000  0.5575110000000 1.0
C      1  0.5161020000000  0.4869270000000  0.3778590000000 1.0
C      1  0.4943040000000  0.5611010000000  0.4669570000000 1.0
C      1  0.4096720000000  0.5396150000000  0.4828450000000 1.0
C      1  0.5572510000000  0.5606960000000  0.5520650000000 1.0
C      1  0.5463290000000  0.5253190000000  0.3902870000000 1.0
C      1  0.4422240000000  0.6124150000000  0.4658170000000 1.0
C      1  0.5533750000000  0.4291520000000  0.4261640000000 1.0
C      1  0.5046290000000  0.4124320000000  0.4554520000000 1.0
C      1  0.5312340000000  0.5244240000000  0.4570580000000 1.0
C      1  0.4441250000000  0.4776550000000  0.6033360000000 1.0
C      1  0.4884370000000  0.5622770000000  0.4981770000000 1.0
C      1  0.5220750000000  0.5482420000000  0.5885990000000 1.0
C      1  0.6255070000000  0.5140120000000  0.4850490000000 1.0
C      1  0.5429260000000  0.3904300000000  0.5194180000000 1.0
C      1  0.3970150000000  0.5333670000000  0.5113050000000 1.0
C      1  0.6105440000000  0.5332150000000  0.4669950000000 1.0
C      1  0.4582650000000  0.4981610000000  0.4477400000000 1.0
C      1  0.3983640000000  0.5116300000000  0.5657610000000 1.0
C      1  0.5684050000000  0.4685950000000  0.5145420000000 1.0
C      1  0.5374650000000  0.4793210000000  0.5529920000000 1.0
C      1  0.4316890000000  0.5564050000000  0.5438600000000 1.0
C      1  0.4365710000000  0.4576670000000  0.5621610000000 1.0
C      1  0.4710870000000  0.5061060000000  0.5683090000000 1.0
C      1  0.5218170000000  0.5742010000000  0.5342270000000 1.0
C      1  0.5827200000000  0.4521700000000  0.4933330000000 1.0
C      1  0.5028710000000  0.4393210000000  0.5007540000000 1.0
C      1  0.4417400000000  0.5773280000000  0.5620960000000 1.0
C      1  0.5189180000000  0.5512920000000  0.4540680000000 1.0
C      1  0.5337010000000  0.5193750000000  0.5073780000000 1.0
C      1  0.5725760000000  0.4906260000000  0.4629900000000 1.0
C      1  0.4246250000000  0.4243140000000  0.5309390000000 1.0
C      1  0.5027540000000  0.4629030000000  0.4821660000000 1.0
C      1  0.5595570000000  0.4968030000000  0.5443570000000 1.0
C      1  0.4500960000000  0.6322920000000  0.5109910000000 1.0
C      1  0.4995910000000  0.4713150000000  0.3972930000000 1.0
C      1  0.4033150000000  0.4396840000000  0.4619130000000 1.0
C      1  0.4246400000000  0.5157520000000  0.5782530000000 1.0
C      1  0.4580750000000  0.4155400000000  0.5355520000000 1.0
C      1  0.5043970000000  0.4840140000000  0.5276610000000 1.0
C      1  0.4528190000000  0.4026390000000  0.4509220000000 1.0
C      1  0.4935660000000  0.5530690000000  0.5948220000000 1.0
C      1  0.5262700000000  0.4190060000000  0.6003770000000 1.0
C      1  0.5030660000000  0.4135250000000  0.4864160000000 1.0
C      1  0.4378820000000  0.4947320000000  0.4695900000000 1.0
C      1  0.4988130000000  0.4785480000000  0.5834920000000 1.0
C      1  0.4014920000000  0.4684810000000  0.4484310000000 1.0
C      1  0.4492790000000  0.4744930000000  0.5428180000000 1.0
C      1  0.5093110000000  0.6169780000000  0.5427640000000 1.0
C      1  0.5275020000000  0.5087880000000  0.4812390000000 1.0
C      1  0.4775300000000  0.6377640000000  0.5037030000000 1.0
C      1  0.6062130000000  0.4280180000000  0.5308250000000 1.0
C      1  0.5614570000000  0.4044160000000  0.5360810000000 1.0
C      1  0.5358440000000  0.4769050000000  0.5110930000000 1.0
C      1  0.5279530000000  0.4792540000000  0.4810690000000 1.0
C      1  0.5590270000000  0.5138410000000  0.5207960000000 1.0
C      1  0.4404420000000  0.5410080000000  0.5831230000000 1.0
C      1  0.4722630000000  0.6097950000000  0.4629240000000 1.0
C      1  0.5926940000000  0.4712720000000  0.5410090000000 1.0
C      1  0.4933590000000  0.4934240000000  0.4220490000000 1.0
C      1  0.4213890000000  0.5260580000000  0.4319860000000 1.0
C      1  0.5024970000000  0.4401670000000  0.5500610000000 1.0
C      1  0.4579820000000  0.5625290000000  0.5026100000000 1.0
C      1  0.3907580000000  0.4629590000000  0.5462570000000 1.0
C      1  0.5047440000000  0.5136210000000  0.3708290000000 1.0
C      1  0.5933560000000  0.5464250000000  0.4888590000000 1.0
C      1  0.5642140000000  0.5412340000000  0.4076190000000 1.0
C      1  0.4515760000000  0.4954630000000  0.4186820000000 1.0
C      1  0.4606110000000  0.4609830000000  0.5199890000000 1.0
C      1  0.4901080000000  0.6209650000000  0.4838090000000 1.0
C      1  0.5737260000000  0.4381670000000  0.5700080000000 1.0
C      1  0.4152610000000  0.4731020000000  0.4224000000000 1.0
C      1  0.5859810000000  0.5358340000000  0.5807450000000 1.0
C      1  0.5660720000000  0.5176090000000  0.5938390000000 1.0
C      1  0.5357590000000  0.4480130000000  0.5995430000000 1.0
C      1  0.4090110000000  0.4173830000000  0.5070770000000 1.0
C      1  0.5917310000000  0.5365800000000  0.5515010000000 1.0
C      1  0.4504220000000  0.5725650000000  0.4413110000000 1.0
C      1  0.4421990000000  0.4430270000000  0.4464560000000 1.0
C      1  0.3899720000000  0.5051190000000  0.5160370000000 1.0
C      1  0.5037380000000  0.5502360000000  0.4073010000000 1.0
C      1  0.4802930000000  0.5025380000000  0.5391820000000 1.0
C      1  0.5833250000000  0.4804520000000  0.4195020000000 1.0
C      1  0.4592630000000  0.5993710000000  0.5525830000000 1.0
C      1  0.5847690000000  0.5197850000000  0.5052990000000 1.0
C      1  0.5934880000000  0.4570800000000  0.4345280000000 1.0
C      1  0.5724910000000  0.4869690000000  0.5878970000000 1.0
C      1  0.4312210000000  0.5156020000000  0.4903850000000 1.0
C      1  0.5038220000000  0.4108090000000  0.5528270000000 1.0
C      1  0.3800830000000  0.4589310000000  0.5005050000000 1.0
C      1  0.6130030000000  0.5057950000000  0.5121400000000 1.0
C      1  0.5556530000000  0.5829190000000  0.4762650000000 1.0
C      1  0.5196660000000  0.5921470000000  0.4424710000000 1.0
C      1  0.4509290000000  0.4500810000000  0.6033710000000 1.0
C      1  0.5527690000000  0.4269610000000  0.5534000000000 1.0
C      1  0.5681040000000  0.5670780000000  0.4535890000000 1.0
C      1  0.4139120000000  0.4443470000000  0.5511570000000 1.0
C      1  0.4883040000000  0.4889630000000  0.6084830000000 1.0
C      1  0.6101310000000  0.4471520000000  0.5058460000000 1.0
C      1  0.6150250000000  0.5238900000000  0.5377640000000 1.0
C      1  0.5477190000000  0.5135460000000  0.4345190000000 1.0
C      1  0.3951940000000  0.4369410000000  0.4896390000000 1.0
C      1  0.4456030000000  0.6096980000000  0.5286200000000 1.0
C      1  0.4819030000000  0.4403780000000  0.5247040000000 1.0
C      1  0.5774060000000  0.5038060000000  0.4367650000000 1.0
C      1  0.5288320000000  0.4474320000000  0.5146130000000 1.0
C      1  0.4446650000000  0.4948340000000  0.5798440000000 1.0
END
