TITL C-862127-1500-575 -6264.01187723544 125000 -345.910892151896 0 0 67 (C1) n - 1
REM
REM in /home/nfs/bkarasulu/CARBON/AIRSS/Generating-Clusters/TERSOFF/Higher-Symm/FIRE-HFTN
REM
REM
REM
REM
REM
REM ./C.cell (b20cbc046b6831c77cfcea5457e17084)
REM AIRSS Version 0.9.1 bugfix July 2018 build 013d7b7c2542+ Fri, 06 Jul 2018 19:26:36 +0100
REM compiler GCC version 9.2.1 20190827 (Red Hat 9.2.1-1)
REM options -cpp -mtune=generic -march=x86-64 -g -O0 -fpre-include=/usr/include/finclude/math-vector-fortran.h
REM seed -1014426482 1551740593 824374974 870236271 -1455188965 -1456647718 1542896444 216699795 -995259987 1627363401 1444363780 712389974 -1365157571 -609417369 -610891430 1858314480 1967532593 -2054069456 -909113053 1247980868 -536480788 -35372427 1456619689 592299512 -1713473577 -716631029 1631291574 -2035827629 1748893765 1142887433 -2099740015 -2000618325 -365965120
REM
CELL 1.54180   50.00000   50.00000   50.00000   90.00000   90.00000   90.00000
LATT -1
SFAC C  
C      1  0.3811970000000  0.5565050000000  0.5071960000000 1.0
C      1  0.4323790000000  0.5923540000000  0.4977230000000 1.0
C      1  0.4973730000000  0.6218230000000  0.4975000000000 1.0
C      1  0.5574410000000  0.5913450000000  0.4963730000000 1.0
C      1  0.6099610000000  0.5639120000000  0.5052330000000 1.0
C      1  0.6254460000000  0.4770940000000  0.4967170000000 1.0
C      1  0.6001410000000  0.4235600000000  0.4955150000000 1.0
C      1  0.5290530000000  0.3879920000000  0.4976240000000 1.0
C      1  0.4747750000000  0.3969690000000  0.4937270000000 1.0
C      1  0.4122780000000  0.4271650000000  0.4940420000000 1.0
C      1  0.3748270000000  0.4684550000000  0.5042300000000 1.0
C      1  0.4544770000000  0.5397210000000  0.4826580000000 1.0
C      1  0.4946360000000  0.5719820000000  0.4694410000000 1.0
C      1  0.5336270000000  0.5395530000000  0.4843040000000 1.0
C      1  0.5586940000000  0.5267880000000  0.4906380000000 1.0
C      1  0.5653630000000  0.4969530000000  0.4814340000000 1.0
C      1  0.5540880000000  0.4650250000000  0.4854340000000 1.0
C      1  0.5209020000000  0.4526180000000  0.4884100000000 1.0
C      1  0.4936180000000  0.4736200000000  0.4914940000000 1.0
C      1  0.4577800000000  0.4699700000000  0.4875510000000 1.0
C      1  0.4319000000000  0.4940680000000  0.4818710000000 1.0
C      1  0.4311940000000  0.5235990000000  0.4896980000000 1.0
C      1  0.4242210000000  0.4811660000000  0.5101380000000 1.0
C      1  0.4230330000000  0.5286590000000  0.5174960000000 1.0
C      1  0.4675950000000  0.5546220000000  0.5065320000000 1.0
C      1  0.4940610000000  0.5698320000000  0.4991860000000 1.0
C      1  0.5207750000000  0.5555370000000  0.5069050000000 1.0
C      1  0.5717350000000  0.5323510000000  0.5185130000000 1.0
C      1  0.5823190000000  0.4999530000000  0.5126200000000 1.0
C      1  0.5591530000000  0.4492460000000  0.5129300000000 1.0
C      1  0.5292060000000  0.4357960000000  0.5168380000000 1.0
C      1  0.4846180000000  0.4452160000000  0.5081990000000 1.0
C      1  0.4533020000000  0.4510820000000  0.5136900000000 1.0
C      1  0.4439630000000  0.5190810000000  0.5364000000000 1.0
C      1  0.4693100000000  0.5338530000000  0.5295210000000 1.0
C      1  0.4949350000000  0.5266680000000  0.5407060000000 1.0
C      1  0.5201630000000  0.5354480000000  0.5298430000000 1.0
C      1  0.5463430000000  0.5242300000000  0.5387480000000 1.0
C      1  0.5595470000000  0.4953460000000  0.5341390000000 1.0
C      1  0.5486250000000  0.4682430000000  0.5350440000000 1.0
C      1  0.5196040000000  0.4574570000000  0.5440040000000 1.0
C      1  0.4899340000000  0.4551320000000  0.5361260000000 1.0
C      1  0.4616760000000  0.4687300000000  0.5440060000000 1.0
C      1  0.4413430000000  0.4893100000000  0.5330900000000 1.0
C      1  0.4593720000000  0.5125440000000  0.4410410000000 1.0
C      1  0.4686850000000  0.5344360000000  0.4576270000000 1.0
C      1  0.4945940000000  0.5475400000000  0.4538170000000 1.0
C      1  0.5192920000000  0.5326850000000  0.4597770000000 1.0
C      1  0.5288300000000  0.5102710000000  0.4438570000000 1.0
C      1  0.5491170000000  0.4913440000000  0.4531240000000 1.0
C      1  0.5444090000000  0.4599370000000  0.4533210000000 1.0
C      1  0.5162890000000  0.4468400000000  0.4549400000000 1.0
C      1  0.4923950000000  0.4661260000000  0.4604880000000 1.0
C      1  0.4623450000000  0.4625220000000  0.4542740000000 1.0
C      1  0.4458150000000  0.4891770000000  0.4522200000000 1.0
C      1  0.4479760000000  0.5756680000000  0.5155010000000 1.0
C      1  0.4935170000000  0.5969280000000  0.5117530000000 1.0
C      1  0.5401580000000  0.5771770000000  0.5147650000000 1.0
C      1  0.5897410000000  0.5544530000000  0.5236560000000 1.0
C      1  0.6096770000000  0.4911830000000  0.5164790000000 1.0
C      1  0.5833970000000  0.4336840000000  0.5168400000000 1.0
C      1  0.5269110000000  0.4068150000000  0.5195080000000 1.0
C      1  0.4927360000000  0.4191690000000  0.4984520000000 1.0
C      1  0.4332480000000  0.4300640000000  0.5137780000000 1.0
C      1  0.4018020000000  0.4630350000000  0.5132140000000 1.0
C      1  0.3987480000000  0.5423260000000  0.5253260000000 1.0
C      1  0.5009090000000  0.4998850000000  0.5027720000000 1.0
END
