TITL C-862128-1543-138 -0.000187044878277551 125000 -274.985145522586 0 0 50 (Ci) n - 1
REM
REM in /home/nfs/bkarasulu/CARBON/AIRSS/Generating-Clusters/TERSOFF/Higher-Symm/FIRE-HFTN
REM
REM
REM
REM
REM
REM ./C.cell (b20cbc046b6831c77cfcea5457e17084)
REM AIRSS Version 0.9.1 bugfix July 2018 build 013d7b7c2542+ Fri, 06 Jul 2018 19:26:36 +0100
REM compiler GCC version 9.2.1 20190827 (Red Hat 9.2.1-1)
REM options -cpp -mtune=generic -march=x86-64 -g -O0 -fpre-include=/usr/include/finclude/math-vector-fortran.h
REM seed 744355146 -813783246 226162486 1339970778 833261888 -965338313 -75188532 -1773503725 1106295287 -777529048 -768793389 250636961 -1721247480 1972137346 -1509764984 1407725392 -504459489 -515011230 -1001516852 221124881 -448157444 2117766038 689892661 1946269894 -649108345 490469010 -676073465 269368599 1243124117 1691083506 107086912 -1576692813 1708956455
REM
CELL 1.54180   50.00000   50.00000   50.00000   90.00000   90.00000   90.00000
LATT -1
SFAC C  
C      1  0.4952270000000  0.4722000000000  0.4891920000000 1.0
C      1  0.5047730000000  0.5278000000000  0.5108080000000 1.0
C      1  0.5246800000000  0.5195470000000  0.4403470000000 1.0
C      1  0.4753200000000  0.4804530000000  0.5596530000000 1.0
C      1  0.5080440000000  0.5385370000000  0.4587010000000 1.0
C      1  0.4919560000000  0.4614630000000  0.5412990000000 1.0
C      1  0.4569240000000  0.5420770000000  0.4999730000000 1.0
C      1  0.5430760000000  0.4579230000000  0.5000270000000 1.0
C      1  0.5382050000000  0.4901680000000  0.4566400000000 1.0
C      1  0.4617950000000  0.5098320000000  0.5433600000000 1.0
C      1  0.4917140000000  0.4935390000000  0.4400590000000 1.0
C      1  0.5082860000000  0.5064610000000  0.5599410000000 1.0
C      1  0.5214840000000  0.5497410000000  0.5535900000000 1.0
C      1  0.4785160000000  0.4502590000000  0.4464100000000 1.0
C      1  0.5843770000000  0.4881660000000  0.5205180000000 1.0
C      1  0.4156230000000  0.5118340000000  0.4794820000000 1.0
C      1  0.5753930000000  0.4993250000000  0.4942040000000 1.0
C      1  0.4246070000000  0.5006750000000  0.5057960000000 1.0
C      1  0.5330400000000  0.5228450000000  0.5623270000000 1.0
C      1  0.4669600000000  0.4771550000000  0.4376730000000 1.0
C      1  0.5296330000000  0.5078060000000  0.5128370000000 1.0
C      1  0.4703670000000  0.4921940000000  0.4871630000000 1.0
C      1  0.4373560000000  0.5169330000000  0.4594640000000 1.0
C      1  0.5626440000000  0.4830670000000  0.5405360000000 1.0
C      1  0.5064010000000  0.4915190000000  0.4656280000000 1.0
C      1  0.4935990000000  0.5084810000000  0.5343720000000 1.0
C      1  0.5484750000000  0.5443610000000  0.4863880000000 1.0
C      1  0.4515250000000  0.4556390000000  0.5136120000000 1.0
C      1  0.4551120000000  0.5401840000000  0.4680990000000 1.0
C      1  0.5448880000000  0.4598160000000  0.5319010000000 1.0
C      1  0.4455280000000  0.4803640000000  0.4998780000000 1.0
C      1  0.5544720000000  0.5196360000000  0.5001220000000 1.0
C      1  0.4797600000000  0.5467570000000  0.4517470000000 1.0
C      1  0.5202400000000  0.4532430000000  0.5482530000000 1.0
C      1  0.5251460000000  0.4380460000000  0.4850850000000 1.0
C      1  0.4748540000000  0.5619540000000  0.5149150000000 1.0
C      1  0.5574220000000  0.4797300000000  0.4801360000000 1.0
C      1  0.4425780000000  0.5202700000000  0.5198640000000 1.0
C      1  0.4778280000000  0.5199380000000  0.4970400000000 1.0
C      1  0.5221720000000  0.4800620000000  0.5029600000000 1.0
C      1  0.4945340000000  0.4911000000000  0.5819620000000 1.0
C      1  0.5054660000000  0.5089000000000  0.4180380000000 1.0
C      1  0.5281140000000  0.4617050000000  0.4456730000000 1.0
C      1  0.4718860000000  0.5382950000000  0.5543270000000 1.0
C      1  0.5050800000000  0.4493290000000  0.4629720000000 1.0
C      1  0.4949200000000  0.5506710000000  0.5370280000000 1.0
C      1  0.4811990000000  0.4559450000000  0.5148020000000 1.0
C      1  0.5188010000000  0.5440550000000  0.4851980000000 1.0
C      1  0.4551980000000  0.4928910000000  0.4607750000000 1.0
C      1  0.5448020000000  0.5071090000000  0.5392250000000 1.0
END
