TITL C-862133-5440-35 -105096.036968895 125000 -92.7179821325443 0 0 26 (C1) n - 1
REM
REM in /home/nfs/bkarasulu/CARBON/AIRSS/Generating-Clusters/TERSOFF/Higher-Symm/FIRE-HFTN
REM
REM
REM
REM
REM
REM ./C.cell (b20cbc046b6831c77cfcea5457e17084)
REM AIRSS Version 0.9.1 bugfix July 2018 build 013d7b7c2542+ Fri, 06 Jul 2018 19:26:36 +0100
REM compiler GCC version 9.2.1 20190827 (Red Hat 9.2.1-1)
REM options -cpp -mtune=generic -march=x86-64 -g -O0 -fpre-include=/usr/include/finclude/math-vector-fortran.h
REM seed -154759359 1342425360 235174350 2004104712 -1016564357 -876616254 1469309673 -1553485245 -1508439627 -954567943 -80654639 -259850612 -1498997155 -180597800 -1453002351 -778497519 -1797041857 987561294 -1210520023 -1812054472 2007134434 -1867083322 682421981 130489213 -1098845399 -1380980651 2057768961 -1016989103 1082792364 1719463247 2008388322 -694402149 70401864
REM
CELL 1.54180   50.00000   50.00000   50.00000   90.00000   90.00000   90.00000
LATT -1
SFAC C  
C      1  0.5374680000000  0.4501610000000  0.4692910000000 1.0
C      1  0.5118530000000  0.4511200000000  0.5479550000000 1.0
C      1  0.4547850000000  0.4505130000000  0.4852930000000 1.0
C      1  0.4651870000000  0.5441690000000  0.4679920000000 1.0
C      1  0.4933270000000  0.5443070000000  0.5470320000000 1.0
C      1  0.5497170000000  0.5430250000000  0.4852880000000 1.0
C      1  0.4995430000000  0.4794810000000  0.5367940000000 1.0
C      1  0.4701160000000  0.4794030000000  0.4806290000000 1.0
C      1  0.5326990000000  0.4792280000000  0.4824000000000 1.0
C      1  0.5027310000000  0.5155990000000  0.5359040000000 1.0
C      1  0.5325890000000  0.5154340000000  0.4798200000000 1.0
C      1  0.4701610000000  0.5157160000000  0.4826060000000 1.0
C      1  0.5033190000000  0.5086200000000  0.5667940000000 1.0
C      1  0.4426160000000  0.5087550000000  0.4685610000000 1.0
C      1  0.5592710000000  0.5140140000000  0.4564660000000 1.0
C      1  0.4937070000000  0.4806620000000  0.5716560000000 1.0
C      1  0.5594060000000  0.4858850000000  0.4667430000000 1.0
C      1  0.4421550000000  0.4805040000000  0.4587490000000 1.0
C      1  0.4761620000000  0.5246500000000  0.5141240000000 1.0
C      1  0.5024200000000  0.5248330000000  0.4699380000000 1.0
C      1  0.5273400000000  0.5231790000000  0.5147680000000 1.0
C      1  0.5268160000000  0.4715130000000  0.5144290000000 1.0
C      1  0.5004730000000  0.4700100000000  0.4704660000000 1.0
C      1  0.4755360000000  0.4711500000000  0.5154130000000 1.0
C      1  0.5008240000000  0.4586770000000  0.5003650000000 1.0
C      1  0.5022880000000  0.5366860000000  0.4996260000000 1.0
END
