TITL C-862131-2149-329 0.000102931436381083 125000 -525.465415804669 0 0 103 (C1) n - 1
REM
REM in /home/nfs/bkarasulu/CARBON/AIRSS/Generating-Clusters/TERSOFF/Higher-Symm/FIRE-HFTN
REM
REM
REM
REM
REM
REM ./C.cell (b20cbc046b6831c77cfcea5457e17084)
REM AIRSS Version 0.9.1 bugfix July 2018 build 013d7b7c2542+ Fri, 06 Jul 2018 19:26:36 +0100
REM compiler GCC version 9.2.1 20190827 (Red Hat 9.2.1-1)
REM options -cpp -mtune=generic -march=x86-64 -g -O0 -fpre-include=/usr/include/finclude/math-vector-fortran.h
REM seed -187725428 925379871 -2059934652 -674154090 856570072 -1009876439 -1011965832 524379475 1031886187 -2041780458 -14738279 225922325 -595265511 1885792972 178804832 -1595889309 -1573659216 -1046097246 238361296 1376520930 1462107958 -810050656 1240599221 -1233420714 236753070 1555176970 391346173 -1130688584 -2117582306 -12370230 -661160391 -1546862236 -1859909805
REM
CELL 1.54180   50.00000   50.00000   50.00000   90.00000   90.00000   90.00000
LATT -1
SFAC C  
C      1  0.5034440000000  0.5594640000000  0.5416430000000 1.0
C      1  0.5012350000000  0.5066020000000  0.4276760000000 1.0
C      1  0.5025820000000  0.4357380000000  0.5316010000000 1.0
C      1  0.4981750000000  0.5588880000000  0.4579920000000 1.0
C      1  0.4973880000000  0.5040900000000  0.5713720000000 1.0
C      1  0.4957690000000  0.4336900000000  0.4687120000000 1.0
C      1  0.5568590000000  0.4811230000000  0.4723050000000 1.0
C      1  0.5529990000000  0.4885260000000  0.5062370000000 1.0
C      1  0.5568780000000  0.5183720000000  0.5119350000000 1.0
C      1  0.4463200000000  0.5004410000000  0.5123010000000 1.0
C      1  0.4424140000000  0.4804980000000  0.4893880000000 1.0
C      1  0.4423890000000  0.5332510000000  0.5020650000000 1.0
C      1  0.4497600000000  0.5789400000000  0.5190030000000 1.0
C      1  0.4471430000000  0.4769300000000  0.4216940000000 1.0
C      1  0.4481470000000  0.4424270000000  0.5600490000000 1.0
C      1  0.5522930000000  0.5787190000000  0.4809070000000 1.0
C      1  0.5521710000000  0.4768710000000  0.5799710000000 1.0
C      1  0.5496580000000  0.4437230000000  0.4408710000000 1.0
C      1  0.5184140000000  0.4719830000000  0.4893190000000 1.0
C      1  0.5179530000000  0.5055440000000  0.5280910000000 1.0
C      1  0.5193920000000  0.5189520000000  0.4808830000000 1.0
C      1  0.4809900000000  0.4727140000000  0.5079280000000 1.0
C      1  0.4800300000000  0.5066750000000  0.4737140000000 1.0
C      1  0.4811430000000  0.5229000000000  0.5185680000000 1.0
C      1  0.4721050000000  0.5698130000000  0.5457160000000 1.0
C      1  0.4695030000000  0.5048660000000  0.4169570000000 1.0
C      1  0.4716190000000  0.4254650000000  0.5385880000000 1.0
C      1  0.5299550000000  0.5690060000000  0.4542710000000 1.0
C      1  0.5283660000000  0.5036700000000  0.5839450000000 1.0
C      1  0.5273300000000  0.4251400000000  0.4620070000000 1.0
C      1  0.4637560000000  0.4977860000000  0.5830260000000 1.0
C      1  0.4650170000000  0.5733580000000  0.4563380000000 1.0
C      1  0.4620470000000  0.4264510000000  0.4577150000000 1.0
C      1  0.5344190000000  0.5007100000000  0.4144300000000 1.0
C      1  0.5372010000000  0.5724210000000  0.5423470000000 1.0
C      1  0.5361290000000  0.4289210000000  0.5432240000000 1.0
C      1  0.5119290000000  0.4652040000000  0.5802990000000 1.0
C      1  0.5116330000000  0.5810460000000  0.4910240000000 1.0
C      1  0.5090570000000  0.4458000000000  0.4303350000000 1.0
C      1  0.4877630000000  0.4669140000000  0.4250740000000 1.0
C      1  0.4903810000000  0.5869690000000  0.5120170000000 1.0
C      1  0.4880810000000  0.4532920000000  0.5668800000000 1.0
C      1  0.4481950000000  0.4198410000000  0.5161480000000 1.0
C      1  0.4463020000000  0.5505100000000  0.5535110000000 1.0
C      1  0.4460130000000  0.5259270000000  0.4259680000000 1.0
C      1  0.5531450000000  0.4278450000000  0.4828590000000 1.0
C      1  0.5534040000000  0.5507350000000  0.4403700000000 1.0
C      1  0.5518590000000  0.5256320000000  0.5773400000000 1.0
C      1  0.4743450000000  0.5342280000000  0.4677210000000 1.0
C      1  0.4742310000000  0.4531790000000  0.4874930000000 1.0
C      1  0.4750110000000  0.5141050000000  0.5461740000000 1.0
C      1  0.5249440000000  0.5331230000000  0.5348580000000 1.0
C      1  0.5248240000000  0.4526730000000  0.5106780000000 1.0
C      1  0.5250490000000  0.5104600000000  0.4539860000000 1.0
C      1  0.4613200000000  0.4702700000000  0.4647160000000 1.0
C      1  0.4608270000000  0.4860300000000  0.5420530000000 1.0
C      1  0.4651400000000  0.5508990000000  0.4918110000000 1.0
C      1  0.5387550000000  0.4697360000000  0.5336830000000 1.0
C      1  0.5342190000000  0.4812480000000  0.4516340000000 1.0
C      1  0.5378280000000  0.5445460000000  0.5084750000000 1.0
C      1  0.4283340000000  0.5006860000000  0.4308370000000 1.0
C      1  0.4290310000000  0.4344170000000  0.5362500000000 1.0
C      1  0.4294280000000  0.5541130000000  0.5274290000000 1.0
C      1  0.5714260000000  0.5012140000000  0.5748310000000 1.0
C      1  0.5698400000000  0.4487710000000  0.4666810000000 1.0
C      1  0.5709700000000  0.5590090000000  0.4647890000000 1.0
C      1  0.4850000000000  0.4862520000000  0.4512560000000 1.0
C      1  0.4854320000000  0.4651060000000  0.5373140000000 1.0
C      1  0.4894360000000  0.5520380000000  0.5117110000000 1.0
C      1  0.5130710000000  0.4831010000000  0.5493550000000 1.0
C      1  0.5099270000000  0.4633990000000  0.4605530000000 1.0
C      1  0.5144240000000  0.5485880000000  0.4875120000000 1.0
C      1  0.4460740000000  0.5204230000000  0.5609280000000 1.0
C      1  0.4470940000000  0.5422600000000  0.4517360000000 1.0
C      1  0.4468630000000  0.4348360000000  0.4894810000000 1.0
C      1  0.5523090000000  0.5202570000000  0.4390650000000 1.0
C      1  0.5527530000000  0.5409680000000  0.5510110000000 1.0
C      1  0.5536670000000  0.4367510000000  0.5125440000000 1.0
C      1  0.5514670000000  0.4549620000000  0.5578160000000 1.0
C      1  0.5492750000000  0.5728970000000  0.5116310000000 1.0
C      1  0.5424470000000  0.4699670000000  0.4228640000000 1.0
C      1  0.4500460000000  0.4530470000000  0.4419660000000 1.0
C      1  0.4570370000000  0.5814970000000  0.4872290000000 1.0
C      1  0.4485400000000  0.4727020000000  0.5670800000000 1.0
C      1  0.4226380000000  0.5278130000000  0.4740410000000 1.0
C      1  0.4209080000000  0.4589110000000  0.4932830000000 1.0
C      1  0.4234750000000  0.5067420000000  0.5364190000000 1.0
C      1  0.5786640000000  0.5258830000000  0.5320440000000 1.0
C      1  0.5763100000000  0.4647610000000  0.5121360000000 1.0
C      1  0.5765640000000  0.5081050000000  0.4628880000000 1.0
C      1  0.4003350000000  0.5304880000000  0.4961410000000 1.0
C      1  0.4047630000000  0.4761000000000  0.4713440000000 1.0
C      1  0.4083680000000  0.4810420000000  0.5393280000000 1.0
C      1  0.5944660000000  0.5361830000000  0.5062020000000 1.0
C      1  0.5916200000000  0.4751140000000  0.5357510000000 1.0
C      1  0.5989920000000  0.4877010000000  0.4711820000000 1.0
C      1  0.4159930000000  0.5009820000000  0.4581050000000 1.0
C      1  0.4137690000000  0.4565930000000  0.5233870000000 1.0
C      1  0.4073060000000  0.5313640000000  0.5249550000000 1.0
C      1  0.5863240000000  0.5011720000000  0.5489950000000 1.0
C      1  0.5921680000000  0.4623430000000  0.4849120000000 1.0
C      1  0.5831620000000  0.5352190000000  0.4781370000000 1.0
C      1  0.4997280000000  0.4997630000000  0.4997710000000 1.0
END
