TITL C-862130-1496-792 0.000831012586076998 125000 -1015.78746638715 0 0 184 (C3) n - 1
REM
REM in /home/nfs/bkarasulu/CARBON/AIRSS/Generating-Clusters/TERSOFF/Higher-Symm/FIRE-HFTN
REM
REM
REM
REM
REM
REM ./C.cell (b20cbc046b6831c77cfcea5457e17084)
REM AIRSS Version 0.9.1 bugfix July 2018 build 013d7b7c2542+ Fri, 06 Jul 2018 19:26:36 +0100
REM compiler GCC version 9.2.1 20190827 (Red Hat 9.2.1-1)
REM options -cpp -mtune=generic -march=x86-64 -g -O0 -fpre-include=/usr/include/finclude/math-vector-fortran.h
REM seed -1659074157 26561745 2025706710 2137938081 1247575790 -686925875 1515478921 -520842769 585714533 -867181653 -1424302239 -1149249728 1693112838 1489096270 -1256944706 1049254009 1115149995 980697417 -2130713965 -1060851056 932982333 -922819590 972513068 592273174 -1320474088 -484668784 765547652 -2094779562 1345521615 2026848429 1981825272 447628200 1701618169
REM
CELL 1.54180   50.00000   50.00000   50.00000   90.00000   90.00000   90.00000
LATT -1
SFAC C  
C      1  0.5476600000000  0.4437280000000  0.4102410000000 1.0
C      1  0.5244910000000  0.5693510000000  0.4102410000000 1.0
C      1  0.4272830000000  0.4864750000000  0.4102410000000 1.0
C      1  0.4808240000000  0.5646210000000  0.4822930000000 1.0
C      1  0.4532130000000  0.4510220000000  0.4822920000000 1.0
C      1  0.5653970000000  0.4839100000000  0.4822920000000 1.0
C      1  0.4535860000000  0.4445370000000  0.4282920000000 1.0
C      1  0.5708270000000  0.4874760000000  0.4282920000000 1.0
C      1  0.4750200000000  0.5675400000000  0.4282930000000 1.0
C      1  0.5120190000000  0.5575560000000  0.4957630000000 1.0
C      1  0.4437340000000  0.4815700000000  0.4957630000000 1.0
C      1  0.5436820000000  0.4604260000000  0.4957620000000 1.0
C      1  0.5000200000000  0.4236640000000  0.4336120000000 1.0
C      1  0.5656870000000  0.5381250000000  0.4336120000000 1.0
C      1  0.4337280000000  0.5377640000000  0.4336120000000 1.0
C      1  0.4870780000000  0.4074580000000  0.5365200000000 1.0
C      1  0.5861930000000  0.5350200000000  0.5365200000000 1.0
C      1  0.4261640000000  0.5570740000000  0.5365210000000 1.0
C      1  0.4431390000000  0.4278100000000  0.5595460000000 1.0
C      1  0.5905370000000  0.4867910000000  0.5595460000000 1.0
C      1  0.4657590000000  0.5849510000000  0.5595470000000 1.0
C      1  0.3886230000000  0.4638210000000  0.4978730000000 1.0
C      1  0.5866090000000  0.4215740000000  0.4978730000000 1.0
C      1  0.5242030000000  0.6141580000000  0.4978740000000 1.0
C      1  0.5316960000000  0.4655650000000  0.4432460000000 1.0
C      1  0.5135620000000  0.5446070000000  0.4432460000000 1.0
C      1  0.4541760000000  0.4893810000000  0.4432460000000 1.0
C      1  0.5206170000000  0.4782460000000  0.5803870000000 1.0
C      1  0.5081190000000  0.5286710000000  0.5803870000000 1.0
C      1  0.4706990000000  0.4926350000000  0.5803870000000 1.0
C      1  0.5278560000000  0.5063110000000  0.5698350000000 1.0
C      1  0.4801950000000  0.5209080000000  0.5698350000000 1.0
C      1  0.4913840000000  0.4723330000000  0.5698350000000 1.0
C      1  0.4592160000000  0.5359580000000  0.4595790000000 1.0
C      1  0.4888400000000  0.4466400000000  0.4595780000000 1.0
C      1  0.5513790000000  0.5169540000000  0.4595790000000 1.0
C      1  0.4714490000000  0.4215570000000  0.4883240000000 1.0
C      1  0.5817970000000  0.5144350000000  0.4883250000000 1.0
C      1  0.4461890000000  0.5635600000000  0.4883250000000 1.0
C      1  0.5070160000000  0.6129870000000  0.5238360000000 1.0
C      1  0.3982300000000  0.4495220000000  0.5238360000000 1.0
C      1  0.5941880000000  0.4370430000000  0.5238360000000 1.0
C      1  0.5618340000000  0.4051880000000  0.4981070000000 1.0
C      1  0.5507810000000  0.6008960000000  0.4981070000000 1.0
C      1  0.3868200000000  0.4934690000000  0.4981070000000 1.0
C      1  0.5068190000000  0.4541100000000  0.3876100000000 1.0
C      1  0.5359210000000  0.5287910000000  0.3876100000000 1.0
C      1  0.4566940000000  0.5166530000000  0.3876100000000 1.0
C      1  0.4765990000000  0.4584300000000  0.5076640000000 1.0
C      1  0.5472890000000  0.5004580000000  0.5076640000000 1.0
C      1  0.4755470000000  0.5406640000000  0.5076640000000 1.0
C      1  0.4011020000000  0.4486980000000  0.4734170000000 1.0
C      1  0.5934660000000  0.4399430000000  0.4734170000000 1.0
C      1  0.5048660000000  0.6109120000000  0.4734170000000 1.0
C      1  0.5019750000000  0.3952050000000  0.4523140000000 1.0
C      1  0.5893560000000  0.5540480000000  0.4523150000000 1.0
C      1  0.4081030000000  0.5503000000000  0.4523150000000 1.0
C      1  0.4031320000000  0.5000890000000  0.4535840000000 1.0
C      1  0.5479450000000  0.4160050000000  0.4535830000000 1.0
C      1  0.5483580000000  0.5834590000000  0.4535840000000 1.0
C      1  0.5472920000000  0.5964060000000  0.5521760000000 1.0
C      1  0.3924520000000  0.4926920000000  0.5521750000000 1.0
C      1  0.5596910000000  0.4104540000000  0.5521750000000 1.0
C      1  0.6002050000000  0.4883270000000  0.5300920000000 1.0
C      1  0.4595950000000  0.5925560000000  0.5300920000000 1.0
C      1  0.4396350000000  0.4186690000000  0.5300920000000 1.0
C      1  0.5200110000000  0.4689070000000  0.6125380000000 1.0
C      1  0.5165090000000  0.5328150000000  0.6125380000000 1.0
C      1  0.4629140000000  0.4978280000000  0.6125380000000 1.0
C      1  0.4686700000000  0.4199360000000  0.4342900000000 1.0
C      1  0.5845910000000  0.5128400000000  0.4342910000000 1.0
C      1  0.4461730000000  0.5667780000000  0.4342910000000 1.0
C      1  0.5143880000000  0.5281940000000  0.5294460000000 1.0
C      1  0.4679770000000  0.4983030000000  0.5294460000000 1.0
C      1  0.5170690000000  0.4730550000000  0.5294460000000 1.0
C      1  0.5256730000000  0.5254250000000  0.5003050000000 1.0
C      1  0.4647330000000  0.5094610000000  0.5003050000000 1.0
C      1  0.5090290000000  0.4646670000000  0.5003050000000 1.0
C      1  0.5979210000000  0.5140050000000  0.4616310000000 1.0
C      1  0.4384990000000  0.5777390000000  0.4616310000000 1.0
C      1  0.4630150000000  0.4078090000000  0.4616300000000 1.0
C      1  0.5644450000000  0.5921330000000  0.5260520000000 1.0
C      1  0.3875760000000  0.5096830000000  0.5260520000000 1.0
C      1  0.5474140000000  0.3977350000000  0.5260510000000 1.0
C      1  0.5137450000000  0.3888790000000  0.5354040000000 1.0
C      1  0.5889500000000  0.5674030000000  0.5354040000000 1.0
C      1  0.3967400000000  0.5432700000000  0.5354040000000 1.0
C      1  0.5167670000000  0.5698650000000  0.5250790000000 1.0
C      1  0.4307000000000  0.4795270000000  0.5250790000000 1.0
C      1  0.5519680000000  0.4501600000000  0.5250790000000 1.0
C      1  0.4154180000000  0.4582210000000  0.4493860000000 1.0
C      1  0.5780610000000  0.4475790000000  0.4493860000000 1.0
C      1  0.5059550000000  0.5937530000000  0.4493870000000 1.0
C      1  0.5639950000000  0.5705280000000  0.5619970000000 1.0
C      1  0.4065120000000  0.5200960000000  0.5619970000000 1.0
C      1  0.5289290000000  0.4089280000000  0.5619970000000 1.0
C      1  0.5599550000000  0.5049960000000  0.5966620000000 1.0
C      1  0.4652840000000  0.5493640000000  0.5966630000000 1.0
C      1  0.4741960000000  0.4451920000000  0.5966620000000 1.0
C      1  0.4305920000000  0.5086900000000  0.4457290000000 1.0
C      1  0.5267670000000  0.4354850000000  0.4457280000000 1.0
C      1  0.5420760000000  0.5553780000000  0.4457290000000 1.0
C      1  0.5301550000000  0.4709010000000  0.3801310000000 1.0
C      1  0.5097120000000  0.5406050000000  0.3801320000000 1.0
C      1  0.4595670000000  0.4880480000000  0.3801310000000 1.0
C      1  0.4738290000000  0.5526320000000  0.5626840000000 1.0
C      1  0.4670930000000  0.4509580000000  0.5626840000000 1.0
C      1  0.5585130000000  0.4959620000000  0.5626840000000 1.0
C      1  0.4882100000000  0.4677620000000  0.4055420000000 1.0
C      1  0.5334020000000  0.5058490000000  0.4055420000000 1.0
C      1  0.4778220000000  0.5259430000000  0.4055430000000 1.0
C      1  0.4820360000000  0.5969900000000  0.4872040000000 1.0
C      1  0.4245740000000  0.4358870000000  0.4872040000000 1.0
C      1  0.5928250000000  0.4666760000000  0.4872040000000 1.0
C      1  0.5174870000000  0.5940690000000  0.5451370000000 1.0
C      1  0.4093790000000  0.4680490000000  0.5451360000000 1.0
C      1  0.5725690000000  0.4374340000000  0.5451360000000 1.0
C      1  0.5360070000000  0.5284400000000  0.5490170000000 1.0
C      1  0.4569550000000  0.5169020000000  0.5490170000000 1.0
C      1  0.5064730000000  0.4542100000000  0.5490170000000 1.0
C      1  0.4109060000000  0.5118860000000  0.4836660000000 1.0
C      1  0.5338410000000  0.4168390000000  0.4836660000000 1.0
C      1  0.5546870000000  0.5708270000000  0.4836660000000 1.0
C      1  0.4393150000000  0.5749830000000  0.5156670000000 1.0
C      1  0.4649930000000  0.4098930000000  0.5156660000000 1.0
C      1  0.5951260000000  0.5146760000000  0.5156660000000 1.0
C      1  0.5051200000000  0.4430980000000  0.5990660000000 1.0
C      1  0.5463060000000  0.5328240000000  0.5990660000000 1.0
C      1  0.4480090000000  0.5236290000000  0.5990660000000 1.0
C      1  0.5655430000000  0.4289190000000  0.4310370000000 1.0
C      1  0.5283750000000  0.5922420000000  0.4310370000000 1.0
C      1  0.4055170000000  0.4783920000000  0.4310370000000 1.0
C      1  0.4257120000000  0.4559280000000  0.5671460000000 1.0
C      1  0.5748990000000  0.4576400000000  0.5671450000000 1.0
C      1  0.4988240000000  0.5859840000000  0.5671460000000 1.0
C      1  0.4917390000000  0.5551090000000  0.6124080000000 1.0
C      1  0.4559930000000  0.4652300000000  0.6124080000000 1.0
C      1  0.5517040000000  0.4792120000000  0.6124080000000 1.0
C      1  0.5622310000000  0.4722240000000  0.4517470000000 1.0
C      1  0.4925270000000  0.5677210000000  0.4517470000000 1.0
C      1  0.4446760000000  0.4596080000000  0.4517470000000 1.0
C      1  0.6010150000000  0.5663770000000  0.5040530000000 1.0
C      1  0.3915970000000  0.5542320000000  0.5040540000000 1.0
C      1  0.5068230000000  0.3789430000000  0.5040530000000 1.0
C      1  0.5454830000000  0.4838520000000  0.5335400000000 1.0
C      1  0.4908310000000  0.5474030000000  0.5335400000000 1.0
C      1  0.4631210000000  0.4682980000000  0.5335400000000 1.0
C      1  0.5151310000000  0.3938130000000  0.4793220000000 1.0
C      1  0.5839830000000  0.5661360000000  0.4793220000000 1.0
C      1  0.4003210000000  0.5396030000000  0.4793220000000 1.0
C      1  0.5052230000000  0.4306930000000  0.5306010000000 1.0
C      1  0.5569980000000  0.5391160000000  0.5306010000000 1.0
C      1  0.4372140000000  0.5297430000000  0.5306010000000 1.0
C      1  0.4361190000000  0.5709710000000  0.5615880000000 1.0
C      1  0.4700660000000  0.4091310000000  0.5615870000000 1.0
C      1  0.5932500000000  0.5194500000000  0.5615880000000 1.0
C      1  0.4179090000000  0.4287250000000  0.5143070000000 1.0
C      1  0.6023600000000  0.4644840000000  0.5143070000000 1.0
C      1  0.4791660000000  0.6063440000000  0.5143080000000 1.0
C      1  0.5472540000000  0.5467100000000  0.5712330000000 1.0
C      1  0.4355090000000  0.5175080000000  0.5712330000000 1.0
C      1  0.5166710000000  0.4353340000000  0.5712330000000 1.0
C      1  0.5042350000000  0.4361480000000  0.4852760000000 1.0
C      1  0.5527680000000  0.5355330000000  0.4852760000000 1.0
C      1  0.4424320000000  0.5278710000000  0.4852760000000 1.0
C      1  0.4825120000000  0.4774180000000  0.4556060000000 1.0
C      1  0.5278890000000  0.4960860000000  0.4556060000000 1.0
C      1  0.4890340000000  0.5260500000000  0.4556060000000 1.0
C      1  0.5313720000000  0.4264000000000  0.5175970000000 1.0
C      1  0.5476420000000  0.5639080000000  0.5175980000000 1.0
C      1  0.4204210000000  0.5092440000000  0.5175980000000 1.0
C      1  0.4783460000000  0.5114360000000  0.4313690000000 1.0
C      1  0.5005110000000  0.4754690000000  0.4313690000000 1.0
C      1  0.5205770000000  0.5126480000000  0.4313690000000 1.0
C      1  0.5086060000000  0.5645110000000  0.5860120000000 1.0
C      1  0.4394170000000  0.4751360000000  0.5860120000000 1.0
C      1  0.5514120000000  0.4599040000000  0.5860120000000 1.0
C      1  0.5523900000000  0.4787690000000  0.4024440000000 1.0
C      1  0.4917800000000  0.5559260000000  0.4024450000000 1.0
C      1  0.4552640000000  0.4648580000000  0.4024440000000 1.0
C      1  0.5187420000000  0.4326680000000  0.4046510000000 1.0
C      1  0.5485290000000  0.5498370000000  0.4046510000000 1.0
C      1  0.4321640000000  0.5170490000000  0.4046520000000 1.0
C      1  0.4998120000000  0.4998510000000  0.4684350000000 1.0
END
