TITL C-862129-6180-1316 7.22447636952937 125000 -103.192188691284 0 0 21 (C1) n - 1
REM
REM in /home/nfs/bkarasulu/CARBON/AIRSS/Generating-Clusters/TERSOFF/Higher-Symm/FIRE-HFTN
REM
REM
REM
REM
REM
REM ./C.cell (b20cbc046b6831c77cfcea5457e17084)
REM AIRSS Version 0.9.1 bugfix July 2018 build 013d7b7c2542+ Fri, 06 Jul 2018 19:26:36 +0100
REM compiler GCC version 9.2.1 20190827 (Red Hat 9.2.1-1)
REM options -cpp -mtune=generic -march=x86-64 -g -O0 -fpre-include=/usr/include/finclude/math-vector-fortran.h
REM seed 754630278 -1275465853 -1886759215 1105019774 -427506332 -579663273 -1792356400 789837874 -722508698 1687157633 1619820813 -1424895921 -642947020 -1946242912 -1527904957 1207742655 2030852349 -1304562516 307578486 1909382500 915095246 -158288673 -1397914407 -1134354534 -1132052040 -281794628 -98526283 1222492487 2123341948 -661462155 -947181239 1893544525 404964516
REM
CELL 1.54180   50.00000   50.00000   50.00000   90.00000   90.00000   90.00000
LATT -1
SFAC C  
C      1  0.5212340000000  0.4982570000000  0.4910680000000 1.0
C      1  0.4997970000000  0.5210620000000  0.5544490000000 1.0
C      1  0.4951730000000  0.4265730000000  0.5362150000000 1.0
C      1  0.4585510000000  0.4950120000000  0.5514770000000 1.0
C      1  0.4988530000000  0.5189270000000  0.4885590000000 1.0
C      1  0.5328940000000  0.5133600000000  0.4455730000000 1.0
C      1  0.4600010000000  0.4970220000000  0.4668490000000 1.0
C      1  0.4999360000000  0.4775670000000  0.5318940000000 1.0
C      1  0.5058740000000  0.5011680000000  0.4416200000000 1.0
C      1  0.4759410000000  0.5179350000000  0.5110790000000 1.0
C      1  0.5180230000000  0.5447560000000  0.4831210000000 1.0
C      1  0.5461020000000  0.5045050000000  0.4736600000000 1.0
C      1  0.4867110000000  0.5083840000000  0.4624650000000 1.0
C      1  0.5082570000000  0.4188940000000  0.5115650000000 1.0
C      1  0.4950370000000  0.4533540000000  0.5471920000000 1.0
C      1  0.5202630000000  0.4781880000000  0.5114010000000 1.0
C      1  0.4669120000000  0.5456010000000  0.5175030000000 1.0
C      1  0.5261450000000  0.5421720000000  0.4531920000000 1.0
C      1  0.4543220000000  0.5026630000000  0.4952210000000 1.0
C      1  0.5462060000000  0.5320460000000  0.4886740000000 1.0
C      1  0.4837710000000  0.5025540000000  0.5372220000000 1.0
END
