TITL C-862505-1648-287 1.02399789297689e-07 125000 -188.401577189909 0 0 36 (D6d) n - 1
REM
REM in /home/nfs/bkarasulu/CARBON/AIRSS/Generating-Clusters/TERSOFF/Higher-Symm/FIRE-HFTN
REM
REM
REM
REM
REM
REM ./C.cell (b20cbc046b6831c77cfcea5457e17084)
REM AIRSS Version 0.9.1 bugfix July 2018 build 013d7b7c2542+ Fri, 06 Jul 2018 19:26:36 +0100
REM compiler GCC version 9.2.1 20190827 (Red Hat 9.2.1-1)
REM options -cpp -mtune=generic -march=x86-64 -g -O0 -fpre-include=/usr/include/finclude/math-vector-fortran.h
REM seed -2012774140 -1850180172 -926203391 -1548097934 -1537551837 628846790 -497718012 -435584862 728928031 1507448707 -705187497 -133293506 -1923805201 -248384908 -366307221 1050295010 -257355805 633348644 1485289558 1329006924 880001367 322826602 1468685131 1368469249 355143085 -268974246 -64262177 -1106323586 1904238842 797002098 -1351814180 -2064808928 1467811608
REM
CELL 1.54180   50.00000   50.00000   50.00000   90.00000   90.00000   90.00000
LATT -1
SFAC C  
C      1  0.5351960000000  0.5375860000000  0.4417900000000 1.0
C      1  0.5116880000000  0.5501490000000  0.5582100000000 1.0
C      1  0.4850470000000  0.5492740000000  0.4417900000000 1.0
C      1  0.4624140000000  0.5351960000000  0.5582100000000 1.0
C      1  0.4498510000000  0.5116880000000  0.4417900000000 1.0
C      1  0.4507260000000  0.4850470000000  0.5582100000000 1.0
C      1  0.4648040000000  0.4624140000000  0.4417900000000 1.0
C      1  0.4883120000000  0.4498510000000  0.5582100000000 1.0
C      1  0.5149530000000  0.4507260000000  0.4417900000000 1.0
C      1  0.5375860000000  0.4648040000000  0.5582100000000 1.0
C      1  0.5501490000000  0.4883120000000  0.4417900000000 1.0
C      1  0.5492740000000  0.5149530000000  0.5582100000000 1.0
C      1  0.4692430000000  0.4906670000000  0.5354520000000 1.0
C      1  0.4780300000000  0.4765390000000  0.4645480000000 1.0
C      1  0.4927050000000  0.4686970000000  0.5354520000000 1.0
C      1  0.5093330000000  0.4692430000000  0.4645480000000 1.0
C      1  0.5234610000000  0.4780300000000  0.5354520000000 1.0
C      1  0.5313030000000  0.4927050000000  0.4645480000000 1.0
C      1  0.5307570000000  0.5093330000000  0.5354520000000 1.0
C      1  0.5219700000000  0.5234610000000  0.4645480000000 1.0
C      1  0.5072950000000  0.5313030000000  0.5354520000000 1.0
C      1  0.4906670000000  0.5307570000000  0.4645480000000 1.0
C      1  0.4765390000000  0.5219700000000  0.5354520000000 1.0
C      1  0.4686970000000  0.5072950000000  0.4645480000000 1.0
C      1  0.5321880000000  0.5343740000000  0.4920400000000 1.0
C      1  0.5106890000000  0.5458620000000  0.5079600000000 1.0
C      1  0.4863250000000  0.5450620000000  0.4920400000000 1.0
C      1  0.4656260000000  0.5321880000000  0.5079600000000 1.0
C      1  0.4541380000000  0.5106890000000  0.4920400000000 1.0
C      1  0.4549380000000  0.4863250000000  0.5079600000000 1.0
C      1  0.4678120000000  0.4656260000000  0.4920400000000 1.0
C      1  0.4893110000000  0.4541380000000  0.5079600000000 1.0
C      1  0.5136750000000  0.4549380000000  0.4920400000000 1.0
C      1  0.5343740000000  0.4678120000000  0.5079600000000 1.0
C      1  0.5458620000000  0.4893110000000  0.4920400000000 1.0
C      1  0.5450620000000  0.5136750000000  0.5079600000000 1.0
END
