TITL C-862502-1143-70 -0.00122080586097589 125000 -164.771829209382 0 0 30 (C5) n - 1
REM
REM in /home/nfs/bkarasulu/CARBON/AIRSS/Generating-Clusters/TERSOFF/Higher-Symm/FIRE-HFTN
REM
REM
REM
REM
REM
REM ./C.cell (b20cbc046b6831c77cfcea5457e17084)
REM AIRSS Version 0.9.1 bugfix July 2018 build 013d7b7c2542+ Fri, 06 Jul 2018 19:26:36 +0100
REM compiler GCC version 9.2.1 20190827 (Red Hat 9.2.1-1)
REM options -cpp -mtune=generic -march=x86-64 -g -O0 -fpre-include=/usr/include/finclude/math-vector-fortran.h
REM seed -1860203459 -2132764475 -2069024893 117774031 360740244 1234619160 -1656080921 -137775342 1452757397 -1960506595 -1902174579 -1716804074 -723779287 1708526929 1030144542 1460950825 893310290 -142210244 771731024 -1463774599 331137101 -880946444 611105335 1315235216 -1572438288 -690288781 -9752230 756737527 -646295244 -1058991647 -486765651 -288163627 -1368372195
REM
CELL 1.54180   50.00000   50.00000   50.00000   90.00000   90.00000   90.00000
LATT -1
SFAC C  
C      1  0.5119660000000  0.4422340000000  0.4758010000000 1.0
C      1  0.4806830000000  0.4422340000000  0.4811410000000 1.0
C      1  0.4760950000000  0.4422340000000  0.5125440000000 1.0
C      1  0.5045430000000  0.4422340000000  0.5266110000000 1.0
C      1  0.5267120000000  0.4422340000000  0.5039030000000 1.0
C      1  0.5518350000000  0.5370510000000  0.4869730000000 1.0
C      1  0.5036280000000  0.5370510000000  0.4466760000000 1.0
C      1  0.4504070000000  0.5370510000000  0.4800710000000 1.0
C      1  0.4657220000000  0.5370510000000  0.5410070000000 1.0
C      1  0.5284080000000  0.5370510000000  0.5452730000000 1.0
C      1  0.5135520000000  0.5444970000000  0.5215950000000 1.0
C      1  0.5247260000000  0.5444970000000  0.4937850000000 1.0
C      1  0.5017300000000  0.5444970000000  0.4745640000000 1.0
C      1  0.4763430000000  0.5444970000000  0.4904940000000 1.0
C      1  0.4836490000000  0.5444970000000  0.5195620000000 1.0
C      1  0.5089440000000  0.4901400000000  0.5524940000000 1.0
C      1  0.5526880000000  0.4901410000000  0.5077150000000 1.0
C      1  0.5236190000000  0.4901410000000  0.4522740000000 1.0
C      1  0.4619090000000  0.4901410000000  0.4627890000000 1.0
C      1  0.4528400000000  0.4901410000000  0.5247280000000 1.0
C      1  0.4431270000000  0.5104190000000  0.4714040000000 1.0
C      1  0.4552290000000  0.5104190000000  0.5452530000000 1.0
C      1  0.5292030000000  0.5104190000000  0.5565640000000 1.0
C      1  0.5628200000000  0.5104190000000  0.4897050000000 1.0
C      1  0.5096210000000  0.5104190000000  0.4370740000000 1.0
C      1  0.4751870000000  0.4756590000000  0.5130190000000 1.0
C      1  0.5047140000000  0.4756590000000  0.5276210000000 1.0
C      1  0.5277260000000  0.4756590000000  0.5040520000000 1.0
C      1  0.5124210000000  0.4756590000000  0.4748830000000 1.0
C      1  0.4799510000000  0.4756590000000  0.4804250000000 1.0
END
