TITL C-862504-1170-137 -1.01229707018887e-06 125000 -250.203274234261 0 0 46 (D3) n - 1
REM
REM in /home/nfs/bkarasulu/CARBON/AIRSS/Generating-Clusters/TERSOFF/Higher-Symm/FIRE-HFTN
REM
REM
REM
REM
REM
REM ./C.cell (b20cbc046b6831c77cfcea5457e17084)
REM AIRSS Version 0.9.1 bugfix July 2018 build 013d7b7c2542+ Fri, 06 Jul 2018 19:26:36 +0100
REM compiler GCC version 9.2.1 20190827 (Red Hat 9.2.1-1)
REM options -cpp -mtune=generic -march=x86-64 -g -O0 -fpre-include=/usr/include/finclude/math-vector-fortran.h
REM seed 82708966 -1307645560 1682791831 -135770451 658756259 -1184400390 1100805014 -859694257 1139303387 1902424105 242996324 -1887678535 -1991878337 -1904615796 -942022230 2024539829 449222056 351303241 1263708925 -1653169134 1587476081 -956967884 90516983 -859762260 1047388449 -1925692556 -123300135 -1990493966 -1396541148 1655802044 374908885 -582510216 771378700
REM
CELL 1.54180   50.00000   50.00000   50.00000   90.00000   90.00000   90.00000
LATT -1
SFAC C  
C      1  0.4695890000000  0.5326550000000  0.5460230000000 1.0
C      1  0.4743190000000  0.5326550000000  0.4505390000000 1.0
C      1  0.5546450000000  0.5326550000000  0.5023770000000 1.0
C      1  0.5294460000000  0.4710790000000  0.5460230000000 1.0
C      1  0.5247170000000  0.4710790000000  0.4505390000000 1.0
C      1  0.4443900000000  0.4710790000000  0.5023760000000 1.0
C      1  0.4545830000000  0.4409540000000  0.5388190000000 1.0
C      1  0.4880610000000  0.4409540000000  0.4411450000000 1.0
C      1  0.5559090000000  0.4409540000000  0.5189740000000 1.0
C      1  0.5444520000000  0.5627800000000  0.5388190000000 1.0
C      1  0.5109750000000  0.5627800000000  0.4411450000000 1.0
C      1  0.4431260000000  0.5627800000000  0.5189740000000 1.0
C      1  0.5454110000000  0.5166020000000  0.5527410000000 1.0
C      1  0.4305890000000  0.5166020000000  0.5128430000000 1.0
C      1  0.5225530000000  0.5166020000000  0.4333540000000 1.0
C      1  0.4536240000000  0.4871320000000  0.5527410000000 1.0
C      1  0.5684460000000  0.4871320000000  0.5128430000000 1.0
C      1  0.4764820000000  0.4871320000000  0.4333540000000 1.0
C      1  0.4942960000000  0.5434800000000  0.5375290000000 1.0
C      1  0.4693210000000  0.5434800000000  0.4761830000000 1.0
C      1  0.5349360000000  0.5434800000000  0.4852260000000 1.0
C      1  0.5047390000000  0.4602540000000  0.5375290000000 1.0
C      1  0.5297150000000  0.4602540000000  0.4761830000000 1.0
C      1  0.4641000000000  0.4602540000000  0.4852260000000 1.0
C      1  0.4872210000000  0.4755010000000  0.4776700000000 1.0
C      1  0.5246970000000  0.4755010000000  0.4999850000000 1.0
C      1  0.4866340000000  0.4755010000000  0.5212830000000 1.0
C      1  0.5118140000000  0.5282330000000  0.4776700000000 1.0
C      1  0.4743380000000  0.5282330000000  0.4999850000000 1.0
C      1  0.5124010000000  0.5282330000000  0.5212830000000 1.0
C      1  0.4526750000000  0.5344990000000  0.5212470000000 1.0
C      1  0.5042320000000  0.5344990000000  0.4482790000000 1.0
C      1  0.5416460000000  0.5344990000000  0.5294120000000 1.0
C      1  0.5463600000000  0.4692350000000  0.5212480000000 1.0
C      1  0.4948040000000  0.4692350000000  0.4482790000000 1.0
C      1  0.4573890000000  0.4692350000000  0.5294120000000 1.0
C      1  0.5654470000000  0.5078560000000  0.4927150000000 1.0
C      1  0.4725560000000  0.5078560000000  0.5602080000000 1.0
C      1  0.4605510000000  0.5078560000000  0.4460160000000 1.0
C      1  0.4335890000000  0.4958780000000  0.4927150000000 1.0
C      1  0.5264790000000  0.4958780000000  0.5602080000000 1.0
C      1  0.5384850000000  0.4958780000000  0.4460160000000 1.0
C      1  0.5639280000000  0.5018670000000  0.4624590000000 1.0
C      1  0.4351080000000  0.5018670000000  0.4624590000000 1.0
C      1  0.4995180000000  0.5018670000000  0.5740200000000 1.0
C      1  0.4995180000000  0.5018670000000  0.4996460000000 1.0
END
