TITL C-862131-2149-128 0.0407197259119444 125000 -862.381502393367 0 0 180 (C1) n - 1
REM
REM in /home/nfs/bkarasulu/CARBON/AIRSS/Generating-Clusters/TERSOFF/Higher-Symm/FIRE-HFTN
REM
REM
REM
REM
REM
REM ./C.cell (b20cbc046b6831c77cfcea5457e17084)
REM AIRSS Version 0.9.1 bugfix July 2018 build 013d7b7c2542+ Fri, 06 Jul 2018 19:26:36 +0100
REM compiler GCC version 9.2.1 20190827 (Red Hat 9.2.1-1)
REM options -cpp -mtune=generic -march=x86-64 -g -O0 -fpre-include=/usr/include/finclude/math-vector-fortran.h
REM seed -1550838214 1669801427 1266625124 1908594757 1587948155 1651045861 456315409 337367242 1884214081 1731063196 1259558853 -1433618882 1579176582 516052990 1955817903 1897726820 791628454 432605365 -1973196083 827081146 -308843660 718544347 -1056024364 -1650109738 -1541357202 1830306162 1856387224 173612160 1564624715 172262229 1703093499 -1484310242 2089830859
REM
CELL 1.54180   50.00000   50.00000   50.00000   90.00000   90.00000   90.00000
LATT -1
SFAC C  
C      1  0.4765370000000  0.4983480000000  0.4033600000000 1.0
C      1  0.4055000000000  0.4760020000000  0.5025610000000 1.0
C      1  0.5015170000000  0.3900970000000  0.4792630000000 1.0
C      1  0.4748410000000  0.4939780000000  0.5994800000000 1.0
C      1  0.5252130000000  0.4949840000000  0.3979890000000 1.0
C      1  0.5243020000000  0.4999180000000  0.5980750000000 1.0
C      1  0.3951520000000  0.5241730000000  0.4973680000000 1.0
C      1  0.6023350000000  0.5189850000000  0.4982540000000 1.0
C      1  0.5956710000000  0.4771830000000  0.4997570000000 1.0
C      1  0.5033760000000  0.5970750000000  0.5248950000000 1.0
C      1  0.4983530000000  0.5965300000000  0.4751970000000 1.0
C      1  0.5004720000000  0.3964750000000  0.5208830000000 1.0
C      1  0.4758970000000  0.3880630000000  0.5030500000000 1.0
C      1  0.4025680000000  0.5000410000000  0.4795890000000 1.0
C      1  0.5017650000000  0.4763130000000  0.4064970000000 1.0
C      1  0.4797930000000  0.5957440000000  0.5001390000000 1.0
C      1  0.5258710000000  0.3961680000000  0.4979280000000 1.0
C      1  0.5217870000000  0.5957130000000  0.4999640000000 1.0
C      1  0.3985810000000  0.4996960000000  0.5213880000000 1.0
C      1  0.5996060000000  0.5014180000000  0.5234010000000 1.0
C      1  0.6001560000000  0.4947570000000  0.4743780000000 1.0
C      1  0.4992700000000  0.5176830000000  0.6015050000000 1.0
C      1  0.4999840000000  0.4762870000000  0.5944490000000 1.0
C      1  0.4996020000000  0.5176720000000  0.3974300000000 1.0
C      1  0.5161310000000  0.6215540000000  0.4673560000000 1.0
C      1  0.4683060000000  0.5068320000000  0.6277040000000 1.0
C      1  0.6191020000000  0.4582490000000  0.5112300000000 1.0
C      1  0.5143310000000  0.3749500000000  0.5405130000000 1.0
C      1  0.4953510000000  0.3613420000000  0.4662690000000 1.0
C      1  0.4856010000000  0.6222480000000  0.5321820000000 1.0
C      1  0.4670080000000  0.4762710000000  0.3829310000000 1.0
C      1  0.5333710000000  0.4787610000000  0.6197920000000 1.0
C      1  0.5286010000000  0.5072180000000  0.3689250000000 1.0
C      1  0.6307630000000  0.5303340000000  0.4883040000000 1.0
C      1  0.3674440000000  0.5264540000000  0.5125960000000 1.0
C      1  0.3835130000000  0.4628810000000  0.4839850000000 1.0
C      1  0.5115990000000  0.4567750000000  0.6173210000000 1.0
C      1  0.4637950000000  0.6218690000000  0.5101000000000 1.0
C      1  0.6281800000000  0.5077000000000  0.4671480000000 1.0
C      1  0.5059690000000  0.5284880000000  0.3678030000000 1.0
C      1  0.4897110000000  0.4552100000000  0.3851290000000 1.0
C      1  0.4900650000000  0.5288770000000  0.6302510000000 1.0
C      1  0.4729660000000  0.3604830000000  0.4876630000000 1.0
C      1  0.5380670000000  0.6213880000000  0.4893530000000 1.0
C      1  0.5366650000000  0.3752650000000  0.5190270000000 1.0
C      1  0.6218200000000  0.4807690000000  0.5324140000000 1.0
C      1  0.3693140000000  0.5041120000000  0.5340390000000 1.0
C      1  0.3801790000000  0.4847670000000  0.4621060000000 1.0
C      1  0.4944010000000  0.5649140000000  0.5320010000000 1.0
C      1  0.5303960000000  0.4961190000000  0.5643280000000 1.0
C      1  0.5750330000000  0.5335000000000  0.4922690000000 1.0
C      1  0.4913840000000  0.4174920000000  0.4674120000000 1.0
C      1  0.5024370000000  0.4289490000000  0.5279600000000 1.0
C      1  0.5071060000000  0.5649280000000  0.4672750000000 1.0
C      1  0.5360190000000  0.5105570000000  0.4246720000000 1.0
C      1  0.4654920000000  0.5088440000000  0.5706810000000 1.0
C      1  0.4697210000000  0.4966610000000  0.4364150000000 1.0
C      1  0.5642870000000  0.4701850000000  0.5058610000000 1.0
C      1  0.4401210000000  0.4717230000000  0.4957000000000 1.0
C      1  0.4243600000000  0.5346210000000  0.5083940000000 1.0
C      1  0.4926290000000  0.5326700000000  0.5745570000000 1.0
C      1  0.5315780000000  0.5648840000000  0.4937660000000 1.0
C      1  0.5657570000000  0.4970690000000  0.5298930000000 1.0
C      1  0.4959780000000  0.4722650000000  0.4413430000000 1.0
C      1  0.5074040000000  0.5330950000000  0.4238640000000 1.0
C      1  0.5055850000000  0.4699580000000  0.5626640000000 1.0
C      1  0.5283450000000  0.4301540000000  0.5033330000000 1.0
C      1  0.4687720000000  0.5656350000000  0.5066870000000 1.0
C      1  0.4651010000000  0.4163930000000  0.4925220000000 1.0
C      1  0.5713080000000  0.5095060000000  0.4652390000000 1.0
C      1  0.4350790000000  0.4977520000000  0.4710820000000 1.0
C      1  0.4244830000000  0.5105200000000  0.5358150000000 1.0
C      1  0.5582270000000  0.5808950000000  0.4852560000000 1.0
C      1  0.4824070000000  0.5609100000000  0.5819770000000 1.0
C      1  0.5800470000000  0.4866300000000  0.5574240000000 1.0
C      1  0.5563690000000  0.4195100000000  0.5149210000000 1.0
C      1  0.4379120000000  0.4172680000000  0.4803420000000 1.0
C      1  0.4427030000000  0.5814140000000  0.5163010000000 1.0
C      1  0.4830230000000  0.4436110000000  0.4248920000000 1.0
C      1  0.5150740000000  0.4420930000000  0.5752940000000 1.0
C      1  0.5164260000000  0.5616420000000  0.4157650000000 1.0
C      1  0.5838340000000  0.5206650000000  0.4384960000000 1.0
C      1  0.4163300000000  0.5216810000000  0.5630460000000 1.0
C      1  0.4198350000000  0.4875270000000  0.4435000000000 1.0
C      1  0.5578480000000  0.4854180000000  0.5774420000000 1.0
C      1  0.4851310000000  0.5803370000000  0.5588130000000 1.0
C      1  0.5817820000000  0.5619740000000  0.4824020000000 1.0
C      1  0.5627850000000  0.5228080000000  0.4164980000000 1.0
C      1  0.4417750000000  0.4862510000000  0.4234670000000 1.0
C      1  0.4386810000000  0.5193350000000  0.5837160000000 1.0
C      1  0.4802830000000  0.4175980000000  0.4396620000000 1.0
C      1  0.5171170000000  0.5793410000000  0.4404700000000 1.0
C      1  0.5139460000000  0.4187630000000  0.5560780000000 1.0
C      1  0.5759040000000  0.4425050000000  0.5166240000000 1.0
C      1  0.4185580000000  0.5631980000000  0.5186390000000 1.0
C      1  0.4233920000000  0.4436070000000  0.4828310000000 1.0
C      1  0.4319660000000  0.5492730000000  0.5905780000000 1.0
C      1  0.5869330000000  0.4367880000000  0.5455740000000 1.0
C      1  0.5454740000000  0.5920830000000  0.4360590000000 1.0
C      1  0.4352480000000  0.4578480000000  0.4119100000000 1.0
C      1  0.5635280000000  0.4564940000000  0.5882950000000 1.0
C      1  0.5674540000000  0.5528840000000  0.4086880000000 1.0
C      1  0.5902550000000  0.5702010000000  0.4531660000000 1.0
C      1  0.4097520000000  0.5711430000000  0.5478780000000 1.0
C      1  0.4121880000000  0.4376260000000  0.4541230000000 1.0
C      1  0.5437530000000  0.4132310000000  0.5648870000000 1.0
C      1  0.4509060000000  0.4104440000000  0.4306710000000 1.0
C      1  0.4559120000000  0.5893740000000  0.5661120000000 1.0
C      1  0.4356990000000  0.5903120000000  0.5457410000000 1.0
C      1  0.5899250000000  0.5508940000000  0.4319350000000 1.0
C      1  0.5433440000000  0.4363210000000  0.5875780000000 1.0
C      1  0.4301410000000  0.4105080000000  0.4505570000000 1.0
C      1  0.5656320000000  0.5906990000000  0.4563650000000 1.0
C      1  0.5643620000000  0.4136100000000  0.5448340000000 1.0
C      1  0.5865770000000  0.4571130000000  0.5657300000000 1.0
C      1  0.4082030000000  0.5514850000000  0.5687240000000 1.0
C      1  0.4123900000000  0.4583200000000  0.4344150000000 1.0
C      1  0.5459900000000  0.5718850000000  0.4108970000000 1.0
C      1  0.4550490000000  0.4373920000000  0.4125450000000 1.0
C      1  0.4530580000000  0.5687350000000  0.5906610000000 1.0
C      1  0.4758870000000  0.4542220000000  0.5659870000000 1.0
C      1  0.5687320000000  0.4776940000000  0.4512830000000 1.0
C      1  0.4534390000000  0.5677570000000  0.4772560000000 1.0
C      1  0.4754850000000  0.5491310000000  0.4285740000000 1.0
C      1  0.5247040000000  0.5484020000000  0.5714490000000 1.0
C      1  0.5222760000000  0.4536650000000  0.4356740000000 1.0
C      1  0.5683740000000  0.5255660000000  0.5469520000000 1.0
C      1  0.4321640000000  0.5262500000000  0.4540030000000 1.0
C      1  0.4287670000000  0.4764730000000  0.5475390000000 1.0
C      1  0.4534120000000  0.4296470000000  0.5225680000000 1.0
C      1  0.5472170000000  0.4312380000000  0.4756660000000 1.0
C      1  0.5472350000000  0.5670040000000  0.5233300000000 1.0
C      1  0.4771470000000  0.5684070000000  0.4519160000000 1.0
C      1  0.5669390000000  0.4544440000000  0.4761990000000 1.0
C      1  0.4510340000000  0.4773500000000  0.5683450000000 1.0
C      1  0.4748320000000  0.4307360000000  0.5466900000000 1.0
C      1  0.5238630000000  0.5679300000000  0.5483410000000 1.0
C      1  0.5224900000000  0.4303510000000  0.4546150000000 1.0
C      1  0.5711790000000  0.5489380000000  0.5245240000000 1.0
C      1  0.4347400000000  0.4530620000000  0.5220950000000 1.0
C      1  0.4291570000000  0.5500230000000  0.4760310000000 1.0
C      1  0.4533280000000  0.5255570000000  0.4326630000000 1.0
C      1  0.5477490000000  0.4764890000000  0.4292370000000 1.0
C      1  0.5470270000000  0.5248940000000  0.5680690000000 1.0
C      1  0.5550860000000  0.5346160000000  0.5969550000000 1.0
C      1  0.5993530000000  0.5605280000000  0.5357800000000 1.0
C      1  0.5308450000000  0.5987700000000  0.5565400000000 1.0
C      1  0.5552990000000  0.4634790000000  0.4004720000000 1.0
C      1  0.4425360000000  0.4672240000000  0.5982530000000 1.0
C      1  0.4445370000000  0.5351050000000  0.4038970000000 1.0
C      1  0.5961580000000  0.4476140000000  0.4665970000000 1.0
C      1  0.4053300000000  0.4455780000000  0.5314420000000 1.0
C      1  0.4012050000000  0.5615710000000  0.4642060000000 1.0
C      1  0.5377660000000  0.4041170000000  0.4450320000000 1.0
C      1  0.4654390000000  0.4028630000000  0.5603860000000 1.0
C      1  0.4705060000000  0.5993890000000  0.4439560000000 1.0
C      1  0.5510680000000  0.5963680000000  0.5336750000000 1.0
C      1  0.5967500000000  0.5364910000000  0.5554230000000 1.0
C      1  0.5356430000000  0.5586620000000  0.6003000000000 1.0
C      1  0.5600590000000  0.4029330000000  0.4663780000000 1.0
C      1  0.4502070000000  0.5970610000000  0.4666510000000 1.0
C      1  0.4435230000000  0.4039470000000  0.5386120000000 1.0
C      1  0.5983020000000  0.4670090000000  0.4429510000000 1.0
C      1  0.4037180000000  0.5369220000000  0.4452960000000 1.0
C      1  0.4000380000000  0.4637520000000  0.5556070000000 1.0
C      1  0.5306920000000  0.4458890000000  0.4060950000000 1.0
C      1  0.4635200000000  0.5594780000000  0.4001630000000 1.0
C      1  0.4663650000000  0.4481660000000  0.5952620000000 1.0
C      1  0.4574690000000  0.5051100000000  0.5369380000000 1.0
C      1  0.5318910000000  0.5123160000000  0.5310170000000 1.0
C      1  0.5376530000000  0.5056500000000  0.4575890000000 1.0
C      1  0.5025080000000  0.5308710000000  0.5405260000000 1.0
C      1  0.4590630000000  0.5318130000000  0.4990460000000 1.0
C      1  0.4934620000000  0.4640340000000  0.5292000000000 1.0
C      1  0.4983540000000  0.5310740000000  0.4586940000000 1.0
C      1  0.5305400000000  0.4650550000000  0.4941120000000 1.0
C      1  0.4689120000000  0.5134390000000  0.4696780000000 1.0
C      1  0.5410010000000  0.5310170000000  0.5016220000000 1.0
C      1  0.4660200000000  0.4809460000000  0.5194060000000 1.0
C      1  0.5201030000000  0.4817790000000  0.4667810000000 1.0
END
