TITL C-862127-1500-832 -0.0092877391887341 125000 -315.403369680382 0 0 57 (Cs) n - 1
REM
REM in /home/nfs/bkarasulu/CARBON/AIRSS/Generating-Clusters/TERSOFF/Higher-Symm/FIRE-HFTN
REM
REM
REM
REM
REM
REM ./C.cell (b20cbc046b6831c77cfcea5457e17084)
REM AIRSS Version 0.9.1 bugfix July 2018 build 013d7b7c2542+ Fri, 06 Jul 2018 19:26:36 +0100
REM compiler GCC version 9.2.1 20190827 (Red Hat 9.2.1-1)
REM options -cpp -mtune=generic -march=x86-64 -g -O0 -fpre-include=/usr/include/finclude/math-vector-fortran.h
REM seed -685716221 -4499012 1616853311 -1802049261 -1343913373 -2056688397 -1835737321 -1630585175 1784594677 1598661167 -1840397284 1834971455 -1667338247 -874632068 -874061105 -1983346808 -2129473935 -1203681843 -630945344 619925751 1238860321 798514756 67687754 -1544425861 -1752498839 1518110929 -324770327 770025314 1349727166 894480841 1992146415 972247602 -403706994
REM
CELL 1.54180   50.00000   50.00000   50.00000   90.00000   90.00000   90.00000
LATT -1
SFAC C  
C      1  0.5329060000000  0.5030240000000  0.5502220000000 1.0
C      1  0.5329060000000  0.5030240000000  0.4475790000000 1.0
C      1  0.4904770000000  0.4920330000000  0.4731400000000 1.0
C      1  0.4904770000000  0.4920330000000  0.5246620000000 1.0
C      1  0.4736950000000  0.5298090000000  0.4541750000000 1.0
C      1  0.4736950000000  0.5298090000000  0.5436270000000 1.0
C      1  0.5685840000000  0.4674270000000  0.5437070000000 1.0
C      1  0.5685840000000  0.4674270000000  0.4540940000000 1.0
C      1  0.4083930000000  0.4864660000000  0.4617990000000 1.0
C      1  0.4083930000000  0.4864660000000  0.5360030000000 1.0
C      1  0.5485460000000  0.5426610000000  0.5230750000000 1.0
C      1  0.5485460000000  0.5426610000000  0.4747270000000 1.0
C      1  0.4531660000000  0.5434680000000  0.5244400000000 1.0
C      1  0.4531660000000  0.5434680000000  0.4733620000000 1.0
C      1  0.4306350000000  0.4718060000000  0.5243480000000 1.0
C      1  0.4306350000000  0.4718060000000  0.4734530000000 1.0
C      1  0.5502660000000  0.4537460000000  0.4740240000000 1.0
C      1  0.5502660000000  0.4537460000000  0.5237770000000 1.0
C      1  0.4698610000000  0.4988380000000  0.4502020000000 1.0
C      1  0.4698610000000  0.4988380000000  0.5476000000000 1.0
C      1  0.5274860000000  0.5308530000000  0.5405070000000 1.0
C      1  0.5274860000000  0.5308530000000  0.4572950000000 1.0
C      1  0.4565600000000  0.4711820000000  0.4597900000000 1.0
C      1  0.4565600000000  0.4711820000000  0.5380120000000 1.0
C      1  0.4987930000000  0.4405200000000  0.4729550000000 1.0
C      1  0.4987930000000  0.4405200000000  0.5248470000000 1.0
C      1  0.4724420000000  0.4453770000000  0.5387120000000 1.0
C      1  0.4724420000000  0.4453770000000  0.4590900000000 1.0
C      1  0.5220980000000  0.4563010000000  0.4637140000000 1.0
C      1  0.5220980000000  0.4563010000000  0.5340870000000 1.0
C      1  0.5001800000000  0.5357700000000  0.4677320000000 1.0
C      1  0.5001800000000  0.5357700000000  0.5300700000000 1.0
C      1  0.5600950000000  0.4929780000000  0.4427010000000 1.0
C      1  0.5600950000000  0.4929780000000  0.5551000000000 1.0
C      1  0.5139420000000  0.4829650000000  0.4570790000000 1.0
C      1  0.5139420000000  0.4829650000000  0.5407230000000 1.0
C      1  0.3964570000000  0.5102170000000  0.5245500000000 1.0
C      1  0.3964570000000  0.5102180000000  0.4732510000000 1.0
C      1  0.5828490000000  0.4894020000000  0.4989010000000 1.0
C      1  0.5468980000000  0.5675210000000  0.4989010000000 1.0
C      1  0.5549520000000  0.4751990000000  0.4989010000000 1.0
C      1  0.4995600000000  0.4269640000000  0.4989010000000 1.0
C      1  0.4935580000000  0.5646570000000  0.4989010000000 1.0
C      1  0.4619340000000  0.5253920000000  0.4989010000000 1.0
C      1  0.5391250000000  0.5006330000000  0.4989010000000 1.0
C      1  0.4201910000000  0.4293870000000  0.4989010000000 1.0
C      1  0.4689780000000  0.4946550000000  0.4989010000000 1.0
C      1  0.4961800000000  0.5335900000000  0.4989010000000 1.0
C      1  0.5187400000000  0.5806690000000  0.4989010000000 1.0
C      1  0.5559310000000  0.4332770000000  0.4989010000000 1.0
C      1  0.4271440000000  0.4576270000000  0.4989010000000 1.0
C      1  0.4036030000000  0.5215670000000  0.4989010000000 1.0
C      1  0.5866200000000  0.5214800000000  0.4989010000000 1.0
C      1  0.5098850000000  0.5035780000000  0.4989010000000 1.0
C      1  0.5813680000000  0.5571140000000  0.4989010000000 1.0
C      1  0.4622450000000  0.5673110000000  0.4989010000000 1.0
C      1  0.5550890000000  0.5244560000000  0.4989010000000 1.0
END
