TITL C-862131-2149-254 -0.0524613989397266 125000 -753.389160163549 0 0 128 (C1) n - 1
REM
REM in /home/nfs/bkarasulu/CARBON/AIRSS/Generating-Clusters/TERSOFF/Higher-Symm/FIRE-HFTN
REM
REM
REM
REM
REM
REM ./C.cell (b20cbc046b6831c77cfcea5457e17084)
REM AIRSS Version 0.9.1 bugfix July 2018 build 013d7b7c2542+ Fri, 06 Jul 2018 19:26:36 +0100
REM compiler GCC version 9.2.1 20190827 (Red Hat 9.2.1-1)
REM options -cpp -mtune=generic -march=x86-64 -g -O0 -fpre-include=/usr/include/finclude/math-vector-fortran.h
REM seed 859856617 1544772699 5858691 1102872153 -164511292 -791302765 -451885362 1798262138 1797758997 -1228851316 -1638664700 -113014724 -1593618340 -485101859 774490729 -1479113399 476343819 -1915946592 -1806240999 1736560821 -502736733 -771258038 803272561 -1481341914 -572637621 -358413196 1911622102 -1074214177 -1939722664 1660215411 -873348007 -115915343 -1452684014
REM
CELL 1.54180   50.00000   50.00000   50.00000   90.00000   90.00000   90.00000
LATT -1
SFAC C  
C      1  0.5509810000000  0.4431690000000  0.5975370000000 1.0
C      1  0.5597410000000  0.4436950000000  0.4046580000000 1.0
C      1  0.3875940000000  0.4428050000000  0.4977840000000 1.0
C      1  0.4956700000000  0.5360040000000  0.6086990000000 1.0
C      1  0.5966430000000  0.5360990000000  0.4501400000000 1.0
C      1  0.4084250000000  0.5354920000000  0.4415260000000 1.0
C      1  0.5451800000000  0.4019950000000  0.5288410000000 1.0
C      1  0.5042510000000  0.4026860000000  0.4458680000000 1.0
C      1  0.4501760000000  0.4010910000000  0.5264340000000 1.0
C      1  0.5253870000000  0.4106590000000  0.4273290000000 1.0
C      1  0.4240380000000  0.4096110000000  0.5165950000000 1.0
C      1  0.5491960000000  0.4103390000000  0.5565240000000 1.0
C      1  0.5277500000000  0.4625320000000  0.4367360000000 1.0
C      1  0.4317440000000  0.4614090000000  0.5089340000000 1.0
C      1  0.5394380000000  0.4622830000000  0.5537710000000 1.0
C      1  0.4468750000000  0.5521950000000  0.5048020000000 1.0
C      1  0.5311020000000  0.5531580000000  0.5436690000000 1.0
C      1  0.5227220000000  0.5524550000000  0.4517140000000 1.0
C      1  0.4547490000000  0.4354560000000  0.5647040000000 1.0
C      1  0.5776390000000  0.4354860000000  0.5068390000000 1.0
C      1  0.4680320000000  0.4357920000000  0.4299500000000 1.0
C      1  0.5531460000000  0.5537290000000  0.4928670000000 1.0
C      1  0.4677030000000  0.5530770000000  0.4579560000000 1.0
C      1  0.4802520000000  0.5532770000000  0.5491300000000 1.0
C      1  0.5378430000000  0.3967980000000  0.5803020000000 1.0
C      1  0.5517810000000  0.3974050000000  0.4248340000000 1.0
C      1  0.4085220000000  0.3960750000000  0.4952970000000 1.0
C      1  0.4975160000000  0.5992850000000  0.5679370000000 1.0
C      1  0.5603120000000  0.5993150000000  0.4679230000000 1.0
C      1  0.4421750000000  0.5986410000000  0.4638080000000 1.0
C      1  0.4186930000000  0.5824120000000  0.4577370000000 1.0
C      1  0.5036610000000  0.5830310000000  0.5913960000000 1.0
C      1  0.5774620000000  0.5830320000000  0.4508270000000 1.0
C      1  0.5073710000000  0.5751250000000  0.4384180000000 1.0
C      1  0.4430850000000  0.5749520000000  0.5246140000000 1.0
C      1  0.5502410000000  0.5759210000000  0.5371120000000 1.0
C      1  0.4525600000000  0.5636270000000  0.5499130000000 1.0
C      1  0.5676850000000  0.5644840000000  0.5163800000000 1.0
C      1  0.4807830000000  0.5638100000000  0.4336950000000 1.0
C      1  0.4555440000000  0.4559790000000  0.4903060000000 1.0
C      1  0.5122460000000  0.4562870000000  0.5411370000000 1.0
C      1  0.5307280000000  0.4564660000000  0.4664770000000 1.0
C      1  0.4897230000000  0.4714490000000  0.5509520000000 1.0
C      1  0.5510090000000  0.4717430000000  0.4803550000000 1.0
C      1  0.4552870000000  0.4716910000000  0.4659650000000 1.0
C      1  0.5975110000000  0.5091170000000  0.4940680000000 1.0
C      1  0.4463510000000  0.5090300000000  0.4186770000000 1.0
C      1  0.4569640000000  0.5090660000000  0.5878950000000 1.0
C      1  0.4163470000000  0.5534780000000  0.4630990000000 1.0
C      1  0.5098340000000  0.5541600000000  0.5907750000000 1.0
C      1  0.5740200000000  0.5540860000000  0.4461610000000 1.0
C      1  0.4065350000000  0.5201490000000  0.5021000000000 1.0
C      1  0.5479090000000  0.5205720000000  0.5796890000000 1.0
C      1  0.5455200000000  0.5209090000000  0.4179380000000 1.0
C      1  0.5120720000000  0.4382700000000  0.4820800000000 1.0
C      1  0.4788040000000  0.4374760000000  0.4966470000000 1.0
C      1  0.5080730000000  0.4373470000000  0.5180810000000 1.0
C      1  0.4915610000000  0.4590120000000  0.3918670000000 1.0
C      1  0.4104030000000  0.4593860000000  0.5629650000000 1.0
C      1  0.5969880000000  0.4590890000000  0.5469580000000 1.0
C      1  0.5753900000000  0.4623960000000  0.4932340000000 1.0
C      1  0.4571810000000  0.4627200000000  0.4383780000000 1.0
C      1  0.4681660000000  0.4623830000000  0.5683230000000 1.0
C      1  0.3979550000000  0.4964130000000  0.4860310000000 1.0
C      1  0.5375180000000  0.4970360000000  0.5949070000000 1.0
C      1  0.5639930000000  0.4974490000000  0.4185150000000 1.0
C      1  0.3882580000000  0.4149920000000  0.4846970000000 1.0
C      1  0.5387040000000  0.4156010000000  0.6032540000000 1.0
C      1  0.5709880000000  0.4161870000000  0.4123070000000 1.0
C      1  0.5950400000000  0.4353310000000  0.5305940000000 1.0
C      1  0.4789190000000  0.4353000000000  0.4025780000000 1.0
C      1  0.4256450000000  0.4356140000000  0.5691680000000 1.0
C      1  0.4521830000000  0.6001620000000  0.5128860000000 1.0
C      1  0.5351770000000  0.6009400000000  0.5348470000000 1.0
C      1  0.5128020000000  0.6004260000000  0.4520620000000 1.0
C      1  0.4541350000000  0.5031120000000  0.5176250000000 1.0
C      1  0.5375940000000  0.5044130000000  0.5298600000000 1.0
C      1  0.5073740000000  0.5034410000000  0.4520310000000 1.0
C      1  0.4139610000000  0.4373620000000  0.5183970000000 1.0
C      1  0.5561100000000  0.4379710000000  0.5646030000000 1.0
C      1  0.5286510000000  0.4382540000000  0.4169470000000 1.0
C      1  0.5889890000000  0.4845070000000  0.5074460000000 1.0
C      1  0.4625120000000  0.4846820000000  0.4195100000000 1.0
C      1  0.4492990000000  0.4845520000000  0.5739310000000 1.0
C      1  0.5892410000000  0.5422930000000  0.5563950000000 1.0
C      1  0.5042240000000  0.5426390000000  0.3944260000000 1.0
C      1  0.4069840000000  0.5420880000000  0.5495310000000 1.0
C      1  0.5562160000000  0.4157800000000  0.5055920000000 1.0
C      1  0.4788460000000  0.4167440000000  0.4491510000000 1.0
C      1  0.4656580000000  0.4151690000000  0.5468300000000 1.0
C      1  0.5108380000000  0.4971620000000  0.5253630000000 1.0
C      1  0.5156550000000  0.4941450000000  0.4772930000000 1.0
C      1  0.4716190000000  0.4941150000000  0.4974630000000 1.0
C      1  0.5477750000000  0.5431280000000  0.4381170000000 1.0
C      1  0.4226350000000  0.5425790000000  0.4898570000000 1.0
C      1  0.5299720000000  0.5434300000000  0.5720460000000 1.0
C      1  0.4539510000000  0.5306120000000  0.5239970000000 1.0
C      1  0.5442930000000  0.5316100000000  0.5280170000000 1.0
C      1  0.5022490000000  0.5310210000000  0.4487860000000 1.0
C      1  0.4554450000000  0.5320880000000  0.4033790000000 1.0
C      1  0.4392500000000  0.5321850000000  0.5873860000000 1.0
C      1  0.6062750000000  0.5320830000000  0.5097620000000 1.0
C      1  0.4896980000000  0.4830340000000  0.4086020000000 1.0
C      1  0.4262610000000  0.4829550000000  0.5557000000000 1.0
C      1  0.5835680000000  0.4828890000000  0.5363140000000 1.0
C      1  0.4607760000000  0.5931290000000  0.4855120000000 1.0
C      1  0.5071970000000  0.5936640000000  0.5410620000000 1.0
C      1  0.5322620000000  0.5936120000000  0.4732200000000 1.0
C      1  0.5755420000000  0.5198590000000  0.5693440000000 1.0
C      1  0.5225500000000  0.5203280000000  0.3993350000000 1.0
C      1  0.4021610000000  0.5196450000000  0.5313430000000 1.0
C      1  0.5557160000000  0.4695400000000  0.4240970000000 1.0
C      1  0.4066160000000  0.4684320000000  0.4911400000000 1.0
C      1  0.5364220000000  0.4692590000000  0.5844970000000 1.0
C      1  0.4220370000000  0.5107820000000  0.4347100000000 1.0
C      1  0.4831170000000  0.5111240000000  0.6005590000000 1.0
C      1  0.5956080000000  0.5112220000000  0.4650480000000 1.0
C      1  0.5891650000000  0.5475810000000  0.5274760000000 1.0
C      1  0.4793570000000  0.5475140000000  0.4092990000000 1.0
C      1  0.4323250000000  0.5472270000000  0.5635000000000 1.0
C      1  0.4715430000000  0.5639310000000  0.4861130000000 1.0
C      1  0.5025690000000  0.5643740000000  0.5316810000000 1.0
C      1  0.5266520000000  0.5643710000000  0.4822130000000 1.0
C      1  0.5099260000000  0.4851800000000  0.4299560000000 1.0
C      1  0.4346110000000  0.4844330000000  0.5273740000000 1.0
C      1  0.5546500000000  0.4848690000000  0.5421000000000 1.0
C      1  0.5002860000000  0.5619590000000  0.5000430000000 1.0
C      1  0.4994270000000  0.4934900000000  0.5000660000000 1.0
END
