TITL C-862506-1665-310 -1.09712862054389e-07 125000 -38.608534287052 0 0 8 (D3h) n - 1
REM
REM in /home/nfs/bkarasulu/CARBON/AIRSS/Generating-Clusters/TERSOFF/Higher-Symm/FIRE-HFTN
REM
REM
REM
REM
REM
REM ./C.cell (b20cbc046b6831c77cfcea5457e17084)
REM AIRSS Version 0.9.1 bugfix July 2018 build 013d7b7c2542+ Fri, 06 Jul 2018 19:26:36 +0100
REM compiler GCC version 9.2.1 20190827 (Red Hat 9.2.1-1)
REM options -cpp -mtune=generic -march=x86-64 -g -O0 -fpre-include=/usr/include/finclude/math-vector-fortran.h
REM seed 433168416 313730101 -1915891937 488233312 -1788432932 -2033840282 2092717844 1406864980 -577759606 1400089113 -1226942001 -1544065948 1930690811 -56607638 -1536622848 -1891878526 -1995479806 -1082508678 2000797940 933819270 -265098698 1264978998 431709429 360455480 1081520859 766524537 -515848421 1222927276 1284631435 -1551218279 -1935002994 -704771969 -1600533421
REM
CELL 1.54180   50.00000   50.00000   50.00000   90.00000   90.00000   90.00000
LATT -1
SFAC C  
C      1  0.5032370000000  0.5090830000000  0.5251740000000 1.0
C      1  0.5254500000000  0.5090830000000  0.4826900000000 1.0
C      1  0.4775510000000  0.5090830000000  0.4846940000000 1.0
C      1  0.5032370000000  0.4795920000000  0.5251740000000 1.0
C      1  0.5254500000000  0.4795920000000  0.4826900000000 1.0
C      1  0.4775510000000  0.4795920000000  0.4846940000000 1.0
C      1  0.5020790000000  0.5213740000000  0.4975190000000 1.0
C      1  0.5020790000000  0.4673010000000  0.4975190000000 1.0
END
