TITL C-862131-2149-289 0.0908237910772782 125000 -327.768967685441 0 0 59 (C1) n - 1
REM
REM in /home/nfs/bkarasulu/CARBON/AIRSS/Generating-Clusters/TERSOFF/Higher-Symm/FIRE-HFTN
REM
REM
REM
REM
REM
REM ./C.cell (b20cbc046b6831c77cfcea5457e17084)
REM AIRSS Version 0.9.1 bugfix July 2018 build 013d7b7c2542+ Fri, 06 Jul 2018 19:26:36 +0100
REM compiler GCC version 9.2.1 20190827 (Red Hat 9.2.1-1)
REM options -cpp -mtune=generic -march=x86-64 -g -O0 -fpre-include=/usr/include/finclude/math-vector-fortran.h
REM seed -1726619714 -2105215784 -1734139966 -1805060922 -1020094415 -199999168 -1101760615 1871371308 393112944 -1109322127 -615391572 271816681 -1535359660 768803396 -983357072 2051743866 -1494205087 -721831164 -1540947594 -2136415871 1371625874 65155498 -1558146417 -1619966317 -1549980310 1108771024 -502435429 527046793 497716154 -903635187 1630398778 184857555 -352883424
REM
CELL 1.54180   50.00000   50.00000   50.00000   90.00000   90.00000   90.00000
LATT -1
SFAC C  
C      1  0.5586090000000  0.4697720000000  0.4348860000000 1.0
C      1  0.4115740000000  0.5099510000000  0.5189580000000 1.0
C      1  0.5132720000000  0.5553970000000  0.5192030000000 1.0
C      1  0.4464060000000  0.5082800000000  0.4850210000000 1.0
C      1  0.4560410000000  0.5204850000000  0.5673300000000 1.0
C      1  0.5321140000000  0.4919740000000  0.4291190000000 1.0
C      1  0.5358730000000  0.5183370000000  0.5499060000000 1.0
C      1  0.4954340000000  0.5558080000000  0.4634240000000 1.0
C      1  0.4303480000000  0.5320410000000  0.5189000000000 1.0
C      1  0.5550880000000  0.4840150000000  0.4991800000000 1.0
C      1  0.5064270000000  0.4766510000000  0.5306230000000 1.0
C      1  0.5071920000000  0.4755320000000  0.4257300000000 1.0
C      1  0.5094720000000  0.5149320000000  0.5692330000000 1.0
C      1  0.5317780000000  0.5213020000000  0.4746000000000 1.0
C      1  0.5661100000000  0.5517180000000  0.4916760000000 1.0
C      1  0.4879530000000  0.5178540000000  0.4996560000000 1.0
C      1  0.5419120000000  0.4670800000000  0.5523790000000 1.0
C      1  0.4821160000000  0.4909820000000  0.4272580000000 1.0
C      1  0.5246030000000  0.5228270000000  0.4294690000000 1.0
C      1  0.5465350000000  0.5462830000000  0.4713850000000 1.0
C      1  0.4865750000000  0.5000900000000  0.4758920000000 1.0
C      1  0.4995760000000  0.4506910000000  0.4689320000000 1.0
C      1  0.5540000000000  0.4949020000000  0.5502610000000 1.0
C      1  0.5072140000000  0.4267990000000  0.4893920000000 1.0
C      1  0.4646480000000  0.4547350000000  0.5163400000000 1.0
C      1  0.4229040000000  0.4837650000000  0.5173840000000 1.0
C      1  0.4412230000000  0.4942300000000  0.4599360000000 1.0
C      1  0.5237640000000  0.4842760000000  0.5048470000000 1.0
C      1  0.4999600000000  0.5322630000000  0.4425810000000 1.0
C      1  0.5195630000000  0.5149460000000  0.5020500000000 1.0
C      1  0.5398500000000  0.4457180000000  0.5299260000000 1.0
C      1  0.5336230000000  0.5326270000000  0.5237890000000 1.0
C      1  0.4518730000000  0.4812890000000  0.5174130000000 1.0
C      1  0.4908380000000  0.4526770000000  0.5282460000000 1.0
C      1  0.4550390000000  0.5294390000000  0.5391630000000 1.0
C      1  0.4519180000000  0.4677550000000  0.4526830000000 1.0
C      1  0.4687000000000  0.4509390000000  0.4697680000000 1.0
C      1  0.4440050000000  0.5401950000000  0.4891170000000 1.0
C      1  0.5133020000000  0.4360490000000  0.5177950000000 1.0
C      1  0.4681570000000  0.5079930000000  0.5209480000000 1.0
C      1  0.5943550000000  0.4870220000000  0.4684660000000 1.0
C      1  0.5653790000000  0.4793920000000  0.4688850000000 1.0
C      1  0.4633130000000  0.5405400000000  0.4613280000000 1.0
C      1  0.5076250000000  0.4504270000000  0.4405920000000 1.0
C      1  0.4588140000000  0.4362320000000  0.4936640000000 1.0
C      1  0.4767640000000  0.4910190000000  0.6033310000000 1.0
C      1  0.4799100000000  0.5085760000000  0.5803530000000 1.0
C      1  0.5039760000000  0.5457440000000  0.5672870000000 1.0
C      1  0.4795470000000  0.4140240000000  0.4923590000000 1.0
C      1  0.5712170000000  0.5055480000000  0.5126430000000 1.0
C      1  0.5408880000000  0.4985700000000  0.4596330000000 1.0
C      1  0.5622510000000  0.5340120000000  0.5144490000000 1.0
C      1  0.4780960000000  0.5112740000000  0.4492660000000 1.0
C      1  0.5057470000000  0.4780450000000  0.4796880000000 1.0
C      1  0.5144600000000  0.4832470000000  0.5583050000000 1.0
C      1  0.4930740000000  0.5500190000000  0.4945370000000 1.0
C      1  0.4656690000000  0.5582590000000  0.5040430000000 1.0
C      1  0.4676280000000  0.5561930000000  0.5338140000000 1.0
C      1  0.4956990000000  0.5592590000000  0.5429560000000 1.0
END
