TITL C-862134-6730-620 5.68051248564574e-07 125000 -149.841885581033 0 0 29 (D2d) n - 1
REM
REM in /home/nfs/bkarasulu/CARBON/AIRSS/Generating-Clusters/TERSOFF/Higher-Symm/FIRE-HFTN
REM
REM
REM
REM
REM
REM ./C.cell (b20cbc046b6831c77cfcea5457e17084)
REM AIRSS Version 0.9.1 bugfix July 2018 build 013d7b7c2542+ Fri, 06 Jul 2018 19:26:36 +0100
REM compiler GCC version 9.2.1 20190827 (Red Hat 9.2.1-1)
REM options -cpp -mtune=generic -march=x86-64 -g -O0 -fpre-include=/usr/include/finclude/math-vector-fortran.h
REM seed 1972412713 -283723924 -654045154 -1741007777 503796411 -925048378 968504426 -1908188206 -1368292732 927950539 -701283974 2056086087 1691556753 -351287223 -1244889108 1871480259 -1912992609 -1156351565 860003387 984528969 2064336842 -1495536856 -1782851304 -1285296217 452663841 -505766828 291269595 1414142556 -424160051 489617553 -428069384 -1536902787 -803519660
REM
CELL 1.54180   50.00000   50.00000   50.00000   90.00000   90.00000   90.00000
LATT -1
SFAC C  
C      1  0.5105500000000  0.4686040000000  0.5299220000000 1.0
C      1  0.4913980000000  0.5294810000000  0.5299220000000 1.0
C      1  0.5105500000000  0.5294810000000  0.4710420000000 1.0
C      1  0.4913980000000  0.4686040000000  0.4710420000000 1.0
C      1  0.4705350000000  0.5086190000000  0.5299220000000 1.0
C      1  0.5314130000000  0.4894660000000  0.5299220000000 1.0
C      1  0.5314120000000  0.5086190000000  0.4710420000000 1.0
C      1  0.4705350000000  0.4894660000000  0.4710420000000 1.0
C      1  0.4700290000000  0.4888130000000  0.5515020000000 1.0
C      1  0.5319180000000  0.5092720000000  0.5515010000000 1.0
C      1  0.4700290000000  0.5092720000000  0.4494630000000 1.0
C      1  0.5319180000000  0.4888130000000  0.4494630000000 1.0
C      1  0.4907440000000  0.4680980000000  0.5515020000000 1.0
C      1  0.5112040000000  0.5299870000000  0.5515010000000 1.0
C      1  0.5112040000000  0.4680980000000  0.4494630000000 1.0
C      1  0.4907440000000  0.5299870000000  0.4494630000000 1.0
C      1  0.4916150000000  0.4477490000000  0.5721940000000 1.0
C      1  0.5103320000000  0.5503360000000  0.5721940000000 1.0
C      1  0.4916150000000  0.5503360000000  0.4287700000000 1.0
C      1  0.5103320000000  0.4477490000000  0.4287700000000 1.0
C      1  0.4496810000000  0.4896840000000  0.5721940000000 1.0
C      1  0.5522670000000  0.5084010000000  0.5721940000000 1.0
C      1  0.5522670000000  0.4896840000000  0.4287700000000 1.0
C      1  0.4496810000000  0.5084010000000  0.4287700000000 1.0
C      1  0.5009740000000  0.5351130000000  0.5004820000000 1.0
C      1  0.5009740000000  0.4629720000000  0.5004820000000 1.0
C      1  0.5370440000000  0.4990420000000  0.5004820000000 1.0
C      1  0.4649030000000  0.4990420000000  0.5004820000000 1.0
C      1  0.5009740000000  0.4990420000000  0.5004820000000 1.0
END
