TITL C-862503-991-583 49.9940174270518 125000 -34.2262903605214 0 0 11 (Cs) n - 1
REM
REM in /home/nfs/bkarasulu/CARBON/AIRSS/Generating-Clusters/TERSOFF/Higher-Symm/FIRE-HFTN
REM
REM
REM
REM
REM
REM ./C.cell (b20cbc046b6831c77cfcea5457e17084)
REM AIRSS Version 0.9.1 bugfix July 2018 build 013d7b7c2542+ Fri, 06 Jul 2018 19:26:36 +0100
REM compiler GCC version 9.2.1 20190827 (Red Hat 9.2.1-1)
REM options -cpp -mtune=generic -march=x86-64 -g -O0 -fpre-include=/usr/include/finclude/math-vector-fortran.h
REM seed -589088029 162570513 -1975450324 1842995730 978446730 1927252987 -1786809686 1546714480 -859183312 1304400546 -1415102246 -1343322138 -1809746716 -1581818219 -1618298197 -190635873 785390617 -1466640585 70488263 -775948447 502144968 1239553111 1283264472 6323262 1922765830 -747425353 -1664145318 -1322861242 -2005964655 1488181492 1484002817 -218412088 1964964030
REM
CELL 1.54180   50.00000   50.00000   50.00000   90.00000   90.00000   90.00000
LATT -1
SFAC C  
C      1  0.4644320000000  0.5209990000000  0.4724230000000 1.0
C      1  0.4574410000000  0.4798080000000  0.4767130000000 1.0
C      1  0.4851690000000  0.4750570000000  0.5078980000000 1.0
C      1  0.4564910000000  0.4954240000000  0.5308490000000 1.0
C      1  0.4637250000000  0.5326380000000  0.5127720000000 1.0
C      1  0.5727200000000  0.4924000000000  0.5015190000000 1.0
C      1  0.4667020000000  0.5018610000000  0.4998430000000 1.0
C      1  0.5217270000000  0.4979010000000  0.5005370000000 1.0
C      1  0.5486840000000  0.5082320000000  0.4984560000000 1.0
C      1  0.4976920000000  0.5136340000000  0.4969910000000 1.0
C      1  0.4337250000000  0.5074260000000  0.4976590000000 1.0
END
