TITL C-862130-1496-240 -4.50771096460673e-06 125000 -121.264675540982 0 0 24 (S10) n - 1
REM
REM in /home/nfs/bkarasulu/CARBON/AIRSS/Generating-Clusters/TERSOFF/Higher-Symm/FIRE-HFTN
REM
REM
REM
REM
REM
REM ./C.cell (b20cbc046b6831c77cfcea5457e17084)
REM AIRSS Version 0.9.1 bugfix July 2018 build 013d7b7c2542+ Fri, 06 Jul 2018 19:26:36 +0100
REM compiler GCC version 9.2.1 20190827 (Red Hat 9.2.1-1)
REM options -cpp -mtune=generic -march=x86-64 -g -O0 -fpre-include=/usr/include/finclude/math-vector-fortran.h
REM seed -1770255591 1270361939 96400039 1556202624 76556097 -490379127 -1045928135 1334123131 -1610888526 -1249744423 282152484 -1897572697 -1521405317 -1487878528 1364097139 -546317767 -211922055 -1773821540 -265463068 -571117153 1620045729 464964468 -2127830442 1098615754 1257024973 -1809042297 1600704649 1663594004 -544275644 96032097 2043952453 -19720546 13784411
REM
CELL 1.54180   50.00000   50.00000   50.00000   90.00000   90.00000   90.00000
LATT -1
SFAC C  
C      1  0.4978560000000  0.4667320000000  0.5360640000000 1.0
C      1  0.4770470000000  0.4737750000000  0.4639360000000 1.0
C      1  0.4643520000000  0.4917030000000  0.5360640000000 1.0
C      1  0.4646190000000  0.5136700000000  0.4639360000000 1.0
C      1  0.4777470000000  0.5312840000000  0.5360640000000 1.0
C      1  0.4987220000000  0.5378170000000  0.4639360000000 1.0
C      1  0.5195300000000  0.5307750000000  0.5360640000000 1.0
C      1  0.5322250000000  0.5128460000000  0.4639360000000 1.0
C      1  0.5319580000000  0.4908800000000  0.5360640000000 1.0
C      1  0.5188300000000  0.4732660000000  0.4639360000000 1.0
C      1  0.4977750000000  0.4601380000000  0.5072910000000 1.0
C      1  0.4731060000000  0.4684870000000  0.4927090000000 1.0
C      1  0.4580560000000  0.4897420000000  0.5072910000000 1.0
C      1  0.4583730000000  0.5157840000000  0.4927090000000 1.0
C      1  0.4739370000000  0.5366650000000  0.5072910000000 1.0
C      1  0.4988020000000  0.5444110000000  0.4927090000000 1.0
C      1  0.5234710000000  0.5360620000000  0.5072910000000 1.0
C      1  0.5385210000000  0.5148070000000  0.4927090000000 1.0
C      1  0.5382040000000  0.4887660000000  0.5072910000000 1.0
C      1  0.5226400000000  0.4678840000000  0.4927090000000 1.0
C      1  0.4982890000000  0.5022750000000  0.4239390000000 1.0
C      1  0.4982890000000  0.5022750000000  0.5760610000000 1.0
C      1  0.4982890000000  0.5022750000000  0.4546790000000 1.0
C      1  0.4982890000000  0.5022750000000  0.5453210000000 1.0
END
