TITL C-862507-1800-1082 45.2982405982789 125000 -606.904661048043 0 0 104 (C1) n - 1
REM
REM in /home/nfs/bkarasulu/CARBON/AIRSS/Generating-Clusters/TERSOFF/Higher-Symm/FIRE-HFTN
REM
REM
REM
REM
REM
REM ./C.cell (b20cbc046b6831c77cfcea5457e17084)
REM AIRSS Version 0.9.1 bugfix July 2018 build 013d7b7c2542+ Fri, 06 Jul 2018 19:26:36 +0100
REM compiler GCC version 9.2.1 20190827 (Red Hat 9.2.1-1)
REM options -cpp -mtune=generic -march=x86-64 -g -O0 -fpre-include=/usr/include/finclude/math-vector-fortran.h
REM seed 595112365 -707182321 1873917191 -446690246 -1494598725 -475410278 -607358525 -1004902217 634132633 -1138089125 1673149823 60403079 1866501150 1569222123 -2021770234 1663095494 -1389749190 2056311504 -1399759856 1796037486 -1484404389 -1813932990 -1902872369 1785096494 1954044601 1053891792 -1476431658 1447596955 -1830137630 -1335498946 -1953411611 213826093 -1750181597
REM
CELL 1.54180   50.00000   50.00000   50.00000   90.00000   90.00000   90.00000
LATT -1
SFAC C  
C      1  0.5103450000000  0.4653340000000  0.4155530000000 1.0
C      1  0.4453590000000  0.4609990000000  0.4471800000000 1.0
C      1  0.4164180000000  0.4568520000000  0.5207190000000 1.0
C      1  0.4775430000000  0.4597290000000  0.5877750000000 1.0
C      1  0.5676900000000  0.4619060000000  0.5591330000000 1.0
C      1  0.5822350000000  0.4600540000000  0.4655200000000 1.0
C      1  0.5162070000000  0.5379720000000  0.5862970000000 1.0
C      1  0.4291430000000  0.5340130000000  0.5507910000000 1.0
C      1  0.4253620000000  0.5352910000000  0.4738070000000 1.0
C      1  0.4804170000000  0.5416780000000  0.4196820000000 1.0
C      1  0.5590690000000  0.5411370000000  0.4424250000000 1.0
C      1  0.5766550000000  0.5386920000000  0.5177160000000 1.0
C      1  0.5138040000000  0.5362650000000  0.4709390000000 1.0
C      1  0.4845820000000  0.5263520000000  0.4743200000000 1.0
C      1  0.4745670000000  0.5270470000000  0.5042570000000 1.0
C      1  0.4943210000000  0.5300300000000  0.5274180000000 1.0
C      1  0.5227800000000  0.5365480000000  0.5217400000000 1.0
C      1  0.5317290000000  0.5409650000000  0.4942500000000 1.0
C      1  0.5052940000000  0.4672940000000  0.5332300000000 1.0
C      1  0.4762950000000  0.4665600000000  0.5264230000000 1.0
C      1  0.4664590000000  0.4717400000000  0.4981320000000 1.0
C      1  0.4884180000000  0.4689190000000  0.4759500000000 1.0
C      1  0.5171580000000  0.4644480000000  0.4834540000000 1.0
C      1  0.5257930000000  0.4663980000000  0.5116900000000 1.0
C      1  0.4695650000000  0.5363620000000  0.5951630000000 1.0
C      1  0.5782640000000  0.5391260000000  0.5658330000000 1.0
C      1  0.5991220000000  0.5373190000000  0.4697960000000 1.0
C      1  0.5227890000000  0.5410780000000  0.4002730000000 1.0
C      1  0.4376600000000  0.5362530000000  0.4290690000000 1.0
C      1  0.4044920000000  0.5327410000000  0.5101580000000 1.0
C      1  0.4652520000000  0.4653980000000  0.4104670000000 1.0
C      1  0.5579240000000  0.4644170000000  0.4276710000000 1.0
C      1  0.5927080000000  0.4628060000000  0.5208260000000 1.0
C      1  0.5231510000000  0.4619560000000  0.6002010000000 1.0
C      1  0.4200920000000  0.4587660000000  0.5673870000000 1.0
C      1  0.4065760000000  0.4599090000000  0.4736110000000 1.0
C      1  0.4695640000000  0.5081360000000  0.6028870000000 1.0
C      1  0.5834100000000  0.5102720000000  0.5685180000000 1.0
C      1  0.6035610000000  0.5083850000000  0.4637180000000 1.0
C      1  0.5184800000000  0.5124070000000  0.3940390000000 1.0
C      1  0.4340320000000  0.5074050000000  0.4285210000000 1.0
C      1  0.3982710000000  0.5042970000000  0.5126120000000 1.0
C      1  0.4665480000000  0.4942700000000  0.4054120000000 1.0
C      1  0.5659260000000  0.4926710000000  0.4273100000000 1.0
C      1  0.5952290000000  0.4917040000000  0.5233260000000 1.0
C      1  0.5227080000000  0.4907890000000  0.6055460000000 1.0
C      1  0.4141760000000  0.4875190000000  0.5674670000000 1.0
C      1  0.4041370000000  0.4887600000000  0.4704840000000 1.0
C      1  0.5580290000000  0.4483050000000  0.4526620000000 1.0
C      1  0.4865270000000  0.4511790000000  0.4260490000000 1.0
C      1  0.4327070000000  0.4472260000000  0.4692220000000 1.0
C      1  0.4312910000000  0.4457530000000  0.5432210000000 1.0
C      1  0.5038990000000  0.4490100000000  0.5820140000000 1.0
C      1  0.5700960000000  0.4486250000000  0.5330770000000 1.0
C      1  0.5661480000000  0.5510200000000  0.5416550000000 1.0
C      1  0.4902730000000  0.5476290000000  0.5775790000000 1.0
C      1  0.4279460000000  0.5444670000000  0.5236470000000 1.0
C      1  0.4423580000000  0.5492540000000  0.4549580000000 1.0
C      1  0.5065780000000  0.5544060000000  0.4217140000000 1.0
C      1  0.5728770000000  0.5512540000000  0.4657410000000 1.0
C      1  0.5753980000000  0.5102710000000  0.5125120000000 1.0
C      1  0.5499550000000  0.5138090000000  0.4396260000000 1.0
C      1  0.4766340000000  0.5135250000000  0.4251850000000 1.0
C      1  0.4264710000000  0.5065390000000  0.4774590000000 1.0
C      1  0.4339610000000  0.5060830000000  0.5568460000000 1.0
C      1  0.5244180000000  0.5103230000000  0.5840670000000 1.0
C      1  0.5834000000000  0.4885600000000  0.4714860000000 1.0
C      1  0.5630550000000  0.4905440000000  0.5617290000000 1.0
C      1  0.4703430000000  0.4872760000000  0.5826980000000 1.0
C      1  0.4195330000000  0.4843620000000  0.5124230000000 1.0
C      1  0.4493620000000  0.4897860000000  0.4465000000000 1.0
C      1  0.5130390000000  0.4943960000000  0.4166780000000 1.0
C      1  0.4762900000000  0.4193050000000  0.5258770000000 1.0
C      1  0.5058920000000  0.4195840000000  0.5347600000000 1.0
C      1  0.5284690000000  0.4184550000000  0.5127750000000 1.0
C      1  0.5207060000000  0.4177450000000  0.4818390000000 1.0
C      1  0.4905620000000  0.4199270000000  0.4736140000000 1.0
C      1  0.4692610000000  0.4207790000000  0.4959440000000 1.0
C      1  0.4800680000000  0.5770420000000  0.4785760000000 1.0
C      1  0.5095020000000  0.5811070000000  0.4712830000000 1.0
C      1  0.5304520000000  0.5829140000000  0.4940240000000 1.0
C      1  0.5209140000000  0.5799270000000  0.5239310000000 1.0
C      1  0.4905940000000  0.5768130000000  0.5306840000000 1.0
C      1  0.4701380000000  0.5758070000000  0.5076920000000 1.0
C      1  0.4699890000000  0.5522100000000  0.4647950000000 1.0
C      1  0.4538780000000  0.5490650000000  0.5088830000000 1.0
C      1  0.4856030000000  0.5509800000000  0.5479870000000 1.0
C      1  0.5367190000000  0.5566980000000  0.5399470000000 1.0
C      1  0.5550080000000  0.5605080000000  0.4891110000000 1.0
C      1  0.5171340000000  0.5583910000000  0.4498990000000 1.0
C      1  0.4611960000000  0.4434410000000  0.5391380000000 1.0
C      1  0.4518830000000  0.4450870000000  0.4914920000000 1.0
C      1  0.4839060000000  0.4462630000000  0.4560850000000 1.0
C      1  0.5321910000000  0.4433850000000  0.4683640000000 1.0
C      1  0.5451680000000  0.4443540000000  0.5170540000000 1.0
C      1  0.5106750000000  0.4450590000000  0.5529700000000 1.0
C      1  0.4603100000000  0.4955470000000  0.5574830000000 1.0
C      1  0.4768790000000  0.5037070000000  0.4543650000000 1.0
C      1  0.5221920000000  0.5070140000000  0.4406470000000 1.0
C      1  0.5367520000000  0.5008320000000  0.5605200000000 1.0
C      1  0.5636030000000  0.4995770000000  0.4883930000000 1.0
C      1  0.4449250000000  0.4934550000000  0.4986490000000 1.0
C      1  0.5126450000000  0.5037150000000  0.4976260000000 1.0
C      1  0.5360170000000  0.5017650000000  0.4799020000000 1.0
END
