TITL C-862134-6730-153 52.895818431906 125000 -947.157067081447 0 0 163 (C1) n - 1
REM
REM in /home/nfs/bkarasulu/CARBON/AIRSS/Generating-Clusters/TERSOFF/Higher-Symm/FIRE-HFTN
REM
REM
REM
REM
REM
REM ./C.cell (b20cbc046b6831c77cfcea5457e17084)
REM AIRSS Version 0.9.1 bugfix July 2018 build 013d7b7c2542+ Fri, 06 Jul 2018 19:26:36 +0100
REM compiler GCC version 9.2.1 20190827 (Red Hat 9.2.1-1)
REM options -cpp -mtune=generic -march=x86-64 -g -O0 -fpre-include=/usr/include/finclude/math-vector-fortran.h
REM seed 1038454223 2104955393 -720508025 -1863205977 -2006976565 861573878 213431797 1872245474 -1380641621 -1968164997 1669431510 1975635281 -1761270365 -1611679167 -1214038548 -1960388622 -934874289 372289777 -210672561 -1306972424 -1536674944 -453492888 -1438160353 1185582105 -1913356064 1938409820 874641303 830392553 -233679056 -1616378296 615683567 -822687063 195021366
REM
CELL 1.54180   50.00000   50.00000   50.00000   90.00000   90.00000   90.00000
LATT -1
SFAC C  
C      1  0.5089310000000  0.6186110000000  0.4658000000000 1.0
C      1  0.5349930000000  0.6187470000000  0.4987180000000 1.0
C      1  0.5120550000000  0.6189740000000  0.5338850000000 1.0
C      1  0.4716190000000  0.6191080000000  0.5225680000000 1.0
C      1  0.4696470000000  0.6188680000000  0.4806230000000 1.0
C      1  0.4057430000000  0.5563740000000  0.5291310000000 1.0
C      1  0.4433840000000  0.5563100000000  0.4190990000000 1.0
C      1  0.5597830000000  0.5567210000000  0.4211650000000 1.0
C      1  0.5935000000000  0.5569550000000  0.5323950000000 1.0
C      1  0.4984260000000  0.5566890000000  0.5989270000000 1.0
C      1  0.4535460000000  0.4670720000000  0.5791020000000 1.0
C      1  0.4103530000000  0.4672440000000  0.4802770000000 1.0
C      1  0.4910490000000  0.4675330000000  0.4085480000000 1.0
C      1  0.5842310000000  0.4675690000000  0.4632590000000 1.0
C      1  0.5609010000000  0.4672650000000  0.5687350000000 1.0
C      1  0.5517420000000  0.4689300000000  0.5181500000000 1.0
C      1  0.4984440000000  0.4690580000000  0.5547760000000 1.0
C      1  0.4470000000000  0.4691390000000  0.5155590000000 1.0
C      1  0.4684090000000  0.4690230000000  0.4543120000000 1.0
C      1  0.5333950000000  0.4689120000000  0.4559200000000 1.0
C      1  0.5243880000000  0.4386510000000  0.4907530000000 1.0
C      1  0.5164900000000  0.4385460000000  0.5203670000000 1.0
C      1  0.4858940000000  0.4384800000000  0.5220000000000 1.0
C      1  0.4748760000000  0.4385570000000  0.4934140000000 1.0
C      1  0.4986600000000  0.4386430000000  0.4740990000000 1.0
C      1  0.4497560000000  0.4247610000000  0.4859180000000 1.0
C      1  0.4980050000000  0.4249490000000  0.4478300000000 1.0
C      1  0.5491200000000  0.4249050000000  0.4819790000000 1.0
C      1  0.5324350000000  0.4246660000000  0.5411070000000 1.0
C      1  0.4710700000000  0.4245660000000  0.5435310000000 1.0
C      1  0.5080690000000  0.5089630000000  0.5282700000000 1.0
C      1  0.4748360000000  0.5091180000000  0.5158910000000 1.0
C      1  0.4764740000000  0.5089970000000  0.4804970000000 1.0
C      1  0.5105080000000  0.5087820000000  0.4711900000000 1.0
C      1  0.5299720000000  0.5087630000000  0.5005620000000 1.0
C      1  0.6159660000000  0.5136000000000  0.5063860000000 1.0
C      1  0.5300860000000  0.5134040000000  0.6121810000000 1.0
C      1  0.4027010000000  0.5132650000000  0.5636170000000 1.0
C      1  0.4093590000000  0.5132530000000  0.4268640000000 1.0
C      1  0.5418980000000  0.5134670000000  0.3913890000000 1.0
C      1  0.5515610000000  0.5946790000000  0.4908730000000 1.0
C      1  0.5246560000000  0.5949570000000  0.5469490000000 1.0
C      1  0.4629380000000  0.5950840000000  0.5383740000000 1.0
C      1  0.4519680000000  0.5948040000000  0.4769810000000 1.0
C      1  0.5068810000000  0.5945260000000  0.4477000000000 1.0
C      1  0.4052730000000  0.4452940000000  0.4982330000000 1.0
C      1  0.4724980000000  0.4454710000000  0.4092930000000 1.0
C      1  0.5778620000000  0.4454910000000  0.4458480000000 1.0
C      1  0.5755930000000  0.4452940000000  0.5572830000000 1.0
C      1  0.4690160000000  0.4451560000000  0.5895650000000 1.0
C      1  0.5496900000000  0.4340750000000  0.4093320000000 1.0
C      1  0.6016260000000  0.4340940000000  0.5191810000000 1.0
C      1  0.5132700000000  0.4339660000000  0.6026020000000 1.0
C      1  0.4065310000000  0.4339560000000  0.5443270000000 1.0
C      1  0.4290660000000  0.4339840000000  0.4247650000000 1.0
C      1  0.5405810000000  0.4440380000000  0.6077750000000 1.0
C      1  0.4100720000000  0.4439440000000  0.5719290000000 1.0
C      1  0.4039140000000  0.4439290000000  0.4367240000000 1.0
C      1  0.5305330000000  0.4440900000000  0.3891490000000 1.0
C      1  0.6149200000000  0.4442000000000  0.4947770000000 1.0
C      1  0.4244490000000  0.4870740000000  0.5145120000000 1.0
C      1  0.4626230000000  0.4870230000000  0.4325480000000 1.0
C      1  0.5524110000000  0.4869360000000  0.4438590000000 1.0
C      1  0.5691510000000  0.4868940000000  0.5325330000000 1.0
C      1  0.4903960000000  0.4869690000000  0.5759150000000 1.0
C      1  0.5533640000000  0.5472190000000  0.5734680000000 1.0
C      1  0.4470500000000  0.5470000000000  0.5734000000000 1.0
C      1  0.4134260000000  0.5472430000000  0.4720390000000 1.0
C      1  0.5002670000000  0.5476790000000  0.4084460000000 1.0
C      1  0.5870090000000  0.5477310000000  0.4721280000000 1.0
C      1  0.5006710000000  0.4773910000000  0.5272080000000 1.0
C      1  0.4738560000000  0.4774610000000  0.5090630000000 1.0
C      1  0.4828170000000  0.4772910000000  0.4779380000000 1.0
C      1  0.5152090000000  0.4771450000000  0.4768440000000 1.0
C      1  0.5262330000000  0.4772020000000  0.5073160000000 1.0
C      1  0.4551120000000  0.4025770000000  0.5340000000000 1.0
C      1  0.4538650000000  0.4027790000000  0.4677790000000 1.0
C      1  0.5164480000000  0.4029070000000  0.4461150000000 1.0
C      1  0.5564010000000  0.4028050000000  0.4989290000000 1.0
C      1  0.5185130000000  0.4025930000000  0.5532640000000 1.0
C      1  0.5043090000000  0.4123310000000  0.5788130000000 1.0
C      1  0.4264440000000  0.4124160000000  0.5284000000000 1.0
C      1  0.4504060000000  0.4125870000000  0.4387930000000 1.0
C      1  0.5429670000000  0.4126440000000  0.4339070000000 1.0
C      1  0.5762580000000  0.4125010000000  0.5203660000000 1.0
C      1  0.4172330000000  0.5395960000000  0.5567000000000 1.0
C      1  0.4203880000000  0.5396290000000  0.4384770000000 1.0
C      1  0.5343000000000  0.5399700000000  0.4052160000000 1.0
C      1  0.6005240000000  0.5401200000000  0.5033870000000 1.0
C      1  0.5281060000000  0.5398240000000  0.5963910000000 1.0
C      1  0.5622720000000  0.5759600000000  0.5118400000000 1.0
C      1  0.5079910000000  0.5758650000000  0.5628640000000 1.0
C      1  0.4427400000000  0.5760580000000  0.5271010000000 1.0
C      1  0.4562180000000  0.5761120000000  0.4537820000000 1.0
C      1  0.5303990000000  0.5759960000000  0.4440510000000 1.0
C      1  0.5611780000000  0.4250840000000  0.5422930000000 1.0
C      1  0.4788020000000  0.4249360000000  0.5712410000000 1.0
C      1  0.4257940000000  0.4251230000000  0.5018580000000 1.0
C      1  0.4754180000000  0.4253420000000  0.4299930000000 1.0
C      1  0.5590990000000  0.4253330000000  0.4549910000000 1.0
C      1  0.4015630000000  0.4684840000000  0.4532410000000 1.0
C      1  0.5142200000000  0.4687400000000  0.3920350000000 1.0
C      1  0.6070820000000  0.4688470000000  0.4801890000000 1.0
C      1  0.5521250000000  0.4685960000000  0.5957580000000 1.0
C      1  0.4251430000000  0.4684270000000  0.5792650000000 1.0
C      1  0.5082260000000  0.3873870000000  0.5263560000000 1.0
C      1  0.4775000000000  0.3873760000000  0.5158560000000 1.0
C      1  0.4779870000000  0.3874640000000  0.4833910000000 1.0
C      1  0.5090200000000  0.3875290000000  0.4738230000000 1.0
C      1  0.5277080000000  0.3874840000000  0.5003800000000 1.0
C      1  0.3925430000000  0.4521410000000  0.5243350000000 1.0
C      1  0.4436670000000  0.4521330000000  0.4051440000000 1.0
C      1  0.5728420000000  0.4522030000000  0.4171910000000 1.0
C      1  0.6011300000000  0.4522300000000  0.5435730000000 1.0
C      1  0.4899320000000  0.4521450000000  0.6095880000000 1.0
C      1  0.5727380000000  0.5680050000000  0.4507510000000 1.0
C      1  0.5692140000000  0.5677500000000  0.5537740000000 1.0
C      1  0.4705270000000  0.5674790000000  0.5826690000000 1.0
C      1  0.4119110000000  0.5674890000000  0.4975740000000 1.0
C      1  0.4752950000000  0.5677760000000  0.4152460000000 1.0
C      1  0.4565740000000  0.5269880000000  0.5291870000000 1.0
C      1  0.4583310000000  0.5268500000000  0.4669900000000 1.0
C      1  0.5180560000000  0.5258810000000  0.4492760000000 1.0
C      1  0.5534170000000  0.5254800000000  0.5007850000000 1.0
C      1  0.5152400000000  0.5261240000000  0.5502480000000 1.0
C      1  0.3986140000000  0.4812050000000  0.5252630000000 1.0
C      1  0.4445880000000  0.4812190000000  0.4111460000000 1.0
C      1  0.5673050000000  0.4812290000000  0.4201250000000 1.0
C      1  0.5963880000000  0.4811960000000  0.5391960000000 1.0
C      1  0.4926580000000  0.4811330000000  0.6038350000000 1.0
C      1  0.4264790000000  0.5928770000000  0.4922330000000 1.0
C      1  0.4847190000000  0.5929430000000  0.4279500000000 1.0
C      1  0.5633500000000  0.5931400000000  0.4636250000000 1.0
C      1  0.5542350000000  0.5930990000000  0.5493180000000 1.0
C      1  0.4699010000000  0.5929820000000  0.5672570000000 1.0
C      1  0.5217810000000  0.4950340000000  0.3800990000000 1.0
C      1  0.6206520000000  0.4951990000000  0.4837650000000 1.0
C      1  0.5529960000000  0.4949690000000  0.6096680000000 1.0
C      1  0.4122610000000  0.4947860000000  0.5845240000000 1.0
C      1  0.3924930000000  0.4947780000000  0.4425030000000 1.0
C      1  0.5665530000000  0.5001140000000  0.3985820000000 1.0
C      1  0.6165770000000  0.5002240000000  0.5320310000000 1.0
C      1  0.5058930000000  0.5000620000000  0.6208020000000 1.0
C      1  0.3867560000000  0.4999750000000  0.5434090000000 1.0
C      1  0.4236390000000  0.4999490000000  0.4054550000000 1.0
C      1  0.4765940000000  0.5595240000000  0.5048060000000 1.0
C      1  0.4883440000000  0.5590650000000  0.4776680000000 1.0
C      1  0.5178660000000  0.5577650000000  0.4804350000000 1.0
C      1  0.5242800000000  0.5574270000000  0.5094960000000 1.0
C      1  0.4986710000000  0.5585230000000  0.5244560000000 1.0
C      1  0.4384540000000  0.5376030000000  0.4847170000000 1.0
C      1  0.4952060000000  0.5369700000000  0.4356780000000 1.0
C      1  0.5598230000000  0.5360470000000  0.4747270000000 1.0
C      1  0.5421890000000  0.5360720000000  0.5483470000000 1.0
C      1  0.4670790000000  0.5370460000000  0.5539440000000 1.0
C      1  0.4956310000000  0.5487290000000  0.5524370000000 1.0
C      1  0.4491510000000  0.5496620000000  0.5111290000000 1.0
C      1  0.4733440000000  0.5491770000000  0.4539510000000 1.0
C      1  0.5359150000000  0.5478940000000  0.4590140000000 1.0
C      1  0.5500070000000  0.5476610000000  0.5207780000000 1.0
C      1  0.4997580000000  0.5249560000000  0.4992940000000 1.0
C      1  0.5026870000000  0.5919180000000  0.4994210000000 1.0
C      1  0.4990220000000  0.6207220000000  0.5003710000000 1.0
END
