TITL C-862503-991-164 165147.915226272 125000 -815.431706048935 0 0 138 (C1) n - 1
REM
REM in /home/nfs/bkarasulu/CARBON/AIRSS/Generating-Clusters/TERSOFF/Higher-Symm/FIRE-HFTN
REM
REM
REM
REM
REM
REM ./C.cell (b20cbc046b6831c77cfcea5457e17084)
REM AIRSS Version 0.9.1 bugfix July 2018 build 013d7b7c2542+ Fri, 06 Jul 2018 19:26:36 +0100
REM compiler GCC version 9.2.1 20190827 (Red Hat 9.2.1-1)
REM options -cpp -mtune=generic -march=x86-64 -g -O0 -fpre-include=/usr/include/finclude/math-vector-fortran.h
REM seed 558259092 -789524264 -1810629772 423725360 1882434723 -1758458135 -1864855580 2080901809 750740283 -890880798 -947833373 2146978741 1857317074 -574879467 601756684 -1712499199 -183484527 1832501866 -718508029 -1411581003 -1965589044 1271995466 -1435942718 -1753710934 223786114 -1800805162 -1572002752 -1751146498 419722007 -1435056595 20893403 -1941878694 1681690016
REM
CELL 1.54180   50.00000   50.00000   50.00000   90.00000   90.00000   90.00000
LATT -1
SFAC C  
C      1  0.4980740000000  0.4179260000000  0.5543310000000 1.0
C      1  0.4892910000000  0.6044090000000  0.5137020000000 1.0
C      1  0.4680090000000  0.4460230000000  0.5028270000000 1.0
C      1  0.4948390000000  0.4843390000000  0.4229010000000 1.0
C      1  0.4924960000000  0.5609320000000  0.5991770000000 1.0
C      1  0.4654070000000  0.5452320000000  0.5035720000000 1.0
C      1  0.5502660000000  0.4503410000000  0.5431890000000 1.0
C      1  0.4716060000000  0.5549420000000  0.4173850000000 1.0
C      1  0.5160290000000  0.4463040000000  0.5087860000000 1.0
C      1  0.5778130000000  0.5405310000000  0.4713140000000 1.0
C      1  0.4831760000000  0.4412700000000  0.5683590000000 1.0
C      1  0.4792400000000  0.5797150000000  0.4035180000000 1.0
C      1  0.4896030000000  0.4762970000000  0.5332820000000 1.0
C      1  0.5403730000000  0.5744670000000  0.5279660000000 1.0
C      1  0.5610750000000  0.5891900000000  0.4637170000000 1.0
C      1  0.4322150000000  0.4144370000000  0.5114080000000 1.0
C      1  0.5476880000000  0.4297240000000  0.4424980000000 1.0
C      1  0.5751670000000  0.4417940000000  0.4448240000000 1.0
C      1  0.5738110000000  0.4923100000000  0.5563280000000 1.0
C      1  0.4915180000000  0.4522380000000  0.5955110000000 1.0
C      1  0.4423470000000  0.5771000000000  0.5182560000000 1.0
C      1  0.5888160000000  0.4390120000000  0.5309570000000 1.0
C      1  0.3805750000000  0.5261830000000  0.5271940000000 1.0
C      1  0.4141960000000  0.5418400000000  0.4940400000000 1.0
C      1  0.5053400000000  0.5938490000000  0.4074260000000 1.0
C      1  0.4300540000000  0.4457700000000  0.4279660000000 1.0
C      1  0.4490430000000  0.4980040000000  0.4052440000000 1.0
C      1  0.4394670000000  0.5579820000000  0.4928450000000 1.0
C      1  0.4739800000000  0.4649100000000  0.5542650000000 1.0
C      1  0.5138570000000  0.5290780000000  0.4311410000000 1.0
C      1  0.5457130000000  0.5582120000000  0.5041590000000 1.0
C      1  0.5116500000000  0.4939970000000  0.5383840000000 1.0
C      1  0.5526780000000  0.5701060000000  0.5543630000000 1.0
C      1  0.4888000000000  0.3961250000000  0.4460560000000 1.0
C      1  0.3998040000000  0.4558680000000  0.5161980000000 1.0
C      1  0.4530120000000  0.5387700000000  0.5475960000000 1.0
C      1  0.5753560000000  0.4644000000000  0.4247780000000 1.0
C      1  0.5113680000000  0.5061960000000  0.4124960000000 1.0
C      1  0.6040230000000  0.5647920000000  0.5206550000000 1.0
C      1  0.4429430000000  0.5460330000000  0.4221240000000 1.0
C      1  0.5202400000000  0.5958820000000  0.4334210000000 1.0
C      1  0.4482500000000  0.6028290000000  0.5049860000000 1.0
C      1  0.5525680000000  0.6137410000000  0.4762770000000 1.0
C      1  0.5475130000000  0.5853050000000  0.4375360000000 1.0
C      1  0.4210510000000  0.5712410000000  0.5398670000000 1.0
C      1  0.5101910000000  0.5175180000000  0.5539020000000 1.0
C      1  0.5373840000000  0.4944470000000  0.4021040000000 1.0
C      1  0.4576020000000  0.4545210000000  0.4291150000000 1.0
C      1  0.4677540000000  0.5606760000000  0.5306910000000 1.0
C      1  0.5082410000000  0.5770990000000  0.5809850000000 1.0
C      1  0.4911590000000  0.5475900000000  0.4371070000000 1.0
C      1  0.4607870000000  0.6052050000000  0.4781780000000 1.0
C      1  0.4927130000000  0.4948640000000  0.4638840000000 1.0
C      1  0.4249340000000  0.4613280000000  0.5296830000000 1.0
C      1  0.5131440000000  0.6186180000000  0.5059890000000 1.0
C      1  0.5095550000000  0.4642860000000  0.4371840000000 1.0
C      1  0.4757240000000  0.4751310000000  0.6071480000000 1.0
C      1  0.5655130000000  0.5662300000000  0.4814710000000 1.0
C      1  0.5295160000000  0.4475660000000  0.4242760000000 1.0
C      1  0.5471960000000  0.5280530000000  0.5056060000000 1.0
C      1  0.4527990000000  0.4794260000000  0.5654740000000 1.0
C      1  0.4914240000000  0.4599220000000  0.5110410000000 1.0
C      1  0.5581310000000  0.4512510000000  0.4936560000000 1.0
C      1  0.4840540000000  0.4673600000000  0.4704080000000 1.0
C      1  0.3982090000000  0.4815710000000  0.4429940000000 1.0
C      1  0.4088160000000  0.5374870000000  0.4586780000000 1.0
C      1  0.4243170000000  0.5294940000000  0.5427330000000 1.0
C      1  0.5559740000000  0.3840200000000  0.5139800000000 1.0
C      1  0.3986980000000  0.4344400000000  0.4675340000000 1.0
C      1  0.4672180000000  0.4781580000000  0.4151070000000 1.0
C      1  0.4283290000000  0.4802430000000  0.5516310000000 1.0
C      1  0.4056560000000  0.4331430000000  0.4970020000000 1.0
C      1  0.4343000000000  0.5407790000000  0.5851370000000 1.0
C      1  0.4945570000000  0.5932600000000  0.5618090000000 1.0
C      1  0.4125910000000  0.5116420000000  0.4950200000000 1.0
C      1  0.5650290000000  0.4014470000000  0.5356170000000 1.0
C      1  0.4573770000000  0.4925850000000  0.5909480000000 1.0
C      1  0.4043900000000  0.5469720000000  0.5260480000000 1.0
C      1  0.5373350000000  0.5738550000000  0.5793650000000 1.0
C      1  0.4927220000000  0.4089340000000  0.5241930000000 1.0
C      1  0.4140960000000  0.5045460000000  0.5524890000000 1.0
C      1  0.5810480000000  0.5631330000000  0.5557750000000 1.0
C      1  0.5482700000000  0.4214420000000  0.5491660000000 1.0
C      1  0.5242560000000  0.6181440000000  0.4792280000000 1.0
C      1  0.5415920000000  0.4587810000000  0.5167910000000 1.0
C      1  0.5443010000000  0.4274670000000  0.4841330000000 1.0
C      1  0.4742010000000  0.4464800000000  0.4511620000000 1.0
C      1  0.5086920000000  0.5177150000000  0.5822460000000 1.0
C      1  0.5885090000000  0.4899750000000  0.5295810000000 1.0
C      1  0.5299260000000  0.3803030000000  0.4695640000000 1.0
C      1  0.6201520000000  0.5053150000000  0.4958840000000 1.0
C      1  0.5921090000000  0.4404560000000  0.4689560000000 1.0
C      1  0.5273230000000  0.5007650000000  0.5973050000000 1.0
C      1  0.6085210000000  0.5200260000000  0.4481460000000 1.0
C      1  0.4591850000000  0.5226510000000  0.5919160000000 1.0
C      1  0.6269390000000  0.5168990000000  0.4702500000000 1.0
C      1  0.3803600000000  0.4764110000000  0.5121860000000 1.0
C      1  0.4879350000000  0.5594680000000  0.4636820000000 1.0
C      1  0.4416310000000  0.5698500000000  0.4661970000000 1.0
C      1  0.5206350000000  0.4504470000000  0.5990880000000 1.0
C      1  0.5328150000000  0.3893600000000  0.4973710000000 1.0
C      1  0.5622610000000  0.5313580000000  0.4484090000000 1.0
C      1  0.5341330000000  0.5255030000000  0.4514550000000 1.0
C      1  0.5163860000000  0.4152360000000  0.5029400000000 1.0
C      1  0.4627810000000  0.3983890000000  0.5093360000000 1.0
C      1  0.4850380000000  0.5899680000000  0.4676120000000 1.0
C      1  0.5390280000000  0.3990360000000  0.4451190000000 1.0
C      1  0.6057270000000  0.5371770000000  0.5291730000000 1.0
C      1  0.4233450000000  0.4980480000000  0.4723320000000 1.0
C      1  0.5242300000000  0.5101630000000  0.5017330000000 1.0
C      1  0.5073910000000  0.6055530000000  0.4582050000000 1.0
C      1  0.5970600000000  0.5139330000000  0.5129880000000 1.0
C      1  0.5296790000000  0.4235980000000  0.5930400000000 1.0
C      1  0.4872040000000  0.5846380000000  0.5352010000000 1.0
C      1  0.4746650000000  0.4184650000000  0.4603260000000 1.0
C      1  0.5549950000000  0.4707260000000  0.5640890000000 1.0
C      1  0.5259170000000  0.4135290000000  0.5660030000000 1.0
C      1  0.4871250000000  0.5412560000000  0.4857580000000 1.0
C      1  0.4449250000000  0.4415280000000  0.5215750000000 1.0
C      1  0.5978720000000  0.4630470000000  0.4869180000000 1.0
C      1  0.5363500000000  0.4737810000000  0.5886750000000 1.0
C      1  0.4718960000000  0.4202040000000  0.4894560000000 1.0
C      1  0.5744500000000  0.5217440000000  0.4949840000000 1.0
C      1  0.4092500000000  0.4540800000000  0.4466340000000 1.0
C      1  0.4350540000000  0.5169170000000  0.4218060000000 1.0
C      1  0.5013320000000  0.5154080000000  0.4840490000000 1.0
C      1  0.5485960000000  0.4679450000000  0.4109120000000 1.0
C      1  0.5914610000000  0.4637560000000  0.5159420000000 1.0
C      1  0.5145110000000  0.4254340000000  0.4108020000000 1.0
C      1  0.4152210000000  0.5078310000000  0.4445770000000 1.0
C      1  0.4870420000000  0.5331110000000  0.5946860000000 1.0
C      1  0.4270970000000  0.5578190000000  0.4444060000000 1.0
C      1  0.5129540000000  0.4017150000000  0.4278160000000 1.0
C      1  0.3877490000000  0.5038090000000  0.5087520000000 1.0
C      1  0.4313400000000  0.5675430000000  0.5691850000000 1.0
C      1  0.5765990000000  0.5154050000000  0.5742860000000 1.0
C      1  0.5917280000000  0.5393710000000  0.5687080000000 1.0
C      1  0.5014330000000  0.3745810000000  0.4624720000000 1.0
END
