TITL C-862503-991-123 66.890405986473 125000 -801.173259799283 0 0 145 (C1) n - 1
REM
REM in /home/nfs/bkarasulu/CARBON/AIRSS/Generating-Clusters/TERSOFF/Higher-Symm/FIRE-HFTN
REM
REM
REM
REM
REM
REM ./C.cell (b20cbc046b6831c77cfcea5457e17084)
REM AIRSS Version 0.9.1 bugfix July 2018 build 013d7b7c2542+ Fri, 06 Jul 2018 19:26:36 +0100
REM compiler GCC version 9.2.1 20190827 (Red Hat 9.2.1-1)
REM options -cpp -mtune=generic -march=x86-64 -g -O0 -fpre-include=/usr/include/finclude/math-vector-fortran.h
REM seed 606752633 -504480298 -1391660126 2074843395 -1290976661 1521142994 255095914 -1064943952 -299068555 129276228 1598097853 214272990 -820547716 1562243964 -1214959701 -464383298 62910948 970256461 1462278568 777719614 1320140804 -253799318 -1716291593 -1901629054 2011117638 -1582879620 934099028 337454317 1420897734 878159316 -634784471 -1125849078 1927462608
REM
CELL 1.54180   50.00000   50.00000   50.00000   90.00000   90.00000   90.00000
LATT -1
SFAC C  
C      1  0.5338020000000  0.5264710000000  0.4168970000000 1.0
C      1  0.4100000000000  0.5358910000000  0.5084090000000 1.0
C      1  0.5535780000000  0.5334430000000  0.5740490000000 1.0
C      1  0.5504280000000  0.5136460000000  0.4581600000000 1.0
C      1  0.4389830000000  0.5115880000000  0.4787390000000 1.0
C      1  0.5121830000000  0.5116660000000  0.5645370000000 1.0
C      1  0.5600000000000  0.4408110000000  0.4502010000000 1.0
C      1  0.4243910000000  0.4407600000000  0.4728920000000 1.0
C      1  0.5141950000000  0.4404700000000  0.5779630000000 1.0
C      1  0.5870270000000  0.4698680000000  0.5616040000000 1.0
C      1  0.5099130000000  0.4681230000000  0.3946470000000 1.0
C      1  0.4045920000000  0.4663830000000  0.5441140000000 1.0
C      1  0.5462580000000  0.4642470000000  0.4355020000000 1.0
C      1  0.4176360000000  0.4637460000000  0.4925750000000 1.0
C      1  0.5347070000000  0.4640770000000  0.5752270000000 1.0
C      1  0.5090290000000  0.3950090000000  0.4873720000000 1.0
C      1  0.4789680000000  0.4012900000000  0.4930310000000 1.0
C      1  0.5161270000000  0.4009300000000  0.5183210000000 1.0
C      1  0.4991380000000  0.4651790000000  0.4686000000000 1.0
C      1  0.4722650000000  0.4659610000000  0.5147670000000 1.0
C      1  0.5263030000000  0.4663770000000  0.5171140000000 1.0
C      1  0.5265490000000  0.5308600000000  0.3890190000000 1.0
C      1  0.3946530000000  0.5533650000000  0.5259560000000 1.0
C      1  0.5778170000000  0.5489760000000  0.5784890000000 1.0
C      1  0.4424130000000  0.4835920000000  0.5383340000000 1.0
C      1  0.5630820000000  0.4822790000000  0.5294630000000 1.0
C      1  0.4943130000000  0.4826340000000  0.4307860000000 1.0
C      1  0.4799930000000  0.4471590000000  0.5385250000000 1.0
C      1  0.5426440000000  0.4471010000000  0.4995460000000 1.0
C      1  0.4739360000000  0.4485080000000  0.4629030000000 1.0
C      1  0.5461450000000  0.4260020000000  0.5447850000000 1.0
C      1  0.5164640000000  0.4226940000000  0.4385370000000 1.0
C      1  0.4425920000000  0.4246830000000  0.5167580000000 1.0
C      1  0.4767910000000  0.5073350000000  0.5424000000000 1.0
C      1  0.5480510000000  0.5076720000000  0.4996110000000 1.0
C      1  0.4752640000000  0.5083980000000  0.4578770000000 1.0
C      1  0.4336440000000  0.4902970000000  0.4978110000000 1.0
C      1  0.5301980000000  0.4898040000000  0.5584410000000 1.0
C      1  0.5364010000000  0.4887850000000  0.4517120000000 1.0
C      1  0.4620670000000  0.4479480000000  0.5689030000000 1.0
C      1  0.5786270000000  0.4486130000000  0.4996600000000 1.0
C      1  0.4575290000000  0.4494560000000  0.4313570000000 1.0
C      1  0.6213190000000  0.4841330000000  0.4947920000000 1.0
C      1  0.4349140000000  0.4851330000000  0.3960090000000 1.0
C      1  0.4433710000000  0.4827940000000  0.6074260000000 1.0
C      1  0.5099090000000  0.4579670000000  0.5400470000000 1.0
C      1  0.5262630000000  0.4533860000000  0.4718220000000 1.0
C      1  0.4590560000000  0.4574790000000  0.4896640000000 1.0
C      1  0.5424950000000  0.5875950000000  0.5127310000000 1.0
C      1  0.4898560000000  0.5883320000000  0.4568100000000 1.0
C      1  0.4677710000000  0.5868620000000  0.5305440000000 1.0
C      1  0.5273240000000  0.5407230000000  0.5907260000000 1.0
C      1  0.5618700000000  0.5411540000000  0.4286650000000 1.0
C      1  0.4095440000000  0.5414650000000  0.4775050000000 1.0
C      1  0.4643030000000  0.5899320000000  0.4777520000000 1.0
C      1  0.4987470000000  0.5894470000000  0.5426130000000 1.0
C      1  0.5370410000000  0.5901040000000  0.4802380000000 1.0
C      1  0.5171780000000  0.5036590000000  0.4345270000000 1.0
C      1  0.4254030000000  0.5071750000000  0.5222290000000 1.0
C      1  0.5551930000000  0.5053800000000  0.5518390000000 1.0
C      1  0.4131490000000  0.4829750000000  0.5682140000000 1.0
C      1  0.6031060000000  0.4856960000000  0.5410100000000 1.0
C      1  0.4845190000000  0.4846750000000  0.3902260000000 1.0
C      1  0.4497030000000  0.5413040000000  0.5209330000000 1.0
C      1  0.5437320000000  0.5415710000000  0.5340660000000 1.0
C      1  0.5079280000000  0.5430990000000  0.4454540000000 1.0
C      1  0.4610150000000  0.4906130000000  0.4381520000000 1.0
C      1  0.4654720000000  0.4893040000000  0.5631760000000 1.0
C      1  0.5717360000000  0.4898350000000  0.4973980000000 1.0
C      1  0.5697480000000  0.5611220000000  0.4530450000000 1.0
C      1  0.4240410000000  0.5630870000000  0.4603960000000 1.0
C      1  0.5041820000000  0.5616380000000  0.5856970000000 1.0
C      1  0.4316140000000  0.4820540000000  0.4260730000000 1.0
C      1  0.4706760000000  0.4804830000000  0.5943560000000 1.0
C      1  0.5962660000000  0.4819070000000  0.4780950000000 1.0
C      1  0.4687550000000  0.6018460000000  0.5044490000000 1.0
C      1  0.5194580000000  0.6020580000000  0.5256210000000 1.0
C      1  0.5119790000000  0.6026250000000  0.4711810000000 1.0
C      1  0.3934090000000  0.4790680000000  0.4838140000000 1.0
C      1  0.5395200000000  0.4782160000000  0.6009640000000 1.0
C      1  0.5648180000000  0.4782510000000  0.4170310000000 1.0
C      1  0.5064700000000  0.5160740000000  0.5954860000000 1.0
C      1  0.5791500000000  0.5174990000000  0.4453370000000 1.0
C      1  0.4155490000000  0.5167200000000  0.4582590000000 1.0
C      1  0.5249130000000  0.4939250000000  0.5080380000000 1.0
C      1  0.4942700000000  0.4938440000000  0.4736280000000 1.0
C      1  0.4803930000000  0.4937420000000  0.5176760000000 1.0
C      1  0.4946240000000  0.4157980000000  0.5375040000000 1.0
C      1  0.5369580000000  0.4146930000000  0.4846520000000 1.0
C      1  0.4681920000000  0.4170500000000  0.4686190000000 1.0
C      1  0.5178450000000  0.5365980000000  0.5466810000000 1.0
C      1  0.5316350000000  0.5381960000000  0.4619080000000 1.0
C      1  0.4521480000000  0.5360990000000  0.4923960000000 1.0
C      1  0.4728210000000  0.5488270000000  0.4783290000000 1.0
C      1  0.4952560000000  0.5483370000000  0.5349480000000 1.0
C      1  0.5320250000000  0.5491180000000  0.4878330000000 1.0
C      1  0.5822210000000  0.4432880000000  0.4695040000000 1.0
C      1  0.4293780000000  0.4440780000000  0.4438150000000 1.0
C      1  0.4861980000000  0.4421270000000  0.5873050000000 1.0
C      1  0.5754330000000  0.5494010000000  0.4998730000000 1.0
C      1  0.4630180000000  0.5516880000000  0.4339060000000 1.0
C      1  0.4617340000000  0.5497910000000  0.5655230000000 1.0
C      1  0.6019340000000  0.5269960000000  0.4685050000000 1.0
C      1  0.4250020000000  0.5269650000000  0.4275220000000 1.0
C      1  0.4751130000000  0.5258700000000  0.6024780000000 1.0
C      1  0.5862400000000  0.4928110000000  0.4299790000000 1.0
C      1  0.3960240000000  0.4939690000000  0.4591020000000 1.0
C      1  0.5165090000000  0.4925550000000  0.6111300000000 1.0
C      1  0.4207510000000  0.5450770000000  0.5578010000000 1.0
C      1  0.5911850000000  0.5472120000000  0.5387120000000 1.0
C      1  0.4901610000000  0.5471660000000  0.4022110000000 1.0
C      1  0.4702080000000  0.5358340000000  0.5408360000000 1.0
C      1  0.5499500000000  0.5360340000000  0.5061290000000 1.0
C      1  0.4803000000000  0.5371180000000  0.4532390000000 1.0
C      1  0.4334880000000  0.4647470000000  0.5831320000000 1.0
C      1  0.6051750000000  0.4666780000000  0.5161310000000 1.0
C      1  0.4606260000000  0.4668480000000  0.3999090000000 1.0
C      1  0.4402870000000  0.4201680000000  0.4855380000000 1.0
C      1  0.5194710000000  0.4210390000000  0.5575560000000 1.0
C      1  0.5421620000000  0.4187690000000  0.4543030000000 1.0
C      1  0.5865190000000  0.5507020000000  0.4741230000000 1.0
C      1  0.4349190000000  0.5528280000000  0.4355910000000 1.0
C      1  0.4773280000000  0.5512300000000  0.5888780000000 1.0
C      1  0.6137930000000  0.5150320000000  0.4968960000000 1.0
C      1  0.4427090000000  0.5151770000000  0.4029070000000 1.0
C      1  0.4451150000000  0.5134050000000  0.5987980000000 1.0
C      1  0.4271570000000  0.5160090000000  0.5723780000000 1.0
C      1  0.6001090000000  0.5183640000000  0.5259690000000 1.0
C      1  0.4744140000000  0.5178060000000  0.4004850000000 1.0
C      1  0.5155600000000  0.4542910000000  0.4241060000000 1.0
C      1  0.4274910000000  0.4549400000000  0.5239490000000 1.0
C      1  0.5590190000000  0.4552880000000  0.5525650000000 1.0
C      1  0.4969040000000  0.4064780000000  0.4554620000000 1.0
C      1  0.4698170000000  0.4090070000000  0.5194340000000 1.0
C      1  0.5474200000000  0.4101280000000  0.5188050000000 1.0
C      1  0.5014810000000  0.5678990000000  0.4294450000000 1.0
C      1  0.4386200000000  0.5659450000000  0.5344270000000 1.0
C      1  0.5609240000000  0.5664550000000  0.5353850000000 1.0
C      1  0.5986580000000  0.4765700000000  0.4498650000000 1.0
C      1  0.4055170000000  0.4780530000000  0.4375130000000 1.0
C      1  0.4935020000000  0.4757630000000  0.6113620000000 1.0
C      1  0.4359670000000  0.5870530000000  0.4705380000000 1.0
C      1  0.5067730000000  0.5860120000000  0.5707700000000 1.0
C      1  0.5567280000000  0.5860050000000  0.4587700000000 1.0
C      1  0.4998320000000  0.5026890000000  0.4996460000000 1.0
END
