TITL C-862502-1143-1131 8.36593184025909e-05 125000 -564.289398309286 0 0 110 (C5) n - 1
REM
REM in /home/nfs/bkarasulu/CARBON/AIRSS/Generating-Clusters/TERSOFF/Higher-Symm/FIRE-HFTN
REM
REM
REM
REM
REM
REM ./C.cell (b20cbc046b6831c77cfcea5457e17084)
REM AIRSS Version 0.9.1 bugfix July 2018 build 013d7b7c2542+ Fri, 06 Jul 2018 19:26:36 +0100
REM compiler GCC version 9.2.1 20190827 (Red Hat 9.2.1-1)
REM options -cpp -mtune=generic -march=x86-64 -g -O0 -fpre-include=/usr/include/finclude/math-vector-fortran.h
REM seed 106180204 1757420113 722505858 570969346 571938073 699980304 802049369 18625451 1831427578 1156038032 1005111970 -2008033971 253542628 -966210959 1952099468 1873492561 159805039 -193854580 1709335561 1177058827 -1558138266 -335308535 1048930509 2078923667 -1732913131 2284923 -1426748676 -1439501129 905108370 1550298154 -1133855740 -942544645 -931996843
REM
CELL 1.54180   50.00000   50.00000   50.00000   90.00000   90.00000   90.00000
LATT -1
SFAC C  
C      1  0.5036760000000  0.5425340000000  0.5793390000000 1.0
C      1  0.5036760000000  0.5887490000000  0.4839260000000 1.0
C      1  0.5036760000000  0.5122860000000  0.4104890000000 1.0
C      1  0.5036760000000  0.4188160000000  0.4605160000000 1.0
C      1  0.5036760000000  0.4375100000000  0.5648710000000 1.0
C      1  0.4287750000000  0.5254710000000  0.5619090000000 1.0
C      1  0.4287750000000  0.5668990000000  0.4947680000000 1.0
C      1  0.4287750000000  0.5158460000000  0.4346200000000 1.0
C      1  0.4287740000000  0.4428650000000  0.4645880000000 1.0
C      1  0.4287740000000  0.4488140000000  0.5432570000000 1.0
C      1  0.5848140000000  0.5357400000000  0.4947820000000 1.0
C      1  0.5848140000000  0.5062300000000  0.4642570000000 1.0
C      1  0.5848140000000  0.4680810000000  0.4828910000000 1.0
C      1  0.5848140000000  0.4740130000000  0.5249310000000 1.0
C      1  0.5848140000000  0.5158290000000  0.5322800000000 1.0
C      1  0.5450590000000  0.4958930000000  0.4312550000000 1.0
C      1  0.5450590000000  0.4334990000000  0.4825240000000 1.0
C      1  0.5450590000000  0.4629780000000  0.5577070000000 1.0
C      1  0.5450590000000  0.5435910000000  0.5529040000000 1.0
C      1  0.5450590000000  0.5639330000000  0.4747520000000 1.0
C      1  0.4858210000000  0.4222560000000  0.5143330000000 1.0
C      1  0.4858210000000  0.4897560000000  0.5782290000000 1.0
C      1  0.4858210000000  0.5713840000000  0.5337780000000 1.0
C      1  0.4858210000000  0.5543330000000  0.4424100000000 1.0
C      1  0.4858210000000  0.4621670000000  0.4303920000000 1.0
C      1  0.5120440000000  0.5375790000000  0.4569820000000 1.0
C      1  0.5120430000000  0.4708490000000  0.4508280000000 1.0
C      1  0.5120430000000  0.4443760000000  0.5123910000000 1.0
C      1  0.5120440000000  0.4947440000000  0.5565920000000 1.0
C      1  0.5120440000000  0.5523470000000  0.5223480000000 1.0
C      1  0.5708530000000  0.4872850000000  0.4445400000000 1.0
C      1  0.5708530000000  0.4434750000000  0.4948160000000 1.0
C      1  0.5708530000000  0.4777510000000  0.5520180000000 1.0
C      1  0.5708530000000  0.5427450000000  0.5370960000000 1.0
C      1  0.5708530000000  0.5486380000000  0.4706710000000 1.0
C      1  0.4597340000000  0.4717610000000  0.5779700000000 1.0
C      1  0.4597340000000  0.5655760000000  0.5508120000000 1.0
C      1  0.4597340000000  0.5687380000000  0.4531970000000 1.0
C      1  0.4597340000000  0.4768780000000  0.4200240000000 1.0
C      1  0.4597340000000  0.4169420000000  0.4971380000000 1.0
C      1  0.5439000000000  0.5093130000000  0.4731210000000 1.0
C      1  0.5439000000000  0.4774640000000  0.4826980000000 1.0
C      1  0.5439000000000  0.4767290000000  0.5159480000000 1.0
C      1  0.5439000000000  0.5081250000000  0.5269210000000 1.0
C      1  0.5439000000000  0.5282630000000  0.5004530000000 1.0
C      1  0.4494280000000  0.4420270000000  0.5073590000000 1.0
C      1  0.4494280000000  0.4892330000000  0.5572710000000 1.0
C      1  0.4494280000000  0.5512900000000  0.5277990000000 1.0
C      1  0.4494280000000  0.5424360000000  0.4596720000000 1.0
C      1  0.4494280000000  0.4749090000000  0.4470400000000 1.0
C      1  0.4795090000000  0.5823250000000  0.5000270000000 1.0
C      1  0.4795090000000  0.5256150000000  0.4215740000000 1.0
C      1  0.4795090000000  0.4334760000000  0.4512650000000 1.0
C      1  0.4795090000000  0.4332430000000  0.5480690000000 1.0
C      1  0.4795090000000  0.5252360000000  0.5782060000000 1.0
C      1  0.5169720000000  0.4688090000000  0.5356980000000 1.0
C      1  0.5169720000000  0.5244610000000  0.5405570000000 1.0
C      1  0.5169720000000  0.5462800000000  0.4891300000000 1.0
C      1  0.5169720000000  0.5041120000000  0.4524880000000 1.0
C      1  0.5169720000000  0.4562330000000  0.4812680000000 1.0
C      1  0.4222970000000  0.4711150000000  0.5206920000000 1.0
C      1  0.4222970000000  0.5109020000000  0.5337260000000 1.0
C      1  0.4222970000000  0.5355930000000  0.4999150000000 1.0
C      1  0.4222970000000  0.5110670000000  0.4659840000000 1.0
C      1  0.4222970000000  0.4712170000000  0.4788250000000 1.0
C      1  0.5060190000000  0.4812030000000  0.4106130000000 1.0
C      1  0.5060190000000  0.4093280000000  0.4901160000000 1.0
C      1  0.5060190000000  0.4627290000000  0.5830420000000 1.0
C      1  0.5060200000000  0.5676090000000  0.5609690000000 1.0
C      1  0.5060190000000  0.5790260000000  0.4544020000000 1.0
C      1  0.4835630000000  0.5078870000000  0.4651700000000 1.0
C      1  0.4835620000000  0.4694610000000  0.4815970000000 1.0
C      1  0.4835630000000  0.4732090000000  0.5232190000000 1.0
C      1  0.4835630000000  0.5139530000000  0.5325160000000 1.0
C      1  0.4835630000000  0.5353850000000  0.4966390000000 1.0
C      1  0.4523550000000  0.4654300000000  0.4911200000000 1.0
C      1  0.4523560000000  0.4810210000000  0.5299950000000 1.0
C      1  0.4523560000000  0.5228110000000  0.5271810000000 1.0
C      1  0.4523560000000  0.5330480000000  0.4865660000000 1.0
C      1  0.4523550000000  0.4975850000000  0.4642790000000 1.0
C      1  0.5340020000000  0.5722420000000  0.5521130000000 1.0
C      1  0.5340020000000  0.5720350000000  0.4472590000000 1.0
C      1  0.5340020000000  0.4722490000000  0.4150540000000 1.0
C      1  0.5340020000000  0.4107850000000  0.5000040000000 1.0
C      1  0.5340020000000  0.4725840000000  0.5847110000000 1.0
C      1  0.5380710000000  0.5412720000000  0.4364740000000 1.0
C      1  0.5380710000000  0.4524860000000  0.4409780000000 1.0
C      1  0.5380710000000  0.4293330000000  0.5268110000000 1.0
C      1  0.5380710000000  0.5038110000000  0.5753550000000 1.0
C      1  0.5380710000000  0.5729930000000  0.5195230000000 1.0
C      1  0.5630280000000  0.5543040000000  0.5114660000000 1.0
C      1  0.5630280000000  0.5278350000000  0.4517590000000 1.0
C      1  0.5630280000000  0.4628700000000  0.4584810000000 1.0
C      1  0.5630280000000  0.4491890000000  0.5223440000000 1.0
C      1  0.5630280000000  0.5056980000000  0.5550900000000 1.0
C      1  0.4547200000000  0.5079570000000  0.4216700000000 1.0
C      1  0.4547200000000  0.4281120000000  0.4680890000000 1.0
C      1  0.4547200000000  0.4475850000000  0.5583700000000 1.0
C      1  0.4547200000000  0.5394650000000  0.5677480000000 1.0
C      1  0.4547200000000  0.5767770000000  0.4832630000000 1.0
C      1  0.5281720000000  0.5288100000000  0.5883970000000 1.0
C      1  0.5281720000000  0.5931220000000  0.4997770000000 1.0
C      1  0.5281720000000  0.5287130000000  0.4112280000000 1.0
C      1  0.5281720000000  0.4245950000000  0.4451210000000 1.0
C      1  0.5281720000000  0.4246540000000  0.5546180000000 1.0
C      1  0.4485170000000  0.4999790000000  0.4998280000000 1.0
C      1  0.5131730000000  0.4999790000000  0.4998280000000 1.0
C      1  0.4137130000000  0.4999790000000  0.4998280000000 1.0
C      1  0.4839260000000  0.4999790000000  0.4998280000000 1.0
C      1  0.5872790000000  0.4999790000000  0.4998280000000 1.0
END
