TITL C-862129-6180-103 -0.0206589710962477 125000 -869.317032496548 0 0 151 (C1) n - 1
REM
REM in /home/nfs/bkarasulu/CARBON/AIRSS/Generating-Clusters/TERSOFF/Higher-Symm/FIRE-HFTN
REM
REM
REM
REM
REM
REM ./C.cell (b20cbc046b6831c77cfcea5457e17084)
REM AIRSS Version 0.9.1 bugfix July 2018 build 013d7b7c2542+ Fri, 06 Jul 2018 19:26:36 +0100
REM compiler GCC version 9.2.1 20190827 (Red Hat 9.2.1-1)
REM options -cpp -mtune=generic -march=x86-64 -g -O0 -fpre-include=/usr/include/finclude/math-vector-fortran.h
REM seed 1136012146 -977101213 1158506124 -1353164120 2120045762 -1124159283 943838650 1180202666 -295541249 -2049820310 378668283 -1058336057 -57469618 1559153269 -338906668 785810759 -496775781 227587256 262760651 -619487218 2053447564 1807944298 -1557347505 1526017812 1895621422 429780989 -1940434419 -789976339 -2008647909 -2064167873 -1216244852 -1403177255 -1542672476
REM
CELL 1.54180   50.00000   50.00000   50.00000   90.00000   90.00000   90.00000
LATT -1
SFAC C  
C      1  0.4476300000000  0.5230460000000  0.4130830000000 1.0
C      1  0.4948360000000  0.4022580000000  0.5099020000000 1.0
C      1  0.4762320000000  0.4253100000000  0.5129630000000 1.0
C      1  0.5290060000000  0.4508450000000  0.5325930000000 1.0
C      1  0.4748650000000  0.5617570000000  0.3776670000000 1.0
C      1  0.5252430000000  0.4071500000000  0.4733640000000 1.0
C      1  0.3973100000000  0.4467200000000  0.5543060000000 1.0
C      1  0.4365550000000  0.5740720000000  0.4097930000000 1.0
C      1  0.4222780000000  0.4491030000000  0.4911970000000 1.0
C      1  0.4374820000000  0.5062840000000  0.5987730000000 1.0
C      1  0.4758640000000  0.6098880000000  0.5330400000000 1.0
C      1  0.4589520000000  0.4448240000000  0.6054720000000 1.0
C      1  0.4632630000000  0.4343730000000  0.4888630000000 1.0
C      1  0.5537140000000  0.5897430000000  0.5351670000000 1.0
C      1  0.5825740000000  0.4512270000000  0.4776780000000 1.0
C      1  0.4460340000000  0.4800590000000  0.4405750000000 1.0
C      1  0.4441610000000  0.5688970000000  0.5498330000000 1.0
C      1  0.4807210000000  0.4449050000000  0.5345700000000 1.0
C      1  0.5085440000000  0.5613590000000  0.5256270000000 1.0
C      1  0.5276150000000  0.4174860000000  0.4227910000000 1.0
C      1  0.4050940000000  0.5392320000000  0.4342730000000 1.0
C      1  0.3990030000000  0.4909550000000  0.4703860000000 1.0
C      1  0.5898360000000  0.5128720000000  0.4694390000000 1.0
C      1  0.5208230000000  0.5034340000000  0.5677560000000 1.0
C      1  0.5350430000000  0.4021330000000  0.4463170000000 1.0
C      1  0.5582590000000  0.4711590000000  0.4829900000000 1.0
C      1  0.4366680000000  0.5290430000000  0.5773800000000 1.0
C      1  0.5380890000000  0.5981930000000  0.4431460000000 1.0
C      1  0.5877490000000  0.4567660000000  0.5760520000000 1.0
C      1  0.5427520000000  0.5216460000000  0.4981550000000 1.0
C      1  0.5048650000000  0.5953680000000  0.5731280000000 1.0
C      1  0.5352550000000  0.4570130000000  0.5820530000000 1.0
C      1  0.4009740000000  0.5292120000000  0.5047320000000 1.0
C      1  0.4971620000000  0.4893110000000  0.5247440000000 1.0
C      1  0.4418710000000  0.5071200000000  0.5087110000000 1.0
C      1  0.5592030000000  0.4834870000000  0.4370770000000 1.0
C      1  0.6063990000000  0.4664490000000  0.4611450000000 1.0
C      1  0.4102000000000  0.4915520000000  0.5630420000000 1.0
C      1  0.4261540000000  0.4613600000000  0.5166190000000 1.0
C      1  0.5300320000000  0.4308100000000  0.4894190000000 1.0
C      1  0.5878160000000  0.4838870000000  0.5099360000000 1.0
C      1  0.4913990000000  0.3853550000000  0.4853100000000 1.0
C      1  0.5615570000000  0.5047160000000  0.4154080000000 1.0
C      1  0.4930350000000  0.5057220000000  0.4272700000000 1.0
C      1  0.5170780000000  0.3971260000000  0.5320710000000 1.0
C      1  0.4485680000000  0.4372090000000  0.4174000000000 1.0
C      1  0.5122220000000  0.6044190000000  0.4864680000000 1.0
C      1  0.5176030000000  0.4711020000000  0.5136330000000 1.0
C      1  0.5608330000000  0.5486680000000  0.5788590000000 1.0
C      1  0.4167290000000  0.5191650000000  0.5537640000000 1.0
C      1  0.5508820000000  0.4039100000000  0.5255770000000 1.0
C      1  0.5008100000000  0.5203760000000  0.4967980000000 1.0
C      1  0.4470970000000  0.4806460000000  0.5192470000000 1.0
C      1  0.4665380000000  0.5985890000000  0.5073300000000 1.0
C      1  0.4624290000000  0.4948630000000  0.4624560000000 1.0
C      1  0.5221060000000  0.5201770000000  0.5920500000000 1.0
C      1  0.4539150000000  0.4433010000000  0.6341480000000 1.0
C      1  0.6023610000000  0.4608870000000  0.5241140000000 1.0
C      1  0.3792660000000  0.4590880000000  0.4893290000000 1.0
C      1  0.5414110000000  0.4300780000000  0.5154440000000 1.0
C      1  0.5066650000000  0.4403500000000  0.5479740000000 1.0
C      1  0.6039950000000  0.4943850000000  0.4484990000000 1.0
C      1  0.5190130000000  0.5479510000000  0.3983830000000 1.0
C      1  0.5293150000000  0.5620890000000  0.4712590000000 1.0
C      1  0.4043180000000  0.4604780000000  0.4690190000000 1.0
C      1  0.5531110000000  0.5232970000000  0.5244460000000 1.0
C      1  0.5649730000000  0.4925810000000  0.4638510000000 1.0
C      1  0.5894750000000  0.4742500000000  0.5507800000000 1.0
C      1  0.5097610000000  0.4130550000000  0.5575320000000 1.0
C      1  0.5758620000000  0.5213190000000  0.5750310000000 1.0
C      1  0.5670800000000  0.5461990000000  0.5341670000000 1.0
C      1  0.4074740000000  0.5510690000000  0.4847730000000 1.0
C      1  0.5097840000000  0.5875100000000  0.4378770000000 1.0
C      1  0.4344470000000  0.5631320000000  0.4871810000000 1.0
C      1  0.6020660000000  0.5255540000000  0.5235980000000 1.0
C      1  0.4539000000000  0.5160370000000  0.4826130000000 1.0
C      1  0.5927880000000  0.5557120000000  0.5203270000000 1.0
C      1  0.5110930000000  0.4540860000000  0.6004050000000 1.0
C      1  0.5705660000000  0.5359970000000  0.4586680000000 1.0
C      1  0.3945490000000  0.5519690000000  0.4584740000000 1.0
C      1  0.5482070000000  0.5409570000000  0.4775090000000 1.0
C      1  0.4055480000000  0.5096060000000  0.4311300000000 1.0
C      1  0.5810420000000  0.4107710000000  0.5151330000000 1.0
C      1  0.4322280000000  0.4993650000000  0.4232560000000 1.0
C      1  0.4914220000000  0.4115540000000  0.5805830000000 1.0
C      1  0.4859310000000  0.5616600000000  0.4776380000000 1.0
C      1  0.4575290000000  0.5469780000000  0.4779560000000 1.0
C      1  0.5361980000000  0.4922660000000  0.4029170000000 1.0
C      1  0.4253120000000  0.4819160000000  0.5868940000000 1.0
C      1  0.5332010000000  0.5472350000000  0.5926590000000 1.0
C      1  0.5052030000000  0.5108390000000  0.5439170000000 1.0
C      1  0.5353490000000  0.5918930000000  0.4735450000000 1.0
C      1  0.5236880000000  0.5924600000000  0.5259040000000 1.0
C      1  0.5605680000000  0.4981620000000  0.5846430000000 1.0
C      1  0.5600690000000  0.4771880000000  0.5427390000000 1.0
C      1  0.4732120000000  0.4731360000000  0.5296460000000 1.0
C      1  0.4904320000000  0.5434530000000  0.3940660000000 1.0
C      1  0.4855900000000  0.5478770000000  0.5732600000000 1.0
C      1  0.4187290000000  0.4364960000000  0.5719310000000 1.0
C      1  0.5724710000000  0.4379170000000  0.4527400000000 1.0
C      1  0.5540540000000  0.5292690000000  0.4326880000000 1.0
C      1  0.5574160000000  0.4833410000000  0.5122450000000 1.0
C      1  0.5299820000000  0.4693530000000  0.4636750000000 1.0
C      1  0.5165160000000  0.4566820000000  0.4862810000000 1.0
C      1  0.5027000000000  0.6047230000000  0.5448640000000 1.0
C      1  0.4645040000000  0.5305410000000  0.5351440000000 1.0
C      1  0.4544880000000  0.5559030000000  0.5745310000000 1.0
C      1  0.4644800000000  0.4604910000000  0.4259000000000 1.0
C      1  0.4363300000000  0.4542850000000  0.5872970000000 1.0
C      1  0.3804320000000  0.4778200000000  0.5141210000000 1.0
C      1  0.4392170000000  0.4223240000000  0.4441160000000 1.0
C      1  0.4312710000000  0.5475700000000  0.4201960000000 1.0
C      1  0.5601670000000  0.4542340000000  0.4317070000000 1.0
C      1  0.5526810000000  0.5744980000000  0.4308570000000 1.0
C      1  0.4275400000000  0.4550790000000  0.4491260000000 1.0
C      1  0.5412720000000  0.4822050000000  0.5668280000000 1.0
C      1  0.4865490000000  0.5905520000000  0.4878720000000 1.0
C      1  0.4397130000000  0.5870430000000  0.5037240000000 1.0
C      1  0.4824530000000  0.5164820000000  0.5787640000000 1.0
C      1  0.5136070000000  0.4615250000000  0.4382430000000 1.0
C      1  0.4864640000000  0.4498990000000  0.4445230000000 1.0
C      1  0.5764090000000  0.5631070000000  0.4451420000000 1.0
C      1  0.5316410000000  0.5503550000000  0.4249770000000 1.0
C      1  0.5546330000000  0.5640020000000  0.5533370000000 1.0
C      1  0.5414290000000  0.4411490000000  0.4143050000000 1.0
C      1  0.4920490000000  0.5384310000000  0.5425140000000 1.0
C      1  0.4867070000000  0.4368300000000  0.5951850000000 1.0
C      1  0.5011530000000  0.5480820000000  0.4994790000000 1.0
C      1  0.3890020000000  0.5032680000000  0.4953410000000 1.0
C      1  0.4232200000000  0.5264370000000  0.5245970000000 1.0
C      1  0.5622820000000  0.4450000000000  0.5869920000000 1.0
C      1  0.4545980000000  0.5799450000000  0.3878000000000 1.0
C      1  0.4584840000000  0.5144030000000  0.5601350000000 1.0
C      1  0.5063020000000  0.5581810000000  0.4495960000000 1.0
C      1  0.4435340000000  0.5506240000000  0.5263250000000 1.0
C      1  0.4886610000000  0.3955660000000  0.4563650000000 1.0
C      1  0.4767490000000  0.4547390000000  0.4729710000000 1.0
C      1  0.5907400000000  0.4382690000000  0.5052250000000 1.0
C      1  0.5946330000000  0.5099010000000  0.5511960000000 1.0
C      1  0.5942260000000  0.4990310000000  0.4199820000000 1.0
C      1  0.4743100000000  0.4197780000000  0.4456270000000 1.0
C      1  0.5776910000000  0.5837960000000  0.5174930000000 1.0
C      1  0.6003430000000  0.5077300000000  0.4991920000000 1.0
C      1  0.5234710000000  0.4974630000000  0.4596390000000 1.0
C      1  0.5253920000000  0.5612140000000  0.5538380000000 1.0
C      1  0.4019080000000  0.4649370000000  0.5316940000000 1.0
C      1  0.4769810000000  0.5228590000000  0.4098420000000 1.0
C      1  0.5123770000000  0.4847770000000  0.4188500000000 1.0
C      1  0.4441990000000  0.4173420000000  0.4747770000000 1.0
C      1  0.5099330000000  0.5657250000000  0.5801350000000 1.0
C      1  0.5009750000000  0.5087840000000  0.4713870000000 1.0
END
