TITL C-862131-2149-214 428.572596234508 125000 -650.035729232612 0 0 112 (C2h) n - 1
REM
REM in /home/nfs/bkarasulu/CARBON/AIRSS/Generating-Clusters/TERSOFF/Higher-Symm/FIRE-HFTN
REM
REM
REM
REM
REM
REM ./C.cell (b20cbc046b6831c77cfcea5457e17084)
REM AIRSS Version 0.9.1 bugfix July 2018 build 013d7b7c2542+ Fri, 06 Jul 2018 19:26:36 +0100
REM compiler GCC version 9.2.1 20190827 (Red Hat 9.2.1-1)
REM options -cpp -mtune=generic -march=x86-64 -g -O0 -fpre-include=/usr/include/finclude/math-vector-fortran.h
REM seed -2023690998 2075750493 548575894 471035814 -211035510 605087328 -1703108096 -298503930 1271136906 443411275 -162154843 891196671 395582040 275222536 1884419350 -1592960085 1613333231 -206117573 350267429 -1356507013 1254175715 57902901 959678079 -1473530484 -482793089 -803819457 -1517656810 -727736577 -164875609 -142524553 1570067793 1728390653 1690281898
REM
CELL 1.54180   50.00000   50.00000   50.00000   90.00000   90.00000   90.00000
LATT -1
SFAC C  
C      1  0.5366200000000  0.5783230000000  0.4861310000000 1.0
C      1  0.5366200000000  0.4216770000000  0.5138690000000 1.0
C      1  0.4633800000000  0.5783230000000  0.4861310000000 1.0
C      1  0.4633800000000  0.4216770000000  0.5138690000000 1.0
C      1  0.5447560000000  0.4306690000000  0.4886440000000 1.0
C      1  0.5447560000000  0.5693310000000  0.5113560000000 1.0
C      1  0.4552440000000  0.4306690000000  0.4886440000000 1.0
C      1  0.4552440000000  0.5693310000000  0.5113560000000 1.0
C      1  0.5148930000000  0.4640340000000  0.4190280000000 1.0
C      1  0.5148930000000  0.5359660000000  0.5809720000000 1.0
C      1  0.4851070000000  0.4640340000000  0.4190280000000 1.0
C      1  0.4851070000000  0.5359660000000  0.5809720000000 1.0
C      1  0.5150350000000  0.5353080000000  0.4166360000000 1.0
C      1  0.5150350000000  0.4646920000000  0.5833640000000 1.0
C      1  0.4849650000000  0.5353080000000  0.4166360000000 1.0
C      1  0.4849650000000  0.4646920000000  0.5833640000000 1.0
C      1  0.4519700000000  0.4818470000000  0.5159300000000 1.0
C      1  0.4519700000000  0.5181530000000  0.4840700000000 1.0
C      1  0.5480300000000  0.4818470000000  0.5159300000000 1.0
C      1  0.5480300000000  0.5181530000000  0.4840700000000 1.0
C      1  0.4520450000000  0.5133940000000  0.5163130000000 1.0
C      1  0.4520450000000  0.4866060000000  0.4836870000000 1.0
C      1  0.5479550000000  0.5133940000000  0.5163130000000 1.0
C      1  0.5479550000000  0.4866060000000  0.4836870000000 1.0
C      1  0.5316700000000  0.5317880000000  0.4639910000000 1.0
C      1  0.5316700000000  0.4682120000000  0.5360090000000 1.0
C      1  0.4683300000000  0.5317880000000  0.4639910000000 1.0
C      1  0.4683300000000  0.4682120000000  0.5360090000000 1.0
C      1  0.5314980000000  0.4727140000000  0.4650530000000 1.0
C      1  0.5314980000000  0.5272860000000  0.5349470000000 1.0
C      1  0.4685020000000  0.4727140000000  0.4650530000000 1.0
C      1  0.4685020000000  0.5272860000000  0.5349470000000 1.0
C      1  0.5811500000000  0.5492150000000  0.5173640000000 1.0
C      1  0.5811500000000  0.4507850000000  0.4826360000000 1.0
C      1  0.4188500000000  0.5492150000000  0.5173640000000 1.0
C      1  0.4188500000000  0.4507850000000  0.4826360000000 1.0
C      1  0.5824330000000  0.4464740000000  0.5174100000000 1.0
C      1  0.5824330000000  0.5535260000000  0.4825900000000 1.0
C      1  0.4175670000000  0.4464740000000  0.5174100000000 1.0
C      1  0.4175670000000  0.5535260000000  0.4825900000000 1.0
C      1  0.4680390000000  0.5162110000000  0.4353770000000 1.0
C      1  0.4680390000000  0.4837890000000  0.5646230000000 1.0
C      1  0.5319610000000  0.5162110000000  0.4353770000000 1.0
C      1  0.5319610000000  0.4837890000000  0.5646230000000 1.0
C      1  0.4679520000000  0.4848200000000  0.4359470000000 1.0
C      1  0.4679520000000  0.5151800000000  0.5640530000000 1.0
C      1  0.5320480000000  0.4848200000000  0.4359470000000 1.0
C      1  0.5320480000000  0.5151800000000  0.5640530000000 1.0
C      1  0.5261360000000  0.5616380000000  0.4655270000000 1.0
C      1  0.5261360000000  0.4383620000000  0.5344730000000 1.0
C      1  0.4738640000000  0.5616380000000  0.4655270000000 1.0
C      1  0.4738640000000  0.4383620000000  0.5344730000000 1.0
C      1  0.5277830000000  0.4437890000000  0.4697590000000 1.0
C      1  0.5277830000000  0.5562110000000  0.5302410000000 1.0
C      1  0.4722170000000  0.4437890000000  0.4697590000000 1.0
C      1  0.4722170000000  0.5562110000000  0.5302410000000 1.0
C      1  0.4405630000000  0.4715670000000  0.4284940000000 1.0
C      1  0.4405630000000  0.5284330000000  0.5715060000000 1.0
C      1  0.5594370000000  0.4715670000000  0.4284940000000 1.0
C      1  0.5594370000000  0.5284330000000  0.5715060000000 1.0
C      1  0.4402980000000  0.5294370000000  0.4298590000000 1.0
C      1  0.4402980000000  0.4705630000000  0.5701410000000 1.0
C      1  0.5597020000000  0.5294370000000  0.4298590000000 1.0
C      1  0.5597020000000  0.4705630000000  0.5701410000000 1.0
C      1  0.5296590000000  0.4367780000000  0.4253540000000 1.0
C      1  0.5296590000000  0.5632220000000  0.5746460000000 1.0
C      1  0.4703410000000  0.4367780000000  0.4253540000000 1.0
C      1  0.4703410000000  0.5632220000000  0.5746460000000 1.0
C      1  0.5299510000000  0.5629540000000  0.4205560000000 1.0
C      1  0.5299510000000  0.4370460000000  0.5794430000000 1.0
C      1  0.4700490000000  0.5629540000000  0.4205570000000 1.0
C      1  0.4700490000000  0.4370460000000  0.5794440000000 1.0
C      1  0.4407980000000  0.4415990000000  0.5668930000000 1.0
C      1  0.4407980000000  0.5584010000000  0.4331070000000 1.0
C      1  0.5592020000000  0.4415990000000  0.5668930000000 1.0
C      1  0.5592020000000  0.5584010000000  0.4331070000000 1.0
C      1  0.4402330000000  0.5572860000000  0.5667990000000 1.0
C      1  0.4402320000000  0.4427140000000  0.4332010000000 1.0
C      1  0.5597680000000  0.5572860000000  0.5667990000000 1.0
C      1  0.5597670000000  0.4427140000000  0.4332010000000 1.0
C      1  0.5737740000000  0.4329180000000  0.4583670000000 1.0
C      1  0.5737740000000  0.5670820000000  0.5416330000000 1.0
C      1  0.4262260000000  0.4329180000000  0.4583670000000 1.0
C      1  0.4262260000000  0.5670820000000  0.5416330000000 1.0
C      1  0.5684200000000  0.5698180000000  0.4600460000000 1.0
C      1  0.5684200000000  0.4301820000000  0.5399540000000 1.0
C      1  0.4315800000000  0.5698180000000  0.4600460000000 1.0
C      1  0.4315800000000  0.4301820000000  0.5399540000000 1.0
C      1  0.5143440000000  0.5746820000000  0.4424500000000 1.0
C      1  0.5143440000000  0.4253180000000  0.5575500000000 1.0
C      1  0.4856560000000  0.5746820000000  0.4424500000000 1.0
C      1  0.4856560000000  0.4253180000000  0.5575500000000 1.0
C      1  0.5144940000000  0.4278210000000  0.4492200000000 1.0
C      1  0.5144940000000  0.5721790000000  0.5507800000000 1.0
C      1  0.4855060000000  0.4278210000000  0.4492200000000 1.0
C      1  0.4855060000000  0.5721790000000  0.5507800000000 1.0
C      1  0.4173030000000  0.4852440000000  0.5785790000000 1.0
C      1  0.4173030000000  0.5147560000000  0.4214210000000 1.0
C      1  0.5826970000000  0.4852440000000  0.5785790000000 1.0
C      1  0.5826970000000  0.5147560000000  0.4214210000000 1.0
C      1  0.4175560000000  0.5134700000000  0.5795490000000 1.0
C      1  0.4175560000000  0.4865300000000  0.4204510000000 1.0
C      1  0.5824440000000  0.5134700000000  0.5795490000000 1.0
C      1  0.5824440000000  0.4865300000000  0.4204510000000 1.0
C      1  0.5810390000000  0.5198100000000  0.4833510000000 1.0
C      1  0.5810390000000  0.4801900000000  0.5166490000000 1.0
C      1  0.4189610000000  0.5198100000000  0.4833510000000 1.0
C      1  0.4189610000000  0.4801900000000  0.5166490000000 1.0
C      1  0.5807810000000  0.4836930000000  0.4811860000000 1.0
C      1  0.5807810000000  0.5163070000000  0.5188140000000 1.0
C      1  0.4192190000000  0.4836930000000  0.4811860000000 1.0
C      1  0.4192190000000  0.5163070000000  0.5188140000000 1.0
END
