TITL C-862507-1800-1166 2.68074136502463 125000 -873.975845872912 0 0 151 (C2) n - 1
REM
REM in /home/nfs/bkarasulu/CARBON/AIRSS/Generating-Clusters/TERSOFF/Higher-Symm/FIRE-HFTN
REM
REM
REM
REM
REM
REM ./C.cell (b20cbc046b6831c77cfcea5457e17084)
REM AIRSS Version 0.9.1 bugfix July 2018 build 013d7b7c2542+ Fri, 06 Jul 2018 19:26:36 +0100
REM compiler GCC version 9.2.1 20190827 (Red Hat 9.2.1-1)
REM options -cpp -mtune=generic -march=x86-64 -g -O0 -fpre-include=/usr/include/finclude/math-vector-fortran.h
REM seed 84673856 671529858 1781861803 -108570650 399126516 -1323166706 1711066185 454615243 -882806848 430656230 195443581 -856946204 -2078543801 -1616986771 1559287927 -25822395 1407493141 -13881629 -436892893 -605019781 -1908419665 -954240108 921120071 519884143 409328750 970039995 -820324842 1942664764 -1618055759 -1733628256 -1627314435 1563796515 2029169046
REM
CELL 1.54180   50.00000   50.00000   50.00000   90.00000   90.00000   90.00000
LATT -1
SFAC C  
C      1  0.4068800000000  0.4367250000000  0.4812010000000 1.0
C      1  0.4062250000000  0.4828030000000  0.5604740000000 1.0
C      1  0.4101830000000  0.5613510000000  0.5185250000000 1.0
C      1  0.4096700000000  0.5187790000000  0.4359220000000 1.0
C      1  0.5918290000000  0.4367240000000  0.5185930000000 1.0
C      1  0.5924850000000  0.4828030000000  0.4393210000000 1.0
C      1  0.5885280000000  0.5613500000000  0.4812730000000 1.0
C      1  0.5890400000000  0.5187770000000  0.5638740000000 1.0
C      1  0.4322940000000  0.5207930000000  0.5814040000000 1.0
C      1  0.4311230000000  0.5833480000000  0.4785200000000 1.0
C      1  0.4304740000000  0.4765010000000  0.4167630000000 1.0
C      1  0.4309210000000  0.4160140000000  0.5208810000000 1.0
C      1  0.5664160000000  0.5207940000000  0.4183930000000 1.0
C      1  0.5675880000000  0.5833470000000  0.5212780000000 1.0
C      1  0.5682360000000  0.4764980000000  0.5830320000000 1.0
C      1  0.5677880000000  0.4160140000000  0.4789130000000 1.0
C      1  0.5888500000000  0.4635090000000  0.4593880000000 1.0
C      1  0.5883400000000  0.4578850000000  0.5370580000000 1.0
C      1  0.5823900000000  0.5379570000000  0.5441380000000 1.0
C      1  0.5768830000000  0.5434820000000  0.4628670000000 1.0
C      1  0.4098600000000  0.4635090000000  0.5404070000000 1.0
C      1  0.4103690000000  0.4578870000000  0.4627370000000 1.0
C      1  0.4163200000000  0.5379590000000  0.4556590000000 1.0
C      1  0.4218270000000  0.5434820000000  0.5369300000000 1.0
C      1  0.4948880000000  0.4751180000000  0.3953030000000 1.0
C      1  0.4939750000000  0.3966950000000  0.5275080000000 1.0
C      1  0.4956370000000  0.5284240000000  0.6018030000000 1.0
C      1  0.4924300000000  0.6023150000000  0.4724350000000 1.0
C      1  0.5038220000000  0.4751150000000  0.6044920000000 1.0
C      1  0.5047330000000  0.3966950000000  0.4722850000000 1.0
C      1  0.5030730000000  0.5284260000000  0.3979940000000 1.0
C      1  0.5062810000000  0.6023140000000  0.5273630000000 1.0
C      1  0.4969000000000  0.5402950000000  0.5615470000000 1.0
C      1  0.4947050000000  0.5615450000000  0.4580650000000 1.0
C      1  0.4932010000000  0.4588260000000  0.4417570000000 1.0
C      1  0.4946100000000  0.4392590000000  0.5393780000000 1.0
C      1  0.5018100000000  0.5402970000000  0.4382500000000 1.0
C      1  0.5040060000000  0.5615440000000  0.5417320000000 1.0
C      1  0.5055080000000  0.4588240000000  0.5580380000000 1.0
C      1  0.5040990000000  0.4392600000000  0.4604160000000 1.0
C      1  0.5500220000000  0.5439820000000  0.4286140000000 1.0
C      1  0.5519920000000  0.4246510000000  0.4538590000000 1.0
C      1  0.5529950000000  0.4524350000000  0.5724260000000 1.0
C      1  0.5517050000000  0.5747520000000  0.5456320000000 1.0
C      1  0.4486880000000  0.5439810000000  0.5711830000000 1.0
C      1  0.4467170000000  0.4246510000000  0.5459350000000 1.0
C      1  0.4457140000000  0.4524370000000  0.4273690000000 1.0
C      1  0.4470060000000  0.5747540000000  0.4541650000000 1.0
C      1  0.4899620000000  0.4851350000000  0.5575820000000 1.0
C      1  0.4863890000000  0.5623910000000  0.5163960000000 1.0
C      1  0.4819160000000  0.5166030000000  0.4351560000000 1.0
C      1  0.4850530000000  0.4372960000000  0.4845790000000 1.0
C      1  0.5087470000000  0.4851370000000  0.4422130000000 1.0
C      1  0.5123220000000  0.5623920000000  0.4834020000000 1.0
C      1  0.5167940000000  0.5166010000000  0.5646410000000 1.0
C      1  0.5136560000000  0.4372950000000  0.5152160000000 1.0
C      1  0.5192400000000  0.5961570000000  0.4594420000000 1.0
C      1  0.5186480000000  0.4620860000000  0.4085290000000 1.0
C      1  0.5194110000000  0.4054880000000  0.5420060000000 1.0
C      1  0.5209550000000  0.5445030000000  0.5957110000000 1.0
C      1  0.4794710000000  0.5961560000000  0.5403560000000 1.0
C      1  0.4800610000000  0.4620840000000  0.5912660000000 1.0
C      1  0.4792980000000  0.4054890000000  0.4577870000000 1.0
C      1  0.4777560000000  0.5445060000000  0.4040860000000 1.0
C      1  0.5316210000000  0.5571560000000  0.5363360000000 1.0
C      1  0.5287360000000  0.5331810000000  0.4437330000000 1.0
C      1  0.5326400000000  0.4428270000000  0.4642930000000 1.0
C      1  0.5338410000000  0.4617280000000  0.5537300000000 1.0
C      1  0.4670900000000  0.5571570000000  0.4634610000000 1.0
C      1  0.4699750000000  0.5331800000000  0.5560640000000 1.0
C      1  0.4660690000000  0.4428270000000  0.5355020000000 1.0
C      1  0.4648690000000  0.4617300000000  0.4460650000000 1.0
C      1  0.5174670000000  0.3722860000000  0.4622270000000 1.0
C      1  0.5108170000000  0.4666800000000  0.6315460000000 1.0
C      1  0.5222210000000  0.6233170000000  0.5401730000000 1.0
C      1  0.5169690000000  0.5351550000000  0.3730840000000 1.0
C      1  0.4812410000000  0.3722850000000  0.5375660000000 1.0
C      1  0.4878930000000  0.4666830000000  0.3682500000000 1.0
C      1  0.4764900000000  0.6233190000000  0.4596260000000 1.0
C      1  0.4817410000000  0.5351530000000  0.6267130000000 1.0
C      1  0.5460010000000  0.5837970000000  0.5729390000000 1.0
C      1  0.5473410000000  0.5724780000000  0.4226000000000 1.0
C      1  0.5478230000000  0.4219030000000  0.4248120000000 1.0
C      1  0.5465770000000  0.4256570000000  0.5816790000000 1.0
C      1  0.4527100000000  0.5838000000000  0.4268590000000 1.0
C      1  0.4513690000000  0.5724760000000  0.5771980000000 1.0
C      1  0.4508860000000  0.4219020000000  0.5749820000000 1.0
C      1  0.4521320000000  0.4256590000000  0.4181150000000 1.0
C      1  0.5381320000000  0.5369510000000  0.5177500000000 1.0
C      1  0.5343430000000  0.5151030000000  0.4652690000000 1.0
C      1  0.5415600000000  0.4623930000000  0.4825420000000 1.0
C      1  0.5416680000000  0.4823400000000  0.5364870000000 1.0
C      1  0.4605780000000  0.5369520000000  0.4820460000000 1.0
C      1  0.4643670000000  0.5151030000000  0.5345270000000 1.0
C      1  0.4571490000000  0.4623930000000  0.5172540000000 1.0
C      1  0.4570420000000  0.4823410000000  0.4633080000000 1.0
C      1  0.4764460000000  0.4637650000000  0.4955340000000 1.0
C      1  0.4923200000000  0.4986560000000  0.5262670000000 1.0
C      1  0.4826500000000  0.5354460000000  0.5030390000000 1.0
C      1  0.4769200000000  0.5043860000000  0.4616600000000 1.0
C      1  0.5222630000000  0.4637650000000  0.5042610000000 1.0
C      1  0.5063900000000  0.4986570000000  0.4735290000000 1.0
C      1  0.5160600000000  0.5354460000000  0.4967580000000 1.0
C      1  0.5217900000000  0.5043840000000  0.5381360000000 1.0
C      1  0.5203220000000  0.5888410000000  0.5007840000000 1.0
C      1  0.5174480000000  0.5039980000000  0.4157420000000 1.0
C      1  0.5202440000000  0.4107140000000  0.4979010000000 1.0
C      1  0.5221930000000  0.4977440000000  0.5910330000000 1.0
C      1  0.4783890000000  0.5888410000000  0.4990140000000 1.0
C      1  0.4812620000000  0.5039960000000  0.5840540000000 1.0
C      1  0.4784650000000  0.4107140000000  0.5018930000000 1.0
C      1  0.4765170000000  0.4977460000000  0.4087630000000 1.0
C      1  0.4199260000000  0.5072430000000  0.5580580000000 1.0
C      1  0.4180240000000  0.5597580000000  0.4915160000000 1.0
C      1  0.4176080000000  0.4918900000000  0.4391750000000 1.0
C      1  0.4176110000000  0.4390440000000  0.5071680000000 1.0
C      1  0.5787840000000  0.5072440000000  0.4417380000000 1.0
C      1  0.5806860000000  0.5597570000000  0.5082820000000 1.0
C      1  0.5811010000000  0.4918870000000  0.5606210000000 1.0
C      1  0.5810980000000  0.4390430000000  0.4926270000000 1.0
C      1  0.4755430000000  0.5879870000000  0.5691380000000 1.0
C      1  0.4766360000000  0.5735610000000  0.4122240000000 1.0
C      1  0.4768580000000  0.4125120000000  0.4279760000000 1.0
C      1  0.4758780000000  0.4319610000000  0.5875400000000 1.0
C      1  0.5231680000000  0.5879880000000  0.4306600000000 1.0
C      1  0.5220750000000  0.5735590000000  0.5875740000000 1.0
C      1  0.5218510000000  0.4125100000000  0.5718170000000 1.0
C      1  0.5228310000000  0.4319630000000  0.4122550000000 1.0
C      1  0.4272600000000  0.4679280000000  0.5150380000000 1.0
C      1  0.4330920000000  0.5144300000000  0.5294540000000 1.0
C      1  0.4301180000000  0.5312800000000  0.4834030000000 1.0
C      1  0.4271020000000  0.4842150000000  0.4683970000000 1.0
C      1  0.5714500000000  0.4679280000000  0.4847570000000 1.0
C      1  0.5656180000000  0.5144300000000  0.4703420000000 1.0
C      1  0.5685920000000  0.5312790000000  0.5163940000000 1.0
C      1  0.5716070000000  0.4842140000000  0.5313990000000 1.0
C      1  0.4482780000000  0.4938030000000  0.4012980000000 1.0
C      1  0.4499420000000  0.4027500000000  0.5027840000000 1.0
C      1  0.4527660000000  0.5026150000000  0.5926320000000 1.0
C      1  0.4495560000000  0.5960740000000  0.4978080000000 1.0
C      1  0.5504320000000  0.4938000000000  0.5984980000000 1.0
C      1  0.5487660000000  0.4027490000000  0.4970090000000 1.0
C      1  0.5459440000000  0.5026170000000  0.4071640000000 1.0
C      1  0.5491550000000  0.5960730000000  0.5019900000000 1.0
C      1  0.5009010000000  0.5901040000000  0.4115750000000 1.0
C      1  0.4978100000000  0.5901020000000  0.5882230000000 1.0
C      1  0.5003680000000  0.4129220000000  0.4101800000000 1.0
C      1  0.4983400000000  0.4129200000000  0.5896140000000 1.0
C      1  0.4221360000000  0.4998400000000  0.4990200000000 1.0
C      1  0.5765730000000  0.4998390000000  0.5007760000000 1.0
C      1  0.4993550000000  0.4829930000000  0.4998980000000 1.0
END
