TITL C-862129-6180-1093 0.00106474938496579 125000 -241.31836182539 0 0 47 (C3) n - 1
REM
REM in /home/nfs/bkarasulu/CARBON/AIRSS/Generating-Clusters/TERSOFF/Higher-Symm/FIRE-HFTN
REM
REM
REM
REM
REM
REM ./C.cell (b20cbc046b6831c77cfcea5457e17084)
REM AIRSS Version 0.9.1 bugfix July 2018 build 013d7b7c2542+ Fri, 06 Jul 2018 19:26:36 +0100
REM compiler GCC version 9.2.1 20190827 (Red Hat 9.2.1-1)
REM options -cpp -mtune=generic -march=x86-64 -g -O0 -fpre-include=/usr/include/finclude/math-vector-fortran.h
REM seed -922760171 1326325981 -251444695 1647045623 -1871743746 953074592 1167079199 -973820014 903339573 1260905405 -1842974352 309811955 1454397220 1193097714 -1155845449 -633763210 451404516 -161480373 -1092658806 -222815667 33792211 1510311838 -1280948681 1940709403 -1903978765 692634696 -428299380 514590257 -1224768317 933103654 1435348743 -1215588079 2095251105
REM
CELL 1.54180   50.00000   50.00000   50.00000   90.00000   90.00000   90.00000
LATT -1
SFAC C  
C      1  0.5000970000000  0.5291860000000  0.5671370000000 1.0
C      1  0.4425700000000  0.5291860000000  0.4678820000000 1.0
C      1  0.5572910000000  0.5291860000000  0.4676890000000 1.0
C      1  0.4301770000000  0.5284530000000  0.5224170000000 1.0
C      1  0.5162590000000  0.5284530000000  0.4296890000000 1.0
C      1  0.5535220000000  0.5284530000000  0.5506020000000 1.0
C      1  0.4952680000000  0.4714090000000  0.5312290000000 1.0
C      1  0.4760810000000  0.4714090000000  0.4816540000000 1.0
C      1  0.5286080000000  0.4714090000000  0.4898250000000 1.0
C      1  0.5050050000000  0.4475500000000  0.4536270000000 1.0
C      1  0.5384190000000  0.4475490000000  0.5288870000000 1.0
C      1  0.4565340000000  0.4475500000000  0.5201940000000 1.0
C      1  0.5520020000000  0.5362600000000  0.5203470000000 1.0
C      1  0.4571380000000  0.5362600000000  0.5362280000000 1.0
C      1  0.4908170000000  0.5362600000000  0.4461330000000 1.0
C      1  0.4761360000000  0.5622800000000  0.4965210000000 1.0
C      1  0.5157050000000  0.5622800000000  0.4824390000000 1.0
C      1  0.5081160000000  0.5622800000000  0.5237480000000 1.0
C      1  0.5324340000000  0.4952870000000  0.5360330000000 1.0
C      1  0.4533380000000  0.4952870000000  0.5114380000000 1.0
C      1  0.5141860000000  0.4952870000000  0.4552370000000 1.0
C      1  0.5643570000000  0.5211740000000  0.4966840000000 1.0
C      1  0.4714530000000  0.5211740000000  0.5587590000000 1.0
C      1  0.4641470000000  0.5211740000000  0.4472640000000 1.0
C      1  0.5014490000000  0.4837250000000  0.5617370000000 1.0
C      1  0.4465700000000  0.4837250000000  0.4717530000000 1.0
C      1  0.5519380000000  0.4837250000000  0.4692180000000 1.0
C      1  0.5649930000000  0.4911500000000  0.4968740000000 1.0
C      1  0.4709710000000  0.4911500000000  0.5592150000000 1.0
C      1  0.4639930000000  0.4911500000000  0.4466190000000 1.0
C      1  0.5227620000000  0.5383310000000  0.5162060000000 1.0
C      1  0.4753450000000  0.5383310000000  0.5129750000000 1.0
C      1  0.5018510000000  0.5383310000000  0.4735270000000 1.0
C      1  0.5482790000000  0.4749450000000  0.5198750000000 1.0
C      1  0.4594090000000  0.4749450000000  0.5332400000000 1.0
C      1  0.4922690000000  0.4749450000000  0.4495940000000 1.0
C      1  0.4308180000000  0.5090610000000  0.4920030000000 1.0
C      1  0.5422770000000  0.5090610000000  0.4454520000000 1.0
C      1  0.5268620000000  0.5090610000000  0.5652530000000 1.0
C      1  0.4730260000000  0.4442980000000  0.4961130000000 1.0
C      1  0.5176130000000  0.4442980000000  0.4799500000000 1.0
C      1  0.5093180000000  0.4442980000000  0.5266450000000 1.0
C      1  0.5135420000000  0.5106110000000  0.5209960000000 1.0
C      1  0.4758060000000  0.5106110000000  0.5025960000000 1.0
C      1  0.5106090000000  0.5106110000000  0.4791160000000 1.0
C      1  0.4999860000000  0.4328410000000  0.5009030000000 1.0
C      1  0.4999860000000  0.4910710000000  0.5009030000000 1.0
END
