TITL C-862500-986-1272 249.465714601075 125000 -710.004565138021 0 0 131 (C1) n - 1
REM
REM in /home/nfs/bkarasulu/CARBON/AIRSS/Generating-Clusters/TERSOFF/Higher-Symm/FIRE-HFTN
REM
REM
REM
REM
REM
REM ./C.cell (b20cbc046b6831c77cfcea5457e17084)
REM AIRSS Version 0.9.1 bugfix July 2018 build 013d7b7c2542+ Fri, 06 Jul 2018 19:26:36 +0100
REM compiler GCC version 9.2.1 20190827 (Red Hat 9.2.1-1)
REM options -cpp -mtune=generic -march=x86-64 -g -O0 -fpre-include=/usr/include/finclude/math-vector-fortran.h
REM seed -1296765583 1194775914 1090129024 -886764714 -756661790 -1103993516 759251641 2046385685 960819767 -1468990306 -1878538318 2038948331 -352222878 -2096691874 -1496262340 683340713 -1829720038 2121213068 -103036382 1829852475 -28242498 -2067909189 1062390215 -779059790 -882072174 -719494154 985909214 -242012775 -1773018674 2076715275 689789400 1997132491 698902064
REM
CELL 1.54180   50.00000   50.00000   50.00000   90.00000   90.00000   90.00000
LATT -1
SFAC C  
C      1  0.5395820000000  0.4820950000000  0.4596990000000 1.0
C      1  0.5290950000000  0.5264810000000  0.4792110000000 1.0
C      1  0.5354930000000  0.5356940000000  0.5212480000000 1.0
C      1  0.5316810000000  0.4918720000000  0.5358620000000 1.0
C      1  0.5325220000000  0.4582360000000  0.5052360000000 1.0
C      1  0.4654750000000  0.5935910000000  0.5149920000000 1.0
C      1  0.4694870000000  0.5137710000000  0.5968860000000 1.0
C      1  0.4669830000000  0.4120680000000  0.5433430000000 1.0
C      1  0.4643830000000  0.4369550000000  0.4349790000000 1.0
C      1  0.4673140000000  0.5418680000000  0.4155320000000 1.0
C      1  0.5445060000000  0.4278590000000  0.5418550000000 1.0
C      1  0.5453250000000  0.4349050000000  0.4428530000000 1.0
C      1  0.5413170000000  0.5307900000000  0.4301080000000 1.0
C      1  0.5446340000000  0.5827810000000  0.5097210000000 1.0
C      1  0.5427350000000  0.5160750000000  0.5780260000000 1.0
C      1  0.5756520000000  0.5267050000000  0.4678380000000 1.0
C      1  0.5797180000000  0.5465650000000  0.5190220000000 1.0
C      1  0.5777600000000  0.4977390000000  0.5454420000000 1.0
C      1  0.5773520000000  0.4535250000000  0.5121750000000 1.0
C      1  0.5802170000000  0.4715740000000  0.4587120000000 1.0
C      1  0.5856080000000  0.5280450000000  0.5433810000000 1.0
C      1  0.5852200000000  0.4680630000000  0.5387430000000 1.0
C      1  0.5852830000000  0.4515410000000  0.4821370000000 1.0
C      1  0.5848470000000  0.5018260000000  0.4512730000000 1.0
C      1  0.5852280000000  0.5482320000000  0.4882420000000 1.0
C      1  0.4323860000000  0.5332500000000  0.4581520000000 1.0
C      1  0.4307810000000  0.5543030000000  0.5283550000000 1.0
C      1  0.4310360000000  0.4904720000000  0.5654540000000 1.0
C      1  0.4291230000000  0.4385570000000  0.5131890000000 1.0
C      1  0.4322150000000  0.4791230000000  0.4556600000000 1.0
C      1  0.4724480000000  0.4902410000000  0.4275600000000 1.0
C      1  0.4721770000000  0.5670790000000  0.4662030000000 1.0
C      1  0.4725590000000  0.5531740000000  0.5555710000000 1.0
C      1  0.4729570000000  0.4620920000000  0.5700440000000 1.0
C      1  0.4703530000000  0.4244290000000  0.4869560000000 1.0
C      1  0.4980280000000  0.4344790000000  0.5250510000000 1.0
C      1  0.5004730000000  0.4591190000000  0.4493510000000 1.0
C      1  0.5001100000000  0.5367910000000  0.4460670000000 1.0
C      1  0.4992650000000  0.5645030000000  0.5189340000000 1.0
C      1  0.4988160000000  0.5025360000000  0.5656110000000 1.0
C      1  0.5380030000000  0.5640600000000  0.4555140000000 1.0
C      1  0.5388960000000  0.5668630000000  0.5505980000000 1.0
C      1  0.5384040000000  0.4743620000000  0.5759170000000 1.0
C      1  0.5376980000000  0.4165380000000  0.4991230000000 1.0
C      1  0.5383180000000  0.4733770000000  0.4186430000000 1.0
C      1  0.4940390000000  0.4309350000000  0.5887170000000 1.0
C      1  0.4970670000000  0.3979490000000  0.4568560000000 1.0
C      1  0.5023880000000  0.5090050000000  0.3897910000000 1.0
C      1  0.5005920000000  0.6074190000000  0.4746510000000 1.0
C      1  0.5028450000000  0.5575220000000  0.5964930000000 1.0
C      1  0.4903430000000  0.4207040000000  0.4357960000000 1.0
C      1  0.4948010000000  0.5353880000000  0.4044420000000 1.0
C      1  0.4924500000000  0.6035640000000  0.5051270000000 1.0
C      1  0.4969810000000  0.5268590000000  0.5997810000000 1.0
C      1  0.4925140000000  0.4144340000000  0.5615320000000 1.0
C      1  0.5130240000000  0.5656920000000  0.4400060000000 1.0
C      1  0.5122010000000  0.5790880000000  0.5464550000000 1.0
C      1  0.5130320000000  0.4830360000000  0.5880580000000 1.0
C      1  0.5113830000000  0.4083230000000  0.5092680000000 1.0
C      1  0.5107580000000  0.4621010000000  0.4171980000000 1.0
C      1  0.4470260000000  0.4182700000000  0.5634230000000 1.0
C      1  0.4432940000000  0.4198940000000  0.4437720000000 1.0
C      1  0.4485520000000  0.5256010000000  0.4010720000000 1.0
C      1  0.4452350000000  0.5982190000000  0.4950880000000 1.0
C      1  0.4498890000000  0.5347180000000  0.5971250000000 1.0
C      1  0.4247930000000  0.4623710000000  0.5588560000000 1.0
C      1  0.4219440000000  0.4365980000000  0.4845290000000 1.0
C      1  0.4227660000000  0.4950140000000  0.4296660000000 1.0
C      1  0.4251130000000  0.5562060000000  0.4769900000000 1.0
C      1  0.4252190000000  0.5407010000000  0.5542200000000 1.0
C      1  0.5016280000000  0.4364240000000  0.4730510000000 1.0
C      1  0.5035290000000  0.5072980000000  0.4344040000000 1.0
C      1  0.5022190000000  0.5671940000000  0.4865700000000 1.0
C      1  0.5027320000000  0.5335990000000  0.5587390000000 1.0
C      1  0.5027820000000  0.4538600000000  0.5514030000000 1.0
C      1  0.5353160000000  0.5443230000000  0.5711350000000 1.0
C      1  0.5359950000000  0.4461700000000  0.5643200000000 1.0
C      1  0.5350940000000  0.4223190000000  0.4688310000000 1.0
C      1  0.5358200000000  0.5038990000000  0.4176170000000 1.0
C      1  0.5357490000000  0.5806660000000  0.4809660000000 1.0
C      1  0.4134090000000  0.5219140000000  0.4378790000000 1.0
C      1  0.4152720000000  0.5504190000000  0.5038190000000 1.0
C      1  0.4154610000000  0.5134020000000  0.5555550000000 1.0
C      1  0.4145160000000  0.4547480000000  0.5328160000000 1.0
C      1  0.4134970000000  0.4597740000000  0.4688350000000 1.0
C      1  0.4575350000000  0.4274670000000  0.5169190000000 1.0
C      1  0.4598810000000  0.4674980000000  0.4433770000000 1.0
C      1  0.4591300000000  0.5454230000000  0.4460560000000 1.0
C      1  0.4588040000000  0.5663890000000  0.5294940000000 1.0
C      1  0.4598720000000  0.4915940000000  0.5763700000000 1.0
C      1  0.5516370000000  0.4380920000000  0.5155320000000 1.0
C      1  0.5550640000000  0.4624510000000  0.4416590000000 1.0
C      1  0.5487910000000  0.5350020000000  0.4591020000000 1.0
C      1  0.5530450000000  0.5594490000000  0.5250910000000 1.0
C      1  0.5507770000000  0.4957710000000  0.5576970000000 1.0
C      1  0.5063020000000  0.4491160000000  0.5001740000000 1.0
C      1  0.5115240000000  0.4861430000000  0.4556470000000 1.0
C      1  0.5040410000000  0.5388790000000  0.4752710000000 1.0
C      1  0.5080780000000  0.5375980000000  0.5288460000000 1.0
C      1  0.5053490000000  0.4834930000000  0.5434970000000 1.0
C      1  0.4449730000000  0.5779520000000  0.4751640000000 1.0
C      1  0.4473450000000  0.5479020000000  0.5721910000000 1.0
C      1  0.4464660000000  0.4459480000000  0.5696080000000 1.0
C      1  0.4429290000000  0.4204600000000  0.4720570000000 1.0
C      1  0.4469150000000  0.4995360000000  0.4124710000000 1.0
C      1  0.5710830000000  0.5444520000000  0.5656110000000 1.0
C      1  0.5716200000000  0.4527090000000  0.5621030000000 1.0
C      1  0.5707940000000  0.4252420000000  0.4748000000000 1.0
C      1  0.5713700000000  0.5022740000000  0.4232350000000 1.0
C      1  0.5715170000000  0.5743460000000  0.4785990000000 1.0
C      1  0.4992870000000  0.5924780000000  0.4466940000000 1.0
C      1  0.4991800000000  0.5795500000000  0.5744410000000 1.0
C      1  0.4999720000000  0.4594130000000  0.6020540000000 1.0
C      1  0.4968600000000  0.3919130000000  0.4879780000000 1.0
C      1  0.4968520000000  0.4789530000000  0.3953440000000 1.0
C      1  0.5572260000000  0.4920870000000  0.5025250000000 1.0
C      1  0.6074390000000  0.4984330000000  0.4944810000000 1.0
C      1  0.3345860000000  0.4959900000000  0.4928210000000 1.0
C      1  0.4829670000000  0.4908180000000  0.4860830000000 1.0
C      1  0.5313170000000  0.5032200000000  0.4950080000000 1.0
C      1  0.5817560000000  0.5072100000000  0.5045350000000 1.0
C      1  0.3855080000000  0.4953880000000  0.4866460000000 1.0
C      1  0.4118880000000  0.5049610000000  0.4937350000000 1.0
C      1  0.6586540000000  0.4966370000000  0.4968080000000 1.0
C      1  0.6843410000000  0.5079380000000  0.5038940000000 1.0
C      1  0.3107130000000  0.5028030000000  0.5077020000000 1.0
C      1  0.6330430000000  0.5081120000000  0.5038910000000 1.0
C      1  0.4601380000000  0.5071910000000  0.4905820000000 1.0
C      1  0.4353910000000  0.5060630000000  0.4749410000000 1.0
C      1  0.3616400000000  0.4994890000000  0.5024970000000 1.0
C      1  0.5064450000000  0.4910230000000  0.5023120000000 1.0
END
