TITL C-862127-1500-350 -0.000111032467865332 125000 -352.080359166254 0 0 61 (C1) n - 1
REM
REM in /home/nfs/bkarasulu/CARBON/AIRSS/Generating-Clusters/TERSOFF/Higher-Symm/FIRE-HFTN
REM
REM
REM
REM
REM
REM ./C.cell (b20cbc046b6831c77cfcea5457e17084)
REM AIRSS Version 0.9.1 bugfix July 2018 build 013d7b7c2542+ Fri, 06 Jul 2018 19:26:36 +0100
REM compiler GCC version 9.2.1 20190827 (Red Hat 9.2.1-1)
REM options -cpp -mtune=generic -march=x86-64 -g -O0 -fpre-include=/usr/include/finclude/math-vector-fortran.h
REM seed 1073019553 1798332229 -373881195 1934805361 -1523330154 -954444002 -1258160850 1491104731 -2133130001 -1321597739 180279633 658693601 -1926109192 -1385798302 -1695072264 256983395 -800580842 -1575910813 -1702496915 -1156406767 1139291618 -1943485733 1003699295 -131297113 -24186892 -1259683336 2002168380 -1285123146 722356781 689321906 -1867416424 -1895361193 -1998696847
REM
CELL 1.54180   50.00000   50.00000   50.00000   90.00000   90.00000   90.00000
LATT -1
SFAC C  
C      1  0.4566400000000  0.4596230000000  0.4763830000000 1.0
C      1  0.4524440000000  0.5041630000000  0.4442910000000 1.0
C      1  0.4551450000000  0.5394230000000  0.4768720000000 1.0
C      1  0.4491460000000  0.5514000000000  0.5275490000000 1.0
C      1  0.4554140000000  0.5002450000000  0.5510540000000 1.0
C      1  0.4484760000000  0.4511650000000  0.5316660000000 1.0
C      1  0.4636970000000  0.5740490000000  0.5116210000000 1.0
C      1  0.4765630000000  0.5105360000000  0.5325640000000 1.0
C      1  0.4642540000000  0.4514790000000  0.5589420000000 1.0
C      1  0.4772620000000  0.4679920000000  0.4960370000000 1.0
C      1  0.4666170000000  0.4796020000000  0.4319830000000 1.0
C      1  0.4755260000000  0.5186160000000  0.4801470000000 1.0
C      1  0.5035670000000  0.5142870000000  0.4257640000000 1.0
C      1  0.4996280000000  0.5625350000000  0.4743200000000 1.0
C      1  0.5003190000000  0.5573060000000  0.5430710000000 1.0
C      1  0.5023100000000  0.4867780000000  0.5692090000000 1.0
C      1  0.5005720000000  0.4333290000000  0.5284450000000 1.0
C      1  0.5014080000000  0.4483480000000  0.4554070000000 1.0
C      1  0.5454780000000  0.5174680000000  0.5509440000000 1.0
C      1  0.5462160000000  0.4641730000000  0.5404760000000 1.0
C      1  0.5459960000000  0.4475500000000  0.4897070000000 1.0
C      1  0.5460850000000  0.4837150000000  0.4483890000000 1.0
C      1  0.5454740000000  0.5359980000000  0.4606970000000 1.0
C      1  0.5442640000000  0.5531030000000  0.5109590000000 1.0
C      1  0.5344320000000  0.4865020000000  0.5623560000000 1.0
C      1  0.5312800000000  0.4394460000000  0.5217780000000 1.0
C      1  0.5338390000000  0.4531490000000  0.4570940000000 1.0
C      1  0.5323990000000  0.5134370000000  0.4375300000000 1.0
C      1  0.5319670000000  0.5604240000000  0.4800930000000 1.0
C      1  0.5305380000000  0.5489980000000  0.5415450000000 1.0
C      1  0.5687820000000  0.4707520000000  0.4941320000000 1.0
C      1  0.5702430000000  0.4910280000000  0.4711890000000 1.0
C      1  0.5683600000000  0.5209190000000  0.4776360000000 1.0
C      1  0.5688840000000  0.5306110000000  0.5064880000000 1.0
C      1  0.5682930000000  0.5102990000000  0.5290600000000 1.0
C      1  0.5702560000000  0.4802470000000  0.5230760000000 1.0
C      1  0.5283420000000  0.4915610000000  0.4731300000000 1.0
C      1  0.5244790000000  0.5191550000000  0.4783610000000 1.0
C      1  0.5270620000000  0.5272210000000  0.5058640000000 1.0
C      1  0.5248470000000  0.5087360000000  0.5280710000000 1.0
C      1  0.5283740000000  0.4812850000000  0.5209170000000 1.0
C      1  0.5257480000000  0.4717100000000  0.4938650000000 1.0
C      1  0.4294030000000  0.5284490000000  0.4864380000000 1.0
C      1  0.4306130000000  0.5285780000000  0.5163750000000 1.0
C      1  0.4322780000000  0.5010940000000  0.5313700000000 1.0
C      1  0.4316240000000  0.4751850000000  0.5163940000000 1.0
C      1  0.4337580000000  0.4764220000000  0.4849780000000 1.0
C      1  0.4339160000000  0.5025580000000  0.4702370000000 1.0
C      1  0.4758550000000  0.5246890000000  0.4386150000000 1.0
C      1  0.4686990000000  0.5656750000000  0.4838580000000 1.0
C      1  0.4748720000000  0.5392740000000  0.5370000000000 1.0
C      1  0.4705520000000  0.4788850000000  0.5668730000000 1.0
C      1  0.4750450000000  0.4487890000000  0.5170140000000 1.0
C      1  0.4708850000000  0.4573710000000  0.4500810000000 1.0
C      1  0.4884090000000  0.5806010000000  0.5274140000000 1.0
C      1  0.5012580000000  0.5048710000000  0.5443050000000 1.0
C      1  0.4883260000000  0.4338710000000  0.5562710000000 1.0
C      1  0.5015240000000  0.4604690000000  0.4837460000000 1.0
C      1  0.4903040000000  0.4886250000000  0.4167230000000 1.0
C      1  0.4996590000000  0.5316630000000  0.4724410000000 1.0
C      1  0.4750290000000  0.4991840000000  0.5028680000000 1.0
END
