TITL C-862507-1800-1051 -0.00257140348477068 125000 -629.041278476521 0 0 116 (C1) n - 1
REM
REM in /home/nfs/bkarasulu/CARBON/AIRSS/Generating-Clusters/TERSOFF/Higher-Symm/FIRE-HFTN
REM
REM
REM
REM
REM
REM ./C.cell (b20cbc046b6831c77cfcea5457e17084)
REM AIRSS Version 0.9.1 bugfix July 2018 build 013d7b7c2542+ Fri, 06 Jul 2018 19:26:36 +0100
REM compiler GCC version 9.2.1 20190827 (Red Hat 9.2.1-1)
REM options -cpp -mtune=generic -march=x86-64 -g -O0 -fpre-include=/usr/include/finclude/math-vector-fortran.h
REM seed 1232796713 1944042991 -1663312365 1356442153 2126861228 963589819 -1083900164 -1804109503 -1096462687 -1821421289 519213289 1102594774 -50458462 1991320816 -2014605887 -1929660463 -1803347857 -259393567 248782682 -2016148785 2063607715 -903372004 -2016419401 575520781 -1586263541 -1333631770 1972156325 2040805243 -1969169581 -1349216642 780301053 1223870264 -535495674
REM
CELL 1.54180   50.00000   50.00000   50.00000   90.00000   90.00000   90.00000
LATT -1
SFAC C  
C      1  0.5469800000000  0.4605090000000  0.5705720000000 1.0
C      1  0.5466690000000  0.4573700000000  0.4286480000000 1.0
C      1  0.5465040000000  0.5823280000000  0.4983810000000 1.0
C      1  0.5503720000000  0.4171310000000  0.5085950000000 1.0
C      1  0.5509640000000  0.5334630000000  0.4237470000000 1.0
C      1  0.5511570000000  0.5491750000000  0.5674940000000 1.0
C      1  0.5211130000000  0.4410500000000  0.4210330000000 1.0
C      1  0.5213330000000  0.5979620000000  0.4889220000000 1.0
C      1  0.5223350000000  0.4598760000000  0.5894680000000 1.0
C      1  0.5793030000000  0.5549470000000  0.5271880000000 1.0
C      1  0.5780540000000  0.4497410000000  0.5332950000000 1.0
C      1  0.5771000000000  0.4952270000000  0.4406440000000 1.0
C      1  0.5483330000000  0.5330010000000  0.5051090000000 1.0
C      1  0.5475130000000  0.4877890000000  0.5279920000000 1.0
C      1  0.5459220000000  0.4913510000000  0.4798500000000 1.0
C      1  0.4761310000000  0.4270990000000  0.5191150000000 1.0
C      1  0.4762570000000  0.5196390000000  0.4274700000000 1.0
C      1  0.4764320000000  0.5531870000000  0.5536370000000 1.0
C      1  0.5230650000000  0.5423000000000  0.4357500000000 1.0
C      1  0.5232480000000  0.5345070000000  0.5691350000000 1.0
C      1  0.5226690000000  0.4234540000000  0.4948740000000 1.0
C      1  0.4412390000000  0.5125550000000  0.5548850000000 1.0
C      1  0.4409530000000  0.4463430000000  0.4833560000000 1.0
C      1  0.4411710000000  0.5411450000000  0.4619800000000 1.0
C      1  0.4627970000000  0.5453840000000  0.5017180000000 1.0
C      1  0.4626450000000  0.4759190000000  0.5388750000000 1.0
C      1  0.4628630000000  0.4788810000000  0.4600170000000 1.0
C      1  0.4837470000000  0.4198930000000  0.5463850000000 1.0
C      1  0.4835250000000  0.4997880000000  0.4072500000000 1.0
C      1  0.4840850000000  0.5805070000000  0.5463560000000 1.0
C      1  0.4672320000000  0.4667970000000  0.5734200000000 1.0
C      1  0.4678350000000  0.4537790000000  0.4346840000000 1.0
C      1  0.4675070000000  0.5798670000000  0.4924560000000 1.0
C      1  0.4068380000000  0.5113850000000  0.5308810000000 1.0
C      1  0.4068080000000  0.4680300000000  0.4945240000000 1.0
C      1  0.4068000000000  0.5209510000000  0.4750880000000 1.0
C      1  0.5825530000000  0.5249750000000  0.4821210000000 1.0
C      1  0.5862900000000  0.5033030000000  0.5314750000000 1.0
C      1  0.5823630000000  0.4717420000000  0.4869400000000 1.0
C      1  0.4512210000000  0.5583520000000  0.4226810000000 1.0
C      1  0.4512080000000  0.5380200000000  0.5894500000000 1.0
C      1  0.4510040000000  0.4037840000000  0.4879660000000 1.0
C      1  0.5751970000000  0.4454260000000  0.4739090000000 1.0
C      1  0.5752660000000  0.5494120000000  0.4660370000000 1.0
C      1  0.5767880000000  0.5050960000000  0.5604870000000 1.0
C      1  0.4761180000000  0.5741510000000  0.4353990000000 1.0
C      1  0.4760280000000  0.5190400000000  0.5969580000000 1.0
C      1  0.4759300000000  0.4069730000000  0.4680260000000 1.0
C      1  0.4302970000000  0.5313220000000  0.4949830000000 1.0
C      1  0.4302690000000  0.4889290000000  0.5298620000000 1.0
C      1  0.4303560000000  0.4799770000000  0.4755980000000 1.0
C      1  0.5745060000000  0.5318440000000  0.5731430000000 1.0
C      1  0.5736770000000  0.4212340000000  0.4908630000000 1.0
C      1  0.5740990000000  0.5467700000000  0.4365500000000 1.0
C      1  0.5283690000000  0.4463500000000  0.5430490000000 1.0
C      1  0.5287720000000  0.4888550000000  0.4300040000000 1.0
C      1  0.5292420000000  0.5654030000000  0.5251950000000 1.0
C      1  0.5171770000000  0.5153390000000  0.4527650000000 1.0
C      1  0.5161570000000  0.5336010000000  0.5375790000000 1.0
C      1  0.5167170000000  0.4519900000000  0.5087590000000 1.0
C      1  0.4335150000000  0.5694280000000  0.4592430000000 1.0
C      1  0.4333250000000  0.5009070000000  0.5807300000000 1.0
C      1  0.4335290000000  0.4300430000000  0.4600190000000 1.0
C      1  0.5295860000000  0.5654950000000  0.4534950000000 1.0
C      1  0.5299490000000  0.5073420000000  0.5796470000000 1.0
C      1  0.5293620000000  0.4269230000000  0.4658700000000 1.0
C      1  0.4249860000000  0.4364390000000  0.5277860000000 1.0
C      1  0.4250490000000  0.5078190000000  0.4311390000000 1.0
C      1  0.4252080000000  0.5559870000000  0.5413310000000 1.0
C      1  0.5510940000000  0.5657260000000  0.4732650000000 1.0
C      1  0.5518150000000  0.4904980000000  0.5696740000000 1.0
C      1  0.5511700000000  0.4436230000000  0.4557630000000 1.0
C      1  0.5203200000000  0.5308680000000  0.4852460000000 1.0
C      1  0.5186340000000  0.4977000000000  0.5353830000000 1.0
C      1  0.5214330000000  0.4731700000000  0.4797990000000 1.0
C      1  0.4135150000000  0.4989740000000  0.4565460000000 1.0
C      1  0.4135790000000  0.5383850000000  0.5210290000000 1.0
C      1  0.4134880000000  0.4629040000000  0.5228060000000 1.0
C      1  0.5551540000000  0.5624760000000  0.5417240000000 1.0
C      1  0.5543040000000  0.4329930000000  0.5328900000000 1.0
C      1  0.5546480000000  0.5043870000000  0.4248510000000 1.0
C      1  0.5757880000000  0.4966020000000  0.4697360000000 1.0
C      1  0.5809850000000  0.5279600000000  0.5134650000000 1.0
C      1  0.5785430000000  0.4750950000000  0.5178510000000 1.0
C      1  0.4980110000000  0.5784870000000  0.4849910000000 1.0
C      1  0.4978440000000  0.4734290000000  0.5766510000000 1.0
C      1  0.4982900000000  0.4478630000000  0.4403010000000 1.0
C      1  0.4941650000000  0.5454000000000  0.4232080000000 1.0
C      1  0.4942220000000  0.5438130000000  0.5781210000000 1.0
C      1  0.4941410000000  0.4104020000000  0.4989740000000 1.0
C      1  0.5102280000000  0.4253740000000  0.5558440000000 1.0
C      1  0.5100560000000  0.4889400000000  0.4061640000000 1.0
C      1  0.5106370000000  0.5864970000000  0.5371300000000 1.0
C      1  0.4464340000000  0.5451950000000  0.5594620000000 1.0
C      1  0.4461360000000  0.4260210000000  0.5093130000000 1.0
C      1  0.4463450000000  0.5288300000000  0.4314530000000 1.0
C      1  0.4565360000000  0.4244320000000  0.4428760000000 1.0
C      1  0.4564070000000  0.5872000000000  0.4628620000000 1.0
C      1  0.4561360000000  0.4888760000000  0.5943960000000 1.0
C      1  0.4720340000000  0.5367020000000  0.4705190000000 1.0
C      1  0.4721670000000  0.5071250000000  0.5470360000000 1.0
C      1  0.4717320000000  0.4560960000000  0.4830770000000 1.0
C      1  0.5121590000000  0.4725200000000  0.5505070000000 1.0
C      1  0.5138150000000  0.4708810000000  0.4509220000000 1.0
C      1  0.5130010000000  0.5571150000000  0.4992500000000 1.0
C      1  0.4823410000000  0.5079790000000  0.4581670000000 1.0
C      1  0.4821530000000  0.5324270000000  0.5281790000000 1.0
C      1  0.4820870000000  0.4594920000000  0.5139630000000 1.0
C      1  0.4885670000000  0.4368240000000  0.4669750000000 1.0
C      1  0.4887470000000  0.5604890000000  0.4619030000000 1.0
C      1  0.4888940000000  0.5027020000000  0.5721190000000 1.0
C      1  0.4957780000000  0.4904660000000  0.4833820000000 1.0
C      1  0.4954490000000  0.5190040000000  0.5004600000000 1.0
C      1  0.4951480000000  0.4900750000000  0.5163760000000 1.0
C      1  0.4353850000000  0.5000680000000  0.5001640000000 1.0
C      1  0.5462610000000  0.5039670000000  0.5043770000000 1.0
END
