TITL C-862501-1041-1004 -0.00766982219839963 125000 -624.068002589897 0 0 106 (C3) n - 1
REM
REM in /home/nfs/bkarasulu/CARBON/AIRSS/Generating-Clusters/TERSOFF/Higher-Symm/FIRE-HFTN
REM
REM
REM
REM
REM
REM ./C.cell (b20cbc046b6831c77cfcea5457e17084)
REM AIRSS Version 0.9.1 bugfix July 2018 build 013d7b7c2542+ Fri, 06 Jul 2018 19:26:36 +0100
REM compiler GCC version 9.2.1 20190827 (Red Hat 9.2.1-1)
REM options -cpp -mtune=generic -march=x86-64 -g -O0 -fpre-include=/usr/include/finclude/math-vector-fortran.h
REM seed 1169693081 563202056 1712316895 -1140581121 -273434280 1398351824 -160191441 -585397670 242130456 -2145290183 -1997830156 1811698821 -1321209269 680751359 -1723055058 1360096971 -1430198774 1106742887 -1719696819 507287298 1342524042 -1548594351 499411487 1007897400 -1733208973 493904281 -1041256672 -2065476955 -861752405 1832754037 -360527570 -1836324147 234215894
REM
CELL 1.54180   50.00000   50.00000   50.00000   90.00000   90.00000   90.00000
LATT -1
SFAC C  
C      1  0.5890030000000  0.4702160000000  0.4547600000000 1.0
C      1  0.4159620000000  0.4702160000000  0.4457730000000 1.0
C      1  0.4946990000000  0.4702140000000  0.6001240000000 1.0
C      1  0.5000100000000  0.4081090000000  0.4796890000000 1.0
C      1  0.4820480000000  0.4081080000000  0.5103760000000 1.0
C      1  0.5176050000000  0.4081080000000  0.5105880000000 1.0
C      1  0.5430400000000  0.4827460000000  0.4106410000000 1.0
C      1  0.4007350000000  0.4827440000000  0.5076370000000 1.0
C      1  0.5558890000000  0.4827430000000  0.5823790000000 1.0
C      1  0.4374800000000  0.5529680000000  0.5420060000000 1.0
C      1  0.5672800000000  0.5529680000000  0.5333750000000 1.0
C      1  0.4949050000000  0.5529700000000  0.4252800000000 1.0
C      1  0.5492340000000  0.5450360000000  0.5078710000000 1.0
C      1  0.4818420000000  0.5450370000000  0.4536600000000 1.0
C      1  0.4685890000000  0.5450360000000  0.5391290000000 1.0
C      1  0.4774340000000  0.5658220000000  0.4753010000000 1.0
C      1  0.4895350000000  0.5658210000000  0.5321260000000 1.0
C      1  0.5326960000000  0.5658210000000  0.4932340000000 1.0
C      1  0.5408640000000  0.5252120000000  0.5612660000000 1.0
C      1  0.5322680000000  0.5252150000000  0.4342110000000 1.0
C      1  0.4265330000000  0.5252140000000  0.5051820000000 1.0
C      1  0.5700550000000  0.4511760000000  0.4405240000000 1.0
C      1  0.4131070000000  0.4511770000000  0.4693000000000 1.0
C      1  0.5165020000000  0.4511740000000  0.5908320000000 1.0
C      1  0.4460040000000  0.4740900000000  0.4037490000000 1.0
C      1  0.4432850000000  0.4740870000000  0.5951190000000 1.0
C      1  0.6103750000000  0.4740880000000  0.5017890000000 1.0
C      1  0.4780320000000  0.5184010000000  0.5459570000000 1.0
C      1  0.5504260000000  0.5184010000000  0.4962790000000 1.0
C      1  0.4712070000000  0.5184020000000  0.4584230000000 1.0
C      1  0.4301930000000  0.4885970000000  0.5489510000000 1.0
C      1  0.5769390000000  0.4885970000000  0.5362110000000 1.0
C      1  0.4925320000000  0.4885990000000  0.4154950000000 1.0
C      1  0.4558320000000  0.5256820000000  0.4017590000000 1.0
C      1  0.4366460000000  0.5256790000000  0.5876040000000 1.0
C      1  0.6071860000000  0.5256800000000  0.5112970000000 1.0
C      1  0.5130460000000  0.4819210000000  0.3689810000000 1.0
C      1  0.3796540000000  0.4819180000000  0.5544420000000 1.0
C      1  0.6069640000000  0.4819170000000  0.5772330000000 1.0
C      1  0.5169190000000  0.5382270000000  0.4147180000000 1.0
C      1  0.4173260000000  0.5382250000000  0.5282220000000 1.0
C      1  0.5654200000000  0.5382240000000  0.5577200000000 1.0
C      1  0.4238990000000  0.4978650000000  0.4513810000000 1.0
C      1  0.4955880000000  0.4978630000000  0.5904470000000 1.0
C      1  0.5801780000000  0.4978650000000  0.4588300000000 1.0
C      1  0.4362970000000  0.4584880000000  0.4268560000000 1.0
C      1  0.4681490000000  0.4584850000000  0.5919710000000 1.0
C      1  0.5952180000000  0.4584870000000  0.4818290000000 1.0
C      1  0.4637420000000  0.4302840000000  0.5162250000000 1.0
C      1  0.5318230000000  0.4302840000000  0.5235180000000 1.0
C      1  0.5040980000000  0.4302850000000  0.4609110000000 1.0
C      1  0.5022970000000  0.5114670000000  0.5302680000000 1.0
C      1  0.5247060000000  0.5114670000000  0.4831090000000 1.0
C      1  0.4726610000000  0.5114670000000  0.4872820000000 1.0
C      1  0.4515680000000  0.4750060000000  0.5346180000000 1.0
C      1  0.5538390000000  0.4750060000000  0.5248660000000 1.0
C      1  0.4942580000000  0.4750070000000  0.4411730000000 1.0
C      1  0.4508510000000  0.5797150000000  0.5235280000000 1.0
C      1  0.5445920000000  0.5797140000000  0.5310350000000 1.0
C      1  0.5042230000000  0.5797160000000  0.4461000000000 1.0
C      1  0.4692170000000  0.5517730000000  0.4094580000000 1.0
C      1  0.4366220000000  0.5517710000000  0.5721630000000 1.0
C      1  0.5938260000000  0.5517710000000  0.5190390000000 1.0
C      1  0.5569850000000  0.4577590000000  0.4152340000000 1.0
C      1  0.3977410000000  0.4577580000000  0.4932630000000 1.0
C      1  0.5449380000000  0.4577560000000  0.5921580000000 1.0
C      1  0.4566030000000  0.5757200000000  0.4225580000000 1.0
C      1  0.4542730000000  0.5757180000000  0.5765390000000 1.0
C      1  0.5887900000000  0.5757190000000  0.5015650000000 1.0
C      1  0.5546620000000  0.4395690000000  0.4633550000000 1.0
C      1  0.4405770000000  0.4395690000000  0.4712140000000 1.0
C      1  0.5044250000000  0.4395670000000  0.5660850000000 1.0
C      1  0.4655300000000  0.4963530000000  0.4053720000000 1.0
C      1  0.4349270000000  0.4963510000000  0.5773980000000 1.0
C      1  0.5992080000000  0.4963510000000  0.5178880000000 1.0
C      1  0.4830480000000  0.4469230000000  0.4452510000000 1.0
C      1  0.4607050000000  0.4469210000000  0.5422860000000 1.0
C      1  0.5559110000000  0.4469210000000  0.5131180000000 1.0
C      1  0.4746530000000  0.5094570000000  0.5736910000000 1.0
C      1  0.5761340000000  0.5094590000000  0.4853380000000 1.0
C      1  0.4488770000000  0.5094600000000  0.4416300000000 1.0
C      1  0.5186260000000  0.5593130000000  0.4680260000000 1.0
C      1  0.4626390000000  0.5593130000000  0.5000910000000 1.0
C      1  0.5184010000000  0.5593120000000  0.5325440000000 1.0
C      1  0.4554600000000  0.4483370000000  0.4943670000000 1.0
C      1  0.5170340000000  0.4483360000000  0.5416200000000 1.0
C      1  0.5271690000000  0.4483370000000  0.4646690000000 1.0
C      1  0.4746590000000  0.4417180000000  0.5672380000000 1.0
C      1  0.5705430000000  0.4417190000000  0.4885580000000 1.0
C      1  0.4544620000000  0.4417200000000  0.4448600000000 1.0
C      1  0.5375790000000  0.5045400000000  0.5801390000000 1.0
C      1  0.5502550000000  0.5045430000000  0.4276190000000 1.0
C      1  0.4118310000000  0.5045420000000  0.4929010000000 1.0
C      1  0.4746920000000  0.5901880000000  0.4412120000000 1.0
C      1  0.4613840000000  0.5901860000000  0.5515460000000 1.0
C      1  0.5635890000000  0.5901870000000  0.5079050000000 1.0
C      1  0.5278070000000  0.4755040000000  0.5387340000000 1.0
C      1  0.5192830000000  0.4755050000000  0.4567830000000 1.0
C      1  0.4525730000000  0.4755050000000  0.5051400000000 1.0
C      1  0.5224750000000  0.5309290000000  0.5397200000000 1.0
C      1  0.5228030000000  0.5309300000000  0.4609090000000 1.0
C      1  0.4543870000000  0.5309300000000  0.5000300000000 1.0
C      1  0.5161150000000  0.4843710000000  0.3977460000000 1.0
C      1  0.4030300000000  0.4843690000000  0.5374020000000 1.0
C      1  0.5805190000000  0.4843680000000  0.5655090000000 1.0
C      1  0.4998880000000  0.5069970000000  0.5002190000000 1.0
END
