TITL C-862500-986-247 -0.000132176241811797 125000 -675.05769280199 0 0 124 (D2h) n - 1
REM
REM in /home/nfs/bkarasulu/CARBON/AIRSS/Generating-Clusters/TERSOFF/Higher-Symm/FIRE-HFTN
REM
REM
REM
REM
REM
REM ./C.cell (b20cbc046b6831c77cfcea5457e17084)
REM AIRSS Version 0.9.1 bugfix July 2018 build 013d7b7c2542+ Fri, 06 Jul 2018 19:26:36 +0100
REM compiler GCC version 9.2.1 20190827 (Red Hat 9.2.1-1)
REM options -cpp -mtune=generic -march=x86-64 -g -O0 -fpre-include=/usr/include/finclude/math-vector-fortran.h
REM seed 712001431 -734163946 -2044054479 -514768641 -1738924415 1325738007 245202588 297038088 1904851950 846697641 -453181932 -772834620 -1049114494 1668142232 -198895839 50167083 1359469177 -1683374614 -1259688995 2019388743 1200282847 1950538215 607961891 -1282037884 -2026160823 1186799900 581664648 -1953489518 -1401312147 1300147944 1746301983 -7114311 878339972
REM
CELL 1.54180   50.00000   50.00000   50.00000   90.00000   90.00000   90.00000
LATT -1
SFAC C  
C      1  0.4704510000000  0.5691220000000  0.5153550000000 1.0
C      1  0.5295490000000  0.5691220000000  0.4846450000000 1.0
C      1  0.4704510000000  0.4308780000000  0.5153550000000 1.0
C      1  0.5295490000000  0.4308780000000  0.4846450000000 1.0
C      1  0.5295490000000  0.5691220000000  0.5153550000000 1.0
C      1  0.4704510000000  0.5691220000000  0.4846450000000 1.0
C      1  0.5295490000000  0.4308780000000  0.5153550000000 1.0
C      1  0.4704510000000  0.4308780000000  0.4846450000000 1.0
C      1  0.4841600000000  0.4829880000000  0.4522930000000 1.0
C      1  0.5158400000000  0.4829880000000  0.5477070000000 1.0
C      1  0.4841600000000  0.5170120000000  0.4522930000000 1.0
C      1  0.5158400000000  0.5170120000000  0.5477070000000 1.0
C      1  0.5158400000000  0.4829880000000  0.4522930000000 1.0
C      1  0.4841600000000  0.4829880000000  0.5477070000000 1.0
C      1  0.5158400000000  0.5170120000000  0.4522930000000 1.0
C      1  0.4841600000000  0.5170120000000  0.5477070000000 1.0
C      1  0.4369880000000  0.4311620000000  0.5178310000000 1.0
C      1  0.5630120000000  0.4311620000000  0.4821690000000 1.0
C      1  0.4369880000000  0.5688380000000  0.5178310000000 1.0
C      1  0.5630120000000  0.5688380000000  0.4821690000000 1.0
C      1  0.5630120000000  0.4311620000000  0.5178310000000 1.0
C      1  0.4369880000000  0.4311620000000  0.4821690000000 1.0
C      1  0.5630120000000  0.5688380000000  0.5178310000000 1.0
C      1  0.4369880000000  0.5688380000000  0.4821690000000 1.0
C      1  0.4088580000000  0.5511680000000  0.4843540000000 1.0
C      1  0.5911420000000  0.5511680000000  0.5156460000000 1.0
C      1  0.4088580000000  0.4488320000000  0.4843540000000 1.0
C      1  0.5911420000000  0.4488320000000  0.5156460000000 1.0
C      1  0.5911420000000  0.5511680000000  0.4843540000000 1.0
C      1  0.4088580000000  0.5511680000000  0.5156460000000 1.0
C      1  0.5911420000000  0.4488320000000  0.4843540000000 1.0
C      1  0.4088580000000  0.4488320000000  0.5156460000000 1.0
C      1  0.5564810000000  0.5309340000000  0.5505050000000 1.0
C      1  0.4435190000000  0.5309340000000  0.4494950000000 1.0
C      1  0.5564810000000  0.4690660000000  0.5505050000000 1.0
C      1  0.4435190000000  0.4690660000000  0.4494950000000 1.0
C      1  0.4435190000000  0.5309340000000  0.5505050000000 1.0
C      1  0.5564810000000  0.5309340000000  0.4494950000000 1.0
C      1  0.4435190000000  0.4690660000000  0.5505050000000 1.0
C      1  0.5564810000000  0.4690660000000  0.4494950000000 1.0
C      1  0.5172090000000  0.5385260000000  0.5184880000000 1.0
C      1  0.4827910000000  0.5385260000000  0.4815120000000 1.0
C      1  0.5172090000000  0.4614740000000  0.5184880000000 1.0
C      1  0.4827910000000  0.4614740000000  0.4815120000000 1.0
C      1  0.4827910000000  0.5385260000000  0.5184880000000 1.0
C      1  0.5172090000000  0.5385260000000  0.4815120000000 1.0
C      1  0.4827910000000  0.4614740000000  0.5184880000000 1.0
C      1  0.5172090000000  0.4614740000000  0.4815120000000 1.0
C      1  0.4584110000000  0.5477620000000  0.5745880000000 1.0
C      1  0.5415890000000  0.5477620000000  0.4254120000000 1.0
C      1  0.4584110000000  0.4522380000000  0.5745880000000 1.0
C      1  0.5415890000000  0.4522380000000  0.4254120000000 1.0
C      1  0.5415890000000  0.5477620000000  0.5745880000000 1.0
C      1  0.4584110000000  0.5477620000000  0.4254120000000 1.0
C      1  0.5415890000000  0.4522380000000  0.5745880000000 1.0
C      1  0.4584110000000  0.4522380000000  0.4254120000000 1.0
C      1  0.5251720000000  0.4072120000000  0.4442620000000 1.0
C      1  0.4748280000000  0.4072120000000  0.5557380000000 1.0
C      1  0.5251720000000  0.5927880000000  0.4442620000000 1.0
C      1  0.4748280000000  0.5927880000000  0.5557380000000 1.0
C      1  0.4748280000000  0.4072120000000  0.4442620000000 1.0
C      1  0.5251720000000  0.4072120000000  0.5557380000000 1.0
C      1  0.4748280000000  0.5927880000000  0.4442620000000 1.0
C      1  0.5251720000000  0.5927880000000  0.5557380000000 1.0
C      1  0.4839390000000  0.4846430000000  0.4176010000000 1.0
C      1  0.5160610000000  0.4846430000000  0.5823990000000 1.0
C      1  0.4839390000000  0.5153570000000  0.4176010000000 1.0
C      1  0.5160610000000  0.5153570000000  0.5823990000000 1.0
C      1  0.5160610000000  0.4846430000000  0.4176010000000 1.0
C      1  0.4839390000000  0.4846430000000  0.5823990000000 1.0
C      1  0.5160610000000  0.5153570000000  0.4176010000000 1.0
C      1  0.4839390000000  0.5153570000000  0.5823990000000 1.0
C      1  0.4179460000000  0.5153490000000  0.4469360000000 1.0
C      1  0.5820540000000  0.5153490000000  0.5530640000000 1.0
C      1  0.4179460000000  0.4846510000000  0.4469360000000 1.0
C      1  0.5820540000000  0.4846510000000  0.5530640000000 1.0
C      1  0.5820540000000  0.5153490000000  0.4469360000000 1.0
C      1  0.4179460000000  0.5153490000000  0.5530640000000 1.0
C      1  0.5820540000000  0.4846510000000  0.4469360000000 1.0
C      1  0.4179460000000  0.4846510000000  0.5530640000000 1.0
C      1  0.4849770000000  0.4090270000000  0.5288070000000 1.0
C      1  0.5150230000000  0.4090270000000  0.4711930000000 1.0
C      1  0.4849770000000  0.5909730000000  0.5288070000000 1.0
C      1  0.5150230000000  0.5909730000000  0.4711930000000 1.0
C      1  0.5150230000000  0.4090270000000  0.5288070000000 1.0
C      1  0.4849770000000  0.4090270000000  0.4711930000000 1.0
C      1  0.5150230000000  0.5909730000000  0.5288070000000 1.0
C      1  0.4849770000000  0.5909730000000  0.4711930000000 1.0
C      1  0.3999190000000  0.5296040000000  0.5340440000000 1.0
C      1  0.6000810000000  0.5296040000000  0.4659560000000 1.0
C      1  0.3999190000000  0.4703960000000  0.5340440000000 1.0
C      1  0.6000810000000  0.4703960000000  0.4659560000000 1.0
C      1  0.6000810000000  0.5296040000000  0.5340440000000 1.0
C      1  0.3999190000000  0.5296040000000  0.4659560000000 1.0
C      1  0.6000810000000  0.4703960000000  0.5340440000000 1.0
C      1  0.3999190000000  0.4703960000000  0.4659560000000 1.0
C      1  0.5467600000000  0.5304430000000  0.4771900000000 1.0
C      1  0.4532400000000  0.5304430000000  0.5228100000000 1.0
C      1  0.5467600000000  0.4695570000000  0.4771900000000 1.0
C      1  0.4532400000000  0.4695570000000  0.5228100000000 1.0
C      1  0.4532400000000  0.5304430000000  0.4771900000000 1.0
C      1  0.5467600000000  0.5304430000000  0.5228100000000 1.0
C      1  0.4532400000000  0.4695570000000  0.4771900000000 1.0
C      1  0.5467600000000  0.4695570000000  0.5228100000000 1.0
C      1  0.5180360000000  0.4306800000000  0.5716520000000 1.0
C      1  0.4819640000000  0.4306800000000  0.4283480000000 1.0
C      1  0.5180360000000  0.5693200000000  0.5716520000000 1.0
C      1  0.4819640000000  0.5693200000000  0.4283480000000 1.0
C      1  0.4819640000000  0.4306800000000  0.5716520000000 1.0
C      1  0.5180360000000  0.4306800000000  0.4283480000000 1.0
C      1  0.4819640000000  0.5693200000000  0.5716520000000 1.0
C      1  0.5180360000000  0.5693200000000  0.4283480000000 1.0
C      1  0.4652740000000  0.5313700000000  0.5982150000000 1.0
C      1  0.5347260000000  0.5313700000000  0.4017850000000 1.0
C      1  0.4652740000000  0.4686300000000  0.5982150000000 1.0
C      1  0.5347260000000  0.4686300000000  0.4017850000000 1.0
C      1  0.5347260000000  0.5313700000000  0.5982150000000 1.0
C      1  0.4652740000000  0.5313700000000  0.4017850000000 1.0
C      1  0.5347260000000  0.4686300000000  0.5982150000000 1.0
C      1  0.4652740000000  0.4686300000000  0.4017850000000 1.0
C      1  0.5595500000000  0.5151350000000  0.5000000000000 1.0
C      1  0.4404500000000  0.5151350000000  0.5000000000000 1.0
C      1  0.5595500000000  0.4848650000000  0.5000000000000 1.0
C      1  0.4404500000000  0.4848650000000  0.5000000000000 1.0
END
