TITL C-862133-5440-826 8.23412793538884e-05 125000 -810.03261438672 0 0 153 (C3h) n - 1
REM
REM in /home/nfs/bkarasulu/CARBON/AIRSS/Generating-Clusters/TERSOFF/Higher-Symm/FIRE-HFTN
REM
REM
REM
REM
REM
REM ./C.cell (b20cbc046b6831c77cfcea5457e17084)
REM AIRSS Version 0.9.1 bugfix July 2018 build 013d7b7c2542+ Fri, 06 Jul 2018 19:26:36 +0100
REM compiler GCC version 9.2.1 20190827 (Red Hat 9.2.1-1)
REM options -cpp -mtune=generic -march=x86-64 -g -O0 -fpre-include=/usr/include/finclude/math-vector-fortran.h
REM seed -1512880019 -566614596 572320519 1125433530 354220687 -1831392845 -1451251145 1015162631 1523112447 -61305198 -234102420 2080096412 -1455556692 -1925827244 -1119351969 1049450675 1232684071 -817465093 -1337745698 -1654023276 1742079768 659030699 -1659680881 18196789 -203388526 1651255556 225913217 -1249851472 -1362553804 -1597993213 -146437789 86040844 1871693242
REM
CELL 1.54180   50.00000   50.00000   50.00000   90.00000   90.00000   90.00000
LATT -1
SFAC C  
C      1  0.5145940000000  0.4003750000000  0.5712680000000 1.0
C      1  0.4064250000000  0.5371740000000  0.5712680000000 1.0
C      1  0.5789810000000  0.5624510000000  0.5712680000000 1.0
C      1  0.5145940000000  0.4003750000000  0.4284800000000 1.0
C      1  0.4064250000000  0.5371740000000  0.4284800000000 1.0
C      1  0.5789810000000  0.5624520000000  0.4284800000000 1.0
C      1  0.5571360000000  0.4862280000000  0.5742080000000 1.0
C      1  0.4595050000000  0.4574050000000  0.5742080000000 1.0
C      1  0.4833590000000  0.5563670000000  0.5742080000000 1.0
C      1  0.5571360000000  0.4862280000000  0.4255400000000 1.0
C      1  0.4595050000000  0.4574050000000  0.4255400000000 1.0
C      1  0.4833590000000  0.5563670000000  0.4255400000000 1.0
C      1  0.5251290000000  0.3947740000000  0.4543950000000 1.0
C      1  0.3963070000000  0.5308500000000  0.4543950000000 1.0
C      1  0.5785640000000  0.5743760000000  0.4543950000000 1.0
C      1  0.5251290000000  0.3947740000000  0.5453530000000 1.0
C      1  0.3963070000000  0.5308500000000  0.5453530000000 1.0
C      1  0.5785640000000  0.5743760000000  0.5453530000000 1.0
C      1  0.4380200000000  0.4948050000000  0.5148260000000 1.0
C      1  0.5264910000000  0.5562740000000  0.5148260000000 1.0
C      1  0.5354890000000  0.4489210000000  0.5148260000000 1.0
C      1  0.4380200000000  0.4948050000000  0.4849220000000 1.0
C      1  0.5264910000000  0.5562740000000  0.4849220000000 1.0
C      1  0.5354890000000  0.4489210000000  0.4849220000000 1.0
C      1  0.4886110000000  0.4595010000000  0.4674590000000 1.0
C      1  0.4706220000000  0.5301130000000  0.4674590000000 1.0
C      1  0.5407670000000  0.5103860000000  0.4674590000000 1.0
C      1  0.4886110000000  0.4595010000000  0.5322900000000 1.0
C      1  0.4706220000000  0.5301120000000  0.5322900000000 1.0
C      1  0.5407670000000  0.5103860000000  0.5322900000000 1.0
C      1  0.4698380000000  0.5813940000000  0.4412510000000 1.0
C      1  0.5855700000000  0.4854240000000  0.4412510000000 1.0
C      1  0.4445920000000  0.4331820000000  0.4412510000000 1.0
C      1  0.4698380000000  0.5813940000000  0.5584970000000 1.0
C      1  0.5855700000000  0.4854240000000  0.5584970000000 1.0
C      1  0.4445920000000  0.4331820000000  0.5584970000000 1.0
C      1  0.5207550000000  0.5506690000000  0.5560230000000 1.0
C      1  0.5335040000000  0.4566910000000  0.5560230000000 1.0
C      1  0.4457420000000  0.4926390000000  0.5560230000000 1.0
C      1  0.5207550000000  0.5506700000000  0.4437250000000 1.0
C      1  0.5335040000000  0.4566910000000  0.4437250000000 1.0
C      1  0.4457420000000  0.4926390000000  0.4437250000000 1.0
C      1  0.4284150000000  0.5630350000000  0.5247470000000 1.0
C      1  0.5903820000000  0.5304770000000  0.5247470000000 1.0
C      1  0.4812030000000  0.4064880000000  0.5247470000000 1.0
C      1  0.4284150000000  0.5630350000000  0.4750010000000 1.0
C      1  0.5903820000000  0.5304770000000  0.4750010000000 1.0
C      1  0.4812030000000  0.4064880000000  0.4750010000000 1.0
C      1  0.5581000000000  0.5630210000000  0.4757480000000 1.0
C      1  0.5255280000000  0.4181740000000  0.4757480000000 1.0
C      1  0.4163720000000  0.5188050000000  0.4757480000000 1.0
C      1  0.5581000000000  0.5630210000000  0.5240000000000 1.0
C      1  0.5255280000000  0.4181740000000  0.5240000000000 1.0
C      1  0.4163720000000  0.5188050000000  0.5240010000000 1.0
C      1  0.4585910000000  0.5014280000000  0.6042660000000 1.0
C      1  0.5219410000000  0.5351470000000  0.6042660000000 1.0
C      1  0.5194680000000  0.4634250000000  0.6042660000000 1.0
C      1  0.4585910000000  0.5014280000000  0.3954820000000 1.0
C      1  0.5219410000000  0.5351480000000  0.3954820000000 1.0
C      1  0.5194680000000  0.4634250000000  0.3954820000000 1.0
C      1  0.5347130000000  0.4886950000000  0.5535980000000 1.0
C      1  0.4728530000000  0.4755900000000  0.5535990000000 1.0
C      1  0.4924340000000  0.5357150000000  0.5535990000000 1.0
C      1  0.5347130000000  0.4886950000000  0.4461500000000 1.0
C      1  0.4728530000000  0.4755900000000  0.4461500000000 1.0
C      1  0.4924340000000  0.5357150000000  0.4461500000000 1.0
C      1  0.4369110000000  0.5935380000000  0.4850160000000 1.0
C      1  0.6125510000000  0.5078680000000  0.4850160000000 1.0
C      1  0.4505380000000  0.3985940000000  0.4850160000000 1.0
C      1  0.4369110000000  0.5935380000000  0.5147330000000 1.0
C      1  0.6125510000000  0.5078680000000  0.5147320000000 1.0
C      1  0.4505380000000  0.3985940000000  0.5147320000000 1.0
C      1  0.5449170000000  0.5959910000000  0.5580580000000 1.0
C      1  0.5606730000000  0.4131050000000  0.5580580000000 1.0
C      1  0.3944110000000  0.4909030000000  0.5580580000000 1.0
C      1  0.5449170000000  0.5959910000000  0.4416900000000 1.0
C      1  0.5606730000000  0.4131050000000  0.4416900000000 1.0
C      1  0.3944110000000  0.4909030000000  0.4416900000000 1.0
C      1  0.5100920000000  0.4409700000000  0.5472510000000 1.0
C      1  0.4438330000000  0.5207750000000  0.5472510000000 1.0
C      1  0.5460760000000  0.5382540000000  0.5472510000000 1.0
C      1  0.5100910000000  0.4409700000000  0.4524970000000 1.0
C      1  0.4438330000000  0.5207750000000  0.4524970000000 1.0
C      1  0.5460750000000  0.5382540000000  0.4524970000000 1.0
C      1  0.5763880000000  0.4378450000000  0.4832110000000 1.0
C      1  0.4079780000000  0.4649240000000  0.4832110000000 1.0
C      1  0.5156340000000  0.5972320000000  0.4832110000000 1.0
C      1  0.5763880000000  0.4378450000000  0.5165370000000 1.0
C      1  0.4079780000000  0.4649240000000  0.5165370000000 1.0
C      1  0.5156340000000  0.5972320000000  0.5165370000000 1.0
C      1  0.5817950000000  0.4538570000000  0.5483530000000 1.0
C      1  0.4191420000000  0.4522350000000  0.5483530000000 1.0
C      1  0.4990630000000  0.5939080000000  0.5483530000000 1.0
C      1  0.5817950000000  0.4538570000000  0.4513950000000 1.0
C      1  0.4191420000000  0.4522350000000  0.4513950000000 1.0
C      1  0.4990630000000  0.5939080000000  0.4513950000000 1.0
C      1  0.4474430000000  0.4747860000000  0.5955890000000 1.0
C      1  0.5044430000000  0.5581220000000  0.5955890000000 1.0
C      1  0.5481140000000  0.4670910000000  0.5955890000000 1.0
C      1  0.4474430000000  0.4747860000000  0.4041590000000 1.0
C      1  0.5044430000000  0.5581230000000  0.4041590000000 1.0
C      1  0.5481140000000  0.4670910000000  0.4041590000000 1.0
C      1  0.5588940000000  0.4422980000000  0.5634500000000 1.0
C      1  0.4205820000000  0.4778480000000  0.5634500000000 1.0
C      1  0.5205250000000  0.5798540000000  0.5634500000000 1.0
C      1  0.5588940000000  0.4422980000000  0.4362980000000 1.0
C      1  0.4205820000000  0.4778480000000  0.4362980000000 1.0
C      1  0.5205250000000  0.5798550000000  0.4362980000000 1.0
C      1  0.5447620000000  0.5923000000000  0.4717170000000 1.0
C      1  0.5575530000000  0.4150850000000  0.4717170000000 1.0
C      1  0.3976850000000  0.4926150000000  0.4717170000000 1.0
C      1  0.5447620000000  0.5923000000000  0.5280310000000 1.0
C      1  0.5575530000000  0.4150850000000  0.5280310000000 1.0
C      1  0.3976850000000  0.4926150000000  0.5280310000000 1.0
C      1  0.4990360000000  0.4256870000000  0.5721480000000 1.0
C      1  0.4361250000000  0.5379920000000  0.5721480000000 1.0
C      1  0.5648390000000  0.5363210000000  0.5721480000000 1.0
C      1  0.4990360000000  0.4256870000000  0.4276000000000 1.0
C      1  0.4361250000000  0.5379920000000  0.4276000000000 1.0
C      1  0.5648390000000  0.5363210000000  0.4276000000000 1.0
C      1  0.4689940000000  0.5040750000000  0.4836680000000 1.0
C      1  0.5190320000000  0.5248140000000  0.4836680000000 1.0
C      1  0.5119730000000  0.4711110000000  0.4836680000000 1.0
C      1  0.4689940000000  0.5040750000000  0.5160800000000 1.0
C      1  0.5190320000000  0.5248140000000  0.5160800000000 1.0
C      1  0.5119730000000  0.4711110000000  0.5160800000000 1.0
C      1  0.4491450000000  0.5294910000000  0.4021140000000 1.0
C      1  0.5509680000000  0.5292960000000  0.4021140000000 1.0
C      1  0.4998870000000  0.4412130000000  0.4021140000000 1.0
C      1  0.4491450000000  0.5294910000000  0.5976340000000 1.0
C      1  0.5509680000000  0.5292960000000  0.5976340000000 1.0
C      1  0.4998870000000  0.4412120000000  0.5976340000000 1.0
C      1  0.5898170000000  0.4886380000000  0.4733150000000 1.0
C      1  0.4452520000000  0.4278970000000  0.4733150000000 1.0
C      1  0.4649310000000  0.5834650000000  0.4733150000000 1.0
C      1  0.5898170000000  0.4886380000000  0.5264330000000 1.0
C      1  0.4452520000000  0.4278970000000  0.5264330000000 1.0
C      1  0.4649310000000  0.5834650000000  0.5264330000000 1.0
C      1  0.4416600000000  0.5635700000000  0.4445840000000 1.0
C      1  0.5842230000000  0.5187380000000  0.4445840000000 1.0
C      1  0.4741160000000  0.4176910000000  0.4445840000000 1.0
C      1  0.4416600000000  0.5635700000000  0.5551640000000 1.0
C      1  0.5842240000000  0.5187380000000  0.5551640000000 1.0
C      1  0.4741160000000  0.4176910000000  0.5551640000000 1.0
C      1  0.4727370000000  0.4397080000000  0.4845290000000 1.0
C      1  0.4614170000000  0.5537570000000  0.4845290000000 1.0
C      1  0.5658460000000  0.5065350000000  0.4845290000000 1.0
C      1  0.4727370000000  0.4397080000000  0.5152200000000 1.0
C      1  0.4614170000000  0.5537570000000  0.5152200000000 1.0
C      1  0.5658460000000  0.5065350000000  0.5152200000000 1.0
C      1  0.5780030000000  0.5528420000000  0.4998740000000 1.0
C      1  0.4152360000000  0.5411310000000  0.4998740000000 1.0
C      1  0.5067610000000  0.4060270000000  0.4998740000000 1.0
END
