TITL C-862505-1648-569 -0.0016594714805572 125000 -528.848328902362 0 0 92 (S4) n - 1
REM
REM in /home/nfs/bkarasulu/CARBON/AIRSS/Generating-Clusters/TERSOFF/Higher-Symm/FIRE-HFTN
REM
REM
REM
REM
REM
REM ./C.cell (b20cbc046b6831c77cfcea5457e17084)
REM AIRSS Version 0.9.1 bugfix July 2018 build 013d7b7c2542+ Fri, 06 Jul 2018 19:26:36 +0100
REM compiler GCC version 9.2.1 20190827 (Red Hat 9.2.1-1)
REM options -cpp -mtune=generic -march=x86-64 -g -O0 -fpre-include=/usr/include/finclude/math-vector-fortran.h
REM seed -1987621211 -1908747111 1081373178 1915024654 1544058472 -1225472145 1695972750 -1637338631 591555651 -141024062 1687472775 -1036044169 1914911460 -1377870363 2069252695 -1480389063 243736417 1962195893 -1433130682 2013860537 -1482230487 -1470307207 -1772588163 1266503580 1780079582 -185736380 -201089022 1354530345 289323732 950343322 66378566 366462042 300325257
REM
CELL 1.54180   50.00000   50.00000   50.00000   90.00000   90.00000   90.00000
LATT -1
SFAC C  
C      1  0.5425280000000  0.5168000000000  0.5125420000000 1.0
C      1  0.4574720000000  0.5125420000000  0.4832000000000 1.0
C      1  0.5425280000000  0.4832000000000  0.4874580000000 1.0
C      1  0.4574720000000  0.4874580000000  0.5168000000000 1.0
C      1  0.5656270000000  0.5487430000000  0.5299410000000 1.0
C      1  0.4343730000000  0.5299410000000  0.4512570000000 1.0
C      1  0.5656270000000  0.4512570000000  0.4700590000000 1.0
C      1  0.4343730000000  0.4700590000000  0.5487430000000 1.0
C      1  0.4727740000000  0.5060260000000  0.5841010000000 1.0
C      1  0.5272260000000  0.5841010000000  0.4939740000000 1.0
C      1  0.4727740000000  0.4939740000000  0.4158990000000 1.0
C      1  0.5272260000000  0.4158990000000  0.5060260000000 1.0
C      1  0.5979500000000  0.4899540000000  0.4647450000000 1.0
C      1  0.4020500000000  0.4647450000000  0.5100460000000 1.0
C      1  0.5979500000000  0.5100460000000  0.5352550000000 1.0
C      1  0.4020500000000  0.5352550000000  0.4899540000000 1.0
C      1  0.5651700000000  0.5210070000000  0.4861740000000 1.0
C      1  0.4348300000000  0.4861740000000  0.4789930000000 1.0
C      1  0.5651700000000  0.4789930000000  0.5138260000000 1.0
C      1  0.4348300000000  0.5138260000000  0.5210070000000 1.0
C      1  0.4782210000000  0.4650810000000  0.4854230000000 1.0
C      1  0.5217790000000  0.4854230000000  0.5349190000000 1.0
C      1  0.4782210000000  0.5349190000000  0.5145770000000 1.0
C      1  0.5217790000000  0.5145770000000  0.4650810000000 1.0
C      1  0.5000220000000  0.4279050000000  0.5015040000000 1.0
C      1  0.4999780000000  0.5015040000000  0.5720950000000 1.0
C      1  0.5000220000000  0.5720950000000  0.4984960000000 1.0
C      1  0.4999780000000  0.4984960000000  0.4279050000000 1.0
C      1  0.4987620000000  0.5535290000000  0.4463910000000 1.0
C      1  0.5012380000000  0.4463910000000  0.4464710000000 1.0
C      1  0.4987620000000  0.4464710000000  0.5536090000000 1.0
C      1  0.5012380000000  0.5536090000000  0.5535290000000 1.0
C      1  0.4349290000000  0.5011070000000  0.5494340000000 1.0
C      1  0.5650710000000  0.5494340000000  0.4988930000000 1.0
C      1  0.4349290000000  0.4988930000000  0.4505660000000 1.0
C      1  0.5650710000000  0.4505660000000  0.5011070000000 1.0
C      1  0.4734550000000  0.4301720000000  0.5460710000000 1.0
C      1  0.5265450000000  0.5460710000000  0.5698280000000 1.0
C      1  0.4734550000000  0.5698280000000  0.4539290000000 1.0
C      1  0.5265450000000  0.4539290000000  0.4301720000000 1.0
C      1  0.4308370000000  0.5747790000000  0.5215590000000 1.0
C      1  0.5691630000000  0.5215590000000  0.4252210000000 1.0
C      1  0.4308370000000  0.4252210000000  0.4784410000000 1.0
C      1  0.5691630000000  0.4784410000000  0.5747790000000 1.0
C      1  0.4508090000000  0.4616930000000  0.4843430000000 1.0
C      1  0.5491910000000  0.4843430000000  0.5383070000000 1.0
C      1  0.4508090000000  0.5383070000000  0.5156570000000 1.0
C      1  0.5491910000000  0.5156570000000  0.4616930000000 1.0
C      1  0.4679670000000  0.5751710000000  0.4828750000000 1.0
C      1  0.5320330000000  0.4828750000000  0.4248290000000 1.0
C      1  0.4679670000000  0.4248290000000  0.5171250000000 1.0
C      1  0.5320330000000  0.5171250000000  0.5751710000000 1.0
C      1  0.5110770000000  0.5092490000000  0.5187110000000 1.0
C      1  0.4889230000000  0.5187110000000  0.4907510000000 1.0
C      1  0.5110770000000  0.4907510000000  0.4812890000000 1.0
C      1  0.4889230000000  0.4812890000000  0.5092490000000 1.0
C      1  0.4084090000000  0.5127640000000  0.5065900000000 1.0
C      1  0.5915910000000  0.5065900000000  0.4872360000000 1.0
C      1  0.4084090000000  0.4872360000000  0.4934100000000 1.0
C      1  0.5915910000000  0.4934100000000  0.5127640000000 1.0
C      1  0.5571060000000  0.5043020000000  0.5611620000000 1.0
C      1  0.4428940000000  0.5611620000000  0.4956980000000 1.0
C      1  0.5571060000000  0.4956980000000  0.4388380000000 1.0
C      1  0.4428940000000  0.4388380000000  0.5043020000000 1.0
C      1  0.4285080000000  0.4385690000000  0.4514750000000 1.0
C      1  0.5714920000000  0.4514750000000  0.5614310000000 1.0
C      1  0.4285080000000  0.5614310000000  0.5485250000000 1.0
C      1  0.5714920000000  0.5485250000000  0.4385690000000 1.0
C      1  0.4239200000000  0.4529950000000  0.5248470000000 1.0
C      1  0.5760800000000  0.5248470000000  0.5470050000000 1.0
C      1  0.4239200000000  0.5470050000000  0.4751530000000 1.0
C      1  0.5760800000000  0.4751530000000  0.4529950000000 1.0
C      1  0.5501260000000  0.5692210000000  0.4821600000000 1.0
C      1  0.4498740000000  0.4821600000000  0.4307790000000 1.0
C      1  0.5501260000000  0.4307790000000  0.5178400000000 1.0
C      1  0.4498740000000  0.5178400000000  0.5692210000000 1.0
C      1  0.5492130000000  0.5635660000000  0.4523590000000 1.0
C      1  0.4507870000000  0.4523590000000  0.4364340000000 1.0
C      1  0.5492130000000  0.4364340000000  0.5476410000000 1.0
C      1  0.4507870000000  0.5476410000000  0.5635660000000 1.0
C      1  0.5048330000000  0.4763720000000  0.5558560000000 1.0
C      1  0.4951670000000  0.5558560000000  0.5236280000000 1.0
C      1  0.5048330000000  0.5236280000000  0.4441440000000 1.0
C      1  0.4951670000000  0.4441440000000  0.4763720000000 1.0
C      1  0.5235960000000  0.4321980000000  0.5612520000000 1.0
C      1  0.4764040000000  0.5612520000000  0.5678020000000 1.0
C      1  0.5235970000000  0.5678020000000  0.4387480000000 1.0
C      1  0.4764030000000  0.4387480000000  0.4321980000000 1.0
C      1  0.4988260000000  0.4529270000000  0.5215340000000 1.0
C      1  0.5011740000000  0.5215340000000  0.5470730000000 1.0
C      1  0.4988260000000  0.5470730000000  0.4784660000000 1.0
C      1  0.5011740000000  0.4784660000000  0.4529270000000 1.0
END
