TITL C-862130-1496-1133 -7.70443051358358e-05 125000 -219.263469555018 0 0 42 (Ci) n - 1
REM
REM in /home/nfs/bkarasulu/CARBON/AIRSS/Generating-Clusters/TERSOFF/Higher-Symm/FIRE-HFTN
REM
REM
REM
REM
REM
REM ./C.cell (b20cbc046b6831c77cfcea5457e17084)
REM AIRSS Version 0.9.1 bugfix July 2018 build 013d7b7c2542+ Fri, 06 Jul 2018 19:26:36 +0100
REM compiler GCC version 9.2.1 20190827 (Red Hat 9.2.1-1)
REM options -cpp -mtune=generic -march=x86-64 -g -O0 -fpre-include=/usr/include/finclude/math-vector-fortran.h
REM seed -1105545793 819520790 543653316 1415126505 350647131 598366323 1539503280 -1951563562 -1913587468 571379742 -206731870 -1724049724 -161214527 -1143773079 572411188 -1660117030 1985664960 -1219330353 437899336 1376493398 104258742 880315921 1478200584 -1060511327 1531362110 -357626914 -721582160 -1051714027 348759354 1303595467 -43015716 -863252762 799212925
REM
CELL 1.54180   50.00000   50.00000   50.00000   90.00000   90.00000   90.00000
LATT -1
SFAC C  
C      1  0.4480560000000  0.4882520000000  0.4676210000000 1.0
C      1  0.5013040000000  0.5103220000000  0.4422930000000 1.0
C      1  0.5562380000000  0.4899120000000  0.4692820000000 1.0
C      1  0.5519440000000  0.5117480000000  0.5323790000000 1.0
C      1  0.4986960000000  0.4896780000000  0.5577070000000 1.0
C      1  0.4437620000000  0.5100880000000  0.5307180000000 1.0
C      1  0.4739370000000  0.5076180000000  0.5155000000000 1.0
C      1  0.4749200000000  0.4933900000000  0.4879150000000 1.0
C      1  0.5004350000000  0.5056330000000  0.4746230000000 1.0
C      1  0.5260630000000  0.4923820000000  0.4845000000000 1.0
C      1  0.5250800000000  0.5066100000000  0.5120850000000 1.0
C      1  0.4995650000000  0.4943670000000  0.5253770000000 1.0
C      1  0.4855240000000  0.4843350000000  0.4385750000000 1.0
C      1  0.5498360000000  0.5149500000000  0.4527730000000 1.0
C      1  0.5608050000000  0.4855100000000  0.5185310000000 1.0
C      1  0.5144760000000  0.5156650000000  0.5614250000000 1.0
C      1  0.4501640000000  0.4850500000000  0.5472270000000 1.0
C      1  0.4391950000000  0.5144900000000  0.4814690000000 1.0
C      1  0.5449200000000  0.4608540000000  0.4642560000000 1.0
C      1  0.5494090000000  0.5401760000000  0.5183100000000 1.0
C      1  0.5100390000000  0.4606160000000  0.5478610000000 1.0
C      1  0.4550800000000  0.5391460000000  0.5357440000000 1.0
C      1  0.4505910000000  0.4598240000000  0.4816900000000 1.0
C      1  0.4899610000000  0.5393840000000  0.4521390000000 1.0
C      1  0.4709800000000  0.4890400000000  0.5670820000000 1.0
C      1  0.4261710000000  0.5105400000000  0.5071450000000 1.0
C      1  0.4569020000000  0.4880190000000  0.4400270000000 1.0
C      1  0.5290200000000  0.5109600000000  0.4329180000000 1.0
C      1  0.5738290000000  0.4894600000000  0.4928550000000 1.0
C      1  0.5430980000000  0.5119810000000  0.5599730000000 1.0
C      1  0.4922950000000  0.5382980000000  0.4880560000000 1.0
C      1  0.5157290000000  0.4615650000000  0.4767400000000 1.0
C      1  0.5277940000000  0.5382140000000  0.4944430000000 1.0
C      1  0.5077050000000  0.4617020000000  0.5119440000000 1.0
C      1  0.4842710000000  0.5384350000000  0.5232600000000 1.0
C      1  0.4722060000000  0.4617860000000  0.5055570000000 1.0
C      1  0.5446130000000  0.5386110000000  0.4694260000000 1.0
C      1  0.5420210000000  0.4618010000000  0.5206760000000 1.0
C      1  0.5046530000000  0.5396250000000  0.5456600000000 1.0
C      1  0.4553870000000  0.4613890000000  0.5305740000000 1.0
C      1  0.4579790000000  0.5381990000000  0.4793240000000 1.0
C      1  0.4953470000000  0.4603750000000  0.4543400000000 1.0
END
