TITL C-862127-1500-396 -0.0578526481942832 125000 -729.546033106115 0 0 126 (C3) n - 1
REM
REM in /home/nfs/bkarasulu/CARBON/AIRSS/Generating-Clusters/TERSOFF/Higher-Symm/FIRE-HFTN
REM
REM
REM
REM
REM
REM ./C.cell (b20cbc046b6831c77cfcea5457e17084)
REM AIRSS Version 0.9.1 bugfix July 2018 build 013d7b7c2542+ Fri, 06 Jul 2018 19:26:36 +0100
REM compiler GCC version 9.2.1 20190827 (Red Hat 9.2.1-1)
REM options -cpp -mtune=generic -march=x86-64 -g -O0 -fpre-include=/usr/include/finclude/math-vector-fortran.h
REM seed -1014502804 -235045541 1971317047 -591704652 1312050668 -2085809553 -1457243760 1765640537 -1519656512 1001486856 -369303242 2106903138 -154321532 329612988 -1660610416 1573332427 -1837106634 -1040315815 -37371789 1722712649 -1264832944 -1357829385 1897300176 -45904709 1016398800 1630249962 649866011 2140960095 -125120807 658191128 965200606 87266452 282187875
REM
CELL 1.54180   50.00000   50.00000   50.00000   90.00000   90.00000   90.00000
LATT -1
SFAC C  
C      1  0.5631020000000  0.5652100000000  0.5039830000000 1.0
C      1  0.5631020000000  0.4708450000000  0.4415350000000 1.0
C      1  0.5631030000000  0.4639460000000  0.5544810000000 1.0
C      1  0.5508450000000  0.4358030000000  0.5575600000000 1.0
C      1  0.5508440000000  0.5819470000000  0.5268160000000 1.0
C      1  0.5508440000000  0.4822500000000  0.4156230000000 1.0
C      1  0.4012080000000  0.5289530000000  0.5117380000000 1.0
C      1  0.4012080000000  0.4956880000000  0.4690570000000 1.0
C      1  0.4012090000000  0.4753580000000  0.5192060000000 1.0
C      1  0.5503940000000  0.5470930000000  0.5698040000000 1.0
C      1  0.5503930000000  0.5369060000000  0.4243140000000 1.0
C      1  0.5503940000000  0.4160020000000  0.5058810000000 1.0
C      1  0.4989990000000  0.4815950000000  0.5887330000000 1.0
C      1  0.4989980000000  0.5860480000000  0.4715730000000 1.0
C      1  0.4989980000000  0.4323570000000  0.4396940000000 1.0
C      1  0.4684850000000  0.4407460000000  0.5829710000000 1.0
C      1  0.4684840000000  0.6014820000000  0.5098300000000 1.0
C      1  0.4684840000000  0.4577720000000  0.4072000000000 1.0
C      1  0.4466970000000  0.4403300000000  0.4509590000000 1.0
C      1  0.4466980000000  0.4873630000000  0.5761960000000 1.0
C      1  0.4466970000000  0.5723060000000  0.4728460000000 1.0
C      1  0.5930760000000  0.5453110000000  0.5056240000000 1.0
C      1  0.5930760000000  0.4822160000000  0.4579470000000 1.0
C      1  0.5930770000000  0.4724740000000  0.5364270000000 1.0
C      1  0.4050450000000  0.4895970000000  0.4407230000000 1.0
C      1  0.4050460000000  0.4538650000000  0.5386480000000 1.0
C      1  0.4050450000000  0.5565370000000  0.5206310000000 1.0
C      1  0.5262730000000  0.5729320000000  0.4617970000000 1.0
C      1  0.5262730000000  0.4304500000000  0.4559400000000 1.0
C      1  0.5262740000000  0.4966190000000  0.5822620000000 1.0
C      1  0.4319110000000  0.5441550000000  0.4630150000000 1.0
C      1  0.4319120000000  0.4458920000000  0.4802530000000 1.0
C      1  0.4319120000000  0.5099520000000  0.5567330000000 1.0
C      1  0.5991990000000  0.5340800000000  0.4780670000000 1.0
C      1  0.5992000000000  0.4639660000000  0.4814520000000 1.0
C      1  0.5992000000000  0.5019550000000  0.5404800000000 1.0
C      1  0.4666270000000  0.5064120000000  0.3987830000000 1.0
C      1  0.4666280000000  0.4091370000000  0.5450550000000 1.0
C      1  0.4666280000000  0.5844500000000  0.5561620000000 1.0
C      1  0.5846640000000  0.5492010000000  0.4585650000000 1.0
C      1  0.5846650000000  0.4395170000000  0.4781080000000 1.0
C      1  0.5846650000000  0.5112830000000  0.5633250000000 1.0
C      1  0.4777430000000  0.5612260000000  0.4347040000000 1.0
C      1  0.4777440000000  0.4128380000000  0.4796250000000 1.0
C      1  0.4777440000000  0.5259350000000  0.5856720000000 1.0
C      1  0.4384260000000  0.5184280000000  0.4955620000000 1.0
C      1  0.4384260000000  0.4869420000000  0.4862600000000 1.0
C      1  0.4384270000000  0.4946290000000  0.5181790000000 1.0
C      1  0.5849920000000  0.5195880000000  0.5196190000000 1.0
C      1  0.5849910000000  0.5071980000000  0.4732270000000 1.0
C      1  0.5849920000000  0.4732160000000  0.5071530000000 1.0
C      1  0.4603240000000  0.4784730000000  0.4708480000000 1.0
C      1  0.4603240000000  0.4855170000000  0.5332190000000 1.0
C      1  0.4603240000000  0.5360100000000  0.4959330000000 1.0
C      1  0.4467070000000  0.5637520000000  0.5488130000000 1.0
C      1  0.4467060000000  0.5103960000000  0.4203830000000 1.0
C      1  0.4467070000000  0.4258510000000  0.5308060000000 1.0
C      1  0.5413710000000  0.5416760000000  0.5046490000000 1.0
C      1  0.5413710000000  0.4831890000000  0.4615830000000 1.0
C      1  0.5413720000000  0.4751360000000  0.5337670000000 1.0
C      1  0.4976400000000  0.5106060000000  0.5159300000000 1.0
C      1  0.4976400000000  0.5084920000000  0.4828500000000 1.0
C      1  0.4976400000000  0.4809010000000  0.5012210000000 1.0
C      1  0.4937140000000  0.5135750000000  0.4061540000000 1.0
C      1  0.4937150000000  0.4119390000000  0.5351670000000 1.0
C      1  0.4937150000000  0.5744850000000  0.5586790000000 1.0
C      1  0.5002260000000  0.5343780000000  0.5691320000000 1.0
C      1  0.5002250000000  0.5426810000000  0.4356610000000 1.0
C      1  0.5002260000000  0.4229410000000  0.4952060000000 1.0
C      1  0.4725190000000  0.4229010000000  0.4529490000000 1.0
C      1  0.4725200000000  0.4978020000000  0.5902950000000 1.0
C      1  0.4725180000000  0.5792970000000  0.4567560000000 1.0
C      1  0.5206070000000  0.5947570000000  0.5197450000000 1.0
C      1  0.5206060000000  0.4697210000000  0.4080660000000 1.0
C      1  0.5206080000000  0.4355220000000  0.5721890000000 1.0
C      1  0.4311310000000  0.5692450000000  0.5239460000000 1.0
C      1  0.4311310000000  0.4861150000000  0.4280600000000 1.0
C      1  0.4311320000000  0.4446400000000  0.5479960000000 1.0
C      1  0.5564190000000  0.5044600000000  0.4761900000000 1.0
C      1  0.5564190000000  0.4771500000000  0.5080420000000 1.0
C      1  0.5564190000000  0.5183900000000  0.5157670000000 1.0
C      1  0.4460380000000  0.5829110000000  0.5009330000000 1.0
C      1  0.4460380000000  0.4593510000000  0.4277310000000 1.0
C      1  0.4460390000000  0.4577370000000  0.5713380000000 1.0
C      1  0.5113600000000  0.5248150000000  0.4613880000000 1.0
C      1  0.5113610000000  0.4541540000000  0.4978150000000 1.0
C      1  0.5113610000000  0.5210310000000  0.5407960000000 1.0
C      1  0.5544210000000  0.4407390000000  0.4430730000000 1.0
C      1  0.5544220000000  0.4803310000000  0.5797840000000 1.0
C      1  0.5544210000000  0.5789310000000  0.4771420000000 1.0
C      1  0.5582510000000  0.5402600000000  0.4524050000000 1.0
C      1  0.5582510000000  0.4386520000000  0.4889310000000 1.0
C      1  0.5582520000000  0.5210880000000  0.5586630000000 1.0
C      1  0.4711150000000  0.5425530000000  0.5220200000000 1.0
C      1  0.4711150000000  0.4977930000000  0.4521380000000 1.0
C      1  0.4711160000000  0.4596540000000  0.5258430000000 1.0
C      1  0.4103090000000  0.4712040000000  0.4884440000000 1.0
C      1  0.4103090000000  0.5043890000000  0.5307170000000 1.0
C      1  0.4103080000000  0.5244060000000  0.4808410000000 1.0
C      1  0.4659570000000  0.6074020000000  0.5382380000000 1.0
C      1  0.4659560000000  0.4794140000000  0.3878680000000 1.0
C      1  0.4659580000000  0.4131840000000  0.5738940000000 1.0
C      1  0.5265650000000  0.5326600000000  0.5836810000000 1.0
C      1  0.5265640000000  0.5561410000000  0.4298750000000 1.0
C      1  0.5265650000000  0.4112000000000  0.4864430000000 1.0
C      1  0.4967070000000  0.4500990000000  0.4160190000000 1.0
C      1  0.4967080000000  0.4522210000000  0.5852060000000 1.0
C      1  0.4967070000000  0.5976800000000  0.4987750000000 1.0
C      1  0.5342960000000  0.5422770000000  0.4732230000000 1.0
C      1  0.5342960000000  0.4556730000000  0.4767750000000 1.0
C      1  0.5342960000000  0.5020510000000  0.5500010000000 1.0
C      1  0.4729700000000  0.5057900000000  0.5491560000000 1.0
C      1  0.4729690000000  0.5396750000000  0.4704080000000 1.0
C      1  0.4729700000000  0.4545350000000  0.4804360000000 1.0
C      1  0.4566530000000  0.4396920000000  0.5040400000000 1.0
C      1  0.4566530000000  0.5336520000000  0.5502080000000 1.0
C      1  0.4566530000000  0.5266550000000  0.4457530000000 1.0
C      1  0.5113030000000  0.5711390000000  0.5358210000000 1.0
C      1  0.5113020000000  0.4954530000000  0.4204810000000 1.0
C      1  0.5113040000000  0.4334080000000  0.5436970000000 1.0
C      1  0.5203350000000  0.5452440000000  0.5265450000000 1.0
C      1  0.5203340000000  0.5003670000000  0.4475450000000 1.0
C      1  0.5203350000000  0.4543890000000  0.5259100000000 1.0
C      1  0.5553720000000  0.5115050000000  0.4074630000000 1.0
C      1  0.5553730000000  0.4141090000000  0.5363040000000 1.0
C      1  0.5553730000000  0.5743870000000  0.5562310000000 1.0
END
