TITL C-862132-7359-277 6.78714854539415e-05 125000 -230.185352070706 0 0 50 (Cs) n - 1
REM
REM in /home/nfs/bkarasulu/CARBON/AIRSS/Generating-Clusters/TERSOFF/Higher-Symm/FIRE-HFTN
REM
REM
REM
REM
REM
REM ./C.cell (b20cbc046b6831c77cfcea5457e17084)
REM AIRSS Version 0.9.1 bugfix July 2018 build 013d7b7c2542+ Fri, 06 Jul 2018 19:26:36 +0100
REM compiler GCC version 9.2.1 20190827 (Red Hat 9.2.1-1)
REM options -cpp -mtune=generic -march=x86-64 -g -O0 -fpre-include=/usr/include/finclude/math-vector-fortran.h
REM seed 467777031 2130801140 1045752769 1111359452 -2094289275 1405334901 1670376655 -219807029 -223175294 -728988474 586759835 1947968520 1077679458 813060287 -894545486 335477322 1248297705 2099471007 -1347430114 -1662426303 129713800 621547433 1181777339 -1850510018 -918262879 -1781939680 -1102582233 -534738867 -983162495 -1484529520 -1166194581 -922080932 1121676827
REM
CELL 1.54180   50.00000   50.00000   50.00000   90.00000   90.00000   90.00000
LATT -1
SFAC C  
C      1  0.4653830000000  0.4850000000000  0.5508720000000 1.0
C      1  0.4534110000000  0.5361050000000  0.5277500000000 1.0
C      1  0.4525150000000  0.5341490000000  0.4682170000000 1.0
C      1  0.4645890000000  0.4849120000000  0.4454730000000 1.0
C      1  0.4610960000000  0.4534650000000  0.4990260000000 1.0
C      1  0.4653830000000  0.5150010000000  0.5508720000000 1.0
C      1  0.4534100000000  0.4638960000000  0.5277510000000 1.0
C      1  0.4525140000000  0.4658500000000  0.4682180000000 1.0
C      1  0.4645890000000  0.5150870000000  0.4454730000000 1.0
C      1  0.4610960000000  0.5465360000000  0.4990250000000 1.0
C      1  0.4951710000000  0.5327060000000  0.5271640000000 1.0
C      1  0.4936950000000  0.5335560000000  0.4759690000000 1.0
C      1  0.5049230000000  0.4847430000000  0.4571620000000 1.0
C      1  0.5057510000000  0.4590020000000  0.5021570000000 1.0
C      1  0.5083140000000  0.4857640000000  0.5454980000000 1.0
C      1  0.4951700000000  0.4672950000000  0.5271650000000 1.0
C      1  0.4936950000000  0.4664440000000  0.4759700000000 1.0
C      1  0.5049230000000  0.5152560000000  0.4571610000000 1.0
C      1  0.5057520000000  0.5409980000000  0.5021560000000 1.0
C      1  0.5083150000000  0.5142370000000  0.5454970000000 1.0
C      1  0.4783640000000  0.4411550000000  0.4628010000000 1.0
C      1  0.4794020000000  0.4458000000000  0.5454140000000 1.0
C      1  0.4891230000000  0.5290630000000  0.5696500000000 1.0
C      1  0.4855590000000  0.5693240000000  0.4963950000000 1.0
C      1  0.4908470000000  0.5253580000000  0.4291000000000 1.0
C      1  0.4783640000000  0.5588450000000  0.4628000000000 1.0
C      1  0.4794030000000  0.5542010000000  0.5454130000000 1.0
C      1  0.4891230000000  0.4709390000000  0.5696510000000 1.0
C      1  0.4855590000000  0.4306760000000  0.4963970000000 1.0
C      1  0.4908470000000  0.4746400000000  0.4291010000000 1.0
C      1  0.5368580000000  0.4816820000000  0.4505500000000 1.0
C      1  0.5360520000000  0.4498480000000  0.5012080000000 1.0
C      1  0.5400670000000  0.4817690000000  0.5520960000000 1.0
C      1  0.5364210000000  0.5476620000000  0.5332920000000 1.0
C      1  0.5347350000000  0.5458840000000  0.4663730000000 1.0
C      1  0.5368580000000  0.5183170000000  0.4505490000000 1.0
C      1  0.5360530000000  0.5501520000000  0.5012060000000 1.0
C      1  0.5400670000000  0.5182320000000  0.5520950000000 1.0
C      1  0.5364210000000  0.4523390000000  0.5332940000000 1.0
C      1  0.5347350000000  0.4541150000000  0.4663740000000 1.0
C      1  0.5179790000000  0.5788230000000  0.4888790000000 1.0
C      1  0.5213290000000  0.5156230000000  0.4186080000000 1.0
C      1  0.5120800000000  0.4327000000000  0.4590370000000 1.0
C      1  0.5137970000000  0.4388990000000  0.5518360000000 1.0
C      1  0.5225380000000  0.5397200000000  0.5754720000000 1.0
C      1  0.5179780000000  0.4211760000000  0.4888810000000 1.0
C      1  0.5213290000000  0.4843750000000  0.4186090000000 1.0
C      1  0.5120810000000  0.5672990000000  0.4590350000000 1.0
C      1  0.5137980000000  0.5611020000000  0.5518350000000 1.0
C      1  0.5225370000000  0.4602820000000  0.5754730000000 1.0
END
