TITL C-862503-991-153 -0.00769624167369719 125000 -692.932957976993 0 0 126 (C2) n - 1
REM
REM in /home/nfs/bkarasulu/CARBON/AIRSS/Generating-Clusters/TERSOFF/Higher-Symm/FIRE-HFTN
REM
REM
REM
REM
REM
REM ./C.cell (b20cbc046b6831c77cfcea5457e17084)
REM AIRSS Version 0.9.1 bugfix July 2018 build 013d7b7c2542+ Fri, 06 Jul 2018 19:26:36 +0100
REM compiler GCC version 9.2.1 20190827 (Red Hat 9.2.1-1)
REM options -cpp -mtune=generic -march=x86-64 -g -O0 -fpre-include=/usr/include/finclude/math-vector-fortran.h
REM seed -1851180374 1726975942 -1436903698 -1263079417 950682470 -493687109 1817977394 -1501131339 2092356540 -1305085755 615715015 1744834213 -718517690 -1427643971 -398148892 -145214736 1061803774 1856833112 725540259 -2038752699 324328659 1142296044 1296777506 -1688205324 -1491015144 -621109089 347194254 543051409 -619009345 -1972597169 -2068757107 1862498427 -1454609303
REM
CELL 1.54180   50.00000   50.00000   50.00000   90.00000   90.00000   90.00000
LATT -1
SFAC C  
C      1  0.4294270000000  0.4738470000000  0.5665300000000 1.0
C      1  0.4294270000000  0.5261530000000  0.4334700000000 1.0
C      1  0.5918900000000  0.4708930000000  0.4823280000000 1.0
C      1  0.5918900000000  0.5291070000000  0.5176720000000 1.0
C      1  0.5722270000000  0.4709590000000  0.5671360000000 1.0
C      1  0.5722270000000  0.5290410000000  0.4328640000000 1.0
C      1  0.4930480000000  0.4948140000000  0.4142270000000 1.0
C      1  0.4930480000000  0.5051860000000  0.5857730000000 1.0
C      1  0.5680390000000  0.5511550000000  0.4910680000000 1.0
C      1  0.5680390000000  0.4488450000000  0.5089320000000 1.0
C      1  0.5011900000000  0.5905990000000  0.4511310000000 1.0
C      1  0.5011900000000  0.4094010000000  0.5488690000000 1.0
C      1  0.5054800000000  0.4862440000000  0.5005170000000 1.0
C      1  0.5054800000000  0.5137560000000  0.4994830000000 1.0
C      1  0.5459470000000  0.4101200000000  0.5287220000000 1.0
C      1  0.5459470000000  0.5898800000000  0.4712780000000 1.0
C      1  0.5634190000000  0.5622100000000  0.5182630000000 1.0
C      1  0.5634190000000  0.4377900000000  0.4817370000000 1.0
C      1  0.5186670000000  0.5973470000000  0.4753020000000 1.0
C      1  0.5186670000000  0.4026530000000  0.5246980000000 1.0
C      1  0.5521220000000  0.5617920000000  0.4686260000000 1.0
C      1  0.5521220000000  0.4382080000000  0.5313740000000 1.0
C      1  0.4561980000000  0.4344300000000  0.5768170000000 1.0
C      1  0.4561980000000  0.5655700000000  0.4231830000000 1.0
C      1  0.4700850000000  0.5034120000000  0.4606840000000 1.0
C      1  0.4700850000000  0.4965880000000  0.5393160000000 1.0
C      1  0.5694980000000  0.4893010000000  0.4520130000000 1.0
C      1  0.5694980000000  0.5106990000000  0.5479870000000 1.0
C      1  0.4961390000000  0.5768360000000  0.5550250000000 1.0
C      1  0.4961390000000  0.4231640000000  0.4449750000000 1.0
C      1  0.5523190000000  0.5535460000000  0.5663320000000 1.0
C      1  0.5523190000000  0.4464540000000  0.4336680000000 1.0
C      1  0.5266710000000  0.4546480000000  0.4704040000000 1.0
C      1  0.5266710000000  0.5453520000000  0.5295960000000 1.0
C      1  0.4537450000000  0.5204700000000  0.4953750000000 1.0
C      1  0.4537450000000  0.4795300000000  0.5046250000000 1.0
C      1  0.5897050000000  0.5092430000000  0.4654970000000 1.0
C      1  0.5897050000000  0.4907570000000  0.5345030000000 1.0
C      1  0.5282420000000  0.4555530000000  0.5211070000000 1.0
C      1  0.5282420000000  0.5444470000000  0.4788930000000 1.0
C      1  0.5747790000000  0.4559270000000  0.4568360000000 1.0
C      1  0.5747790000000  0.5440730000000  0.5431640000000 1.0
C      1  0.4828430000000  0.4720370000000  0.5157210000000 1.0
C      1  0.4828430000000  0.5279630000000  0.4842790000000 1.0
C      1  0.5176380000000  0.4884390000000  0.5561360000000 1.0
C      1  0.5176380000000  0.5115610000000  0.4438640000000 1.0
C      1  0.5557260000000  0.5526630000000  0.4401930000000 1.0
C      1  0.5557260000000  0.4473370000000  0.5598070000000 1.0
C      1  0.4545100000000  0.4556130000000  0.4700670000000 1.0
C      1  0.4545100000000  0.5443870000000  0.5299330000000 1.0
C      1  0.4118560000000  0.4801000000000  0.5065900000000 1.0
C      1  0.4118560000000  0.5199000000000  0.4934100000000 1.0
C      1  0.5005090000000  0.5580920000000  0.5298160000000 1.0
C      1  0.5005090000000  0.4419080000000  0.4701840000000 1.0
C      1  0.4983750000000  0.6006780000000  0.5352610000000 1.0
C      1  0.4983750000000  0.3993220000000  0.4647390000000 1.0
C      1  0.4756320000000  0.5871490000000  0.5025000000000 1.0
C      1  0.4756320000000  0.4128510000000  0.4975000000000 1.0
C      1  0.5167580000000  0.4824070000000  0.4012020000000 1.0
C      1  0.5167580000000  0.5175930000000  0.5987980000000 1.0
C      1  0.4567850000000  0.5860770000000  0.5271270000000 1.0
C      1  0.4567850000000  0.4139230000000  0.4728730000000 1.0
C      1  0.4374320000000  0.5537520000000  0.4415600000000 1.0
C      1  0.4374320000000  0.4462480000000  0.5584400000000 1.0
C      1  0.5772810000000  0.5217490000000  0.4909370000000 1.0
C      1  0.5772810000000  0.4782510000000  0.5090630000000 1.0
C      1  0.4564540000000  0.5094060000000  0.4306410000000 1.0
C      1  0.4564540000000  0.4905940000000  0.5693590000000 1.0
C      1  0.4769360000000  0.5214270000000  0.4101800000000 1.0
C      1  0.4769360000000  0.4785730000000  0.5898200000000 1.0
C      1  0.4165540000000  0.4909160000000  0.4732160000000 1.0
C      1  0.4165540000000  0.5090840000000  0.5267840000000 1.0
C      1  0.5514600000000  0.4985260000000  0.4791100000000 1.0
C      1  0.5514600000000  0.5014740000000  0.5208900000000 1.0
C      1  0.5089200000000  0.5943770000000  0.5059430000000 1.0
C      1  0.5089200000000  0.4056230000000  0.4940570000000 1.0
C      1  0.5308040000000  0.5192330000000  0.4186380000000 1.0
C      1  0.5308040000000  0.4807670000000  0.5813620000000 1.0
C      1  0.4294970000000  0.5644400000000  0.5255710000000 1.0
C      1  0.4294970000000  0.4355610000000  0.4744290000000 1.0
C      1  0.4649390000000  0.5631270000000  0.5549170000000 1.0
C      1  0.4649390000000  0.4368730000000  0.4450830000000 1.0
C      1  0.5037780000000  0.5599600000000  0.4363220000000 1.0
C      1  0.5037780000000  0.4400400000000  0.5636780000000 1.0
C      1  0.4976350000000  0.5523630000000  0.4681030000000 1.0
C      1  0.4976350000000  0.4476370000000  0.5318970000000 1.0
C      1  0.4823550000000  0.6101110000000  0.4406480000000 1.0
C      1  0.4823550000000  0.3898890000000  0.5593520000000 1.0
C      1  0.5321250000000  0.5762600000000  0.5573920000000 1.0
C      1  0.5321250000000  0.4237400000000  0.4426080000000 1.0
C      1  0.5399000000000  0.5269310000000  0.5797410000000 1.0
C      1  0.5399000000000  0.4730690000000  0.4202590000000 1.0
C      1  0.5317970000000  0.5176820000000  0.4670140000000 1.0
C      1  0.5317970000000  0.4823180000000  0.5329860000000 1.0
C      1  0.4810480000000  0.4483990000000  0.5817040000000 1.0
C      1  0.4810480000000  0.5516010000000  0.4182960000000 1.0
C      1  0.4181210000000  0.4973480000000  0.4428320000000 1.0
C      1  0.4181210000000  0.5026520000000  0.5571680000000 1.0
C      1  0.5317300000000  0.5276200000000  0.5077930000000 1.0
C      1  0.5317300000000  0.4723800000000  0.4922070000000 1.0
C      1  0.5191060000000  0.5303780000000  0.5552980000000 1.0
C      1  0.5191060000000  0.4696220000000  0.4447020000000 1.0
C      1  0.4483720000000  0.4843640000000  0.4748570000000 1.0
C      1  0.4483720000000  0.5156360000000  0.5251430000000 1.0
C      1  0.4088220000000  0.5413230000000  0.5293960000000 1.0
C      1  0.4088220000000  0.4586770000000  0.4706040000000 1.0
C      1  0.4421100000000  0.5580840000000  0.4698960000000 1.0
C      1  0.4421100000000  0.4419160000000  0.5301040000000 1.0
C      1  0.4707480000000  0.5678810000000  0.4793730000000 1.0
C      1  0.4707480000000  0.4321190000000  0.5206270000000 1.0
C      1  0.4509560000000  0.4519340000000  0.4221950000000 1.0
C      1  0.4509560000000  0.5480660000000  0.5778050000000 1.0
C      1  0.4405610000000  0.5192700000000  0.5762000000000 1.0
C      1  0.4405610000000  0.4807300000000  0.4238000000000 1.0
C      1  0.4956700000000  0.5091690000000  0.5556130000000 1.0
C      1  0.4956700000000  0.4908310000000  0.4443870000000 1.0
C      1  0.5303040000000  0.4505880000000  0.5747180000000 1.0
C      1  0.5303040000000  0.5494120000000  0.4252820000000 1.0
C      1  0.4794640000000  0.5472550000000  0.5148740000000 1.0
C      1  0.4794640000000  0.4527450000000  0.4851260000000 1.0
C      1  0.5589260000000  0.5003660000000  0.4239410000000 1.0
C      1  0.5589260000000  0.4996340000000  0.5760590000000 1.0
C      1  0.4204160000000  0.4514010000000  0.5120400000000 1.0
C      1  0.4204160000000  0.5485990000000  0.4879600000000 1.0
C      1  0.5363080000000  0.4207850000000  0.4756860000000 1.0
C      1  0.5363080000000  0.5792150000000  0.5243140000000 1.0
END
