TITL C-862503-991-127 -216.640319991758 125000 -857.662340304485 0 0 154 (C1) n - 1
REM
REM in /home/nfs/bkarasulu/CARBON/AIRSS/Generating-Clusters/TERSOFF/Higher-Symm/FIRE-HFTN
REM
REM
REM
REM
REM
REM ./C.cell (b20cbc046b6831c77cfcea5457e17084)
REM AIRSS Version 0.9.1 bugfix July 2018 build 013d7b7c2542+ Fri, 06 Jul 2018 19:26:36 +0100
REM compiler GCC version 9.2.1 20190827 (Red Hat 9.2.1-1)
REM options -cpp -mtune=generic -march=x86-64 -g -O0 -fpre-include=/usr/include/finclude/math-vector-fortran.h
REM seed -1140692292 -1264938574 -1160735978 -1031913739 462004100 -10175070 349773345 326828280 -824210962 -1412857805 1520801964 2141270048 -1770251512 -875764080 -1959939705 818373187 -582549944 1696318903 466443069 -1785947169 156115472 778665204 -400613736 -1296905784 400432148 1788597088 728627528 227587305 792246662 -1947940481 -1096239182 1015159447 -259379902
REM
CELL 1.54180   50.00000   50.00000   50.00000   90.00000   90.00000   90.00000
LATT -1
SFAC C  
C      1  0.4013640000000  0.5355780000000  0.5049500000000 1.0
C      1  0.4060640000000  0.4668990000000  0.4958800000000 1.0
C      1  0.4463170000000  0.4347310000000  0.5677210000000 1.0
C      1  0.4458990000000  0.5656950000000  0.4334840000000 1.0
C      1  0.4731270000000  0.4776860000000  0.5873560000000 1.0
C      1  0.4732300000000  0.5230540000000  0.4116330000000 1.0
C      1  0.4962410000000  0.4447050000000  0.4365310000000 1.0
C      1  0.4961770000000  0.5550890000000  0.5636580000000 1.0
C      1  0.4956700000000  0.5801370000000  0.4854270000000 1.0
C      1  0.4962220000000  0.4191990000000  0.5150140000000 1.0
C      1  0.4366720000000  0.4307730000000  0.4451030000000 1.0
C      1  0.4365010000000  0.5698120000000  0.5550690000000 1.0
C      1  0.4766480000000  0.5754440000000  0.5659600000000 1.0
C      1  0.4768930000000  0.4241900000000  0.4350390000000 1.0
C      1  0.5518320000000  0.4956900000000  0.4843040000000 1.0
C      1  0.5529580000000  0.5050100000000  0.5157620000000 1.0
C      1  0.4120080000000  0.4400840000000  0.5077860000000 1.0
C      1  0.4147550000000  0.5592960000000  0.4919890000000 1.0
C      1  0.5080550000000  0.5188630000000  0.4539430000000 1.0
C      1  0.5084660000000  0.4814370000000  0.5454300000000 1.0
C      1  0.4739950000000  0.5964550000000  0.4657650000000 1.0
C      1  0.4739750000000  0.4034210000000  0.5353450000000 1.0
C      1  0.5673750000000  0.5357910000000  0.5126010000000 1.0
C      1  0.5673670000000  0.4646780000000  0.4876130000000 1.0
C      1  0.5414920000000  0.4506560000000  0.4125410000000 1.0
C      1  0.5414540000000  0.5494100000000  0.5876050000000 1.0
C      1  0.5039990000000  0.4956130000000  0.4380510000000 1.0
C      1  0.5043130000000  0.5045600000000  0.5613880000000 1.0
C      1  0.5725410000000  0.4452380000000  0.5385060000000 1.0
C      1  0.5714210000000  0.5546160000000  0.4618570000000 1.0
C      1  0.4669700000000  0.4589020000000  0.5625640000000 1.0
C      1  0.4669640000000  0.5415800000000  0.4365360000000 1.0
C      1  0.5259670000000  0.4819800000000  0.5219600000000 1.0
C      1  0.5242490000000  0.5180400000000  0.4781990000000 1.0
C      1  0.4245180000000  0.6056310000000  0.5088650000000 1.0
C      1  0.4234970000000  0.3949070000000  0.4905100000000 1.0
C      1  0.5097820000000  0.5689070000000  0.4414400000000 1.0
C      1  0.5099790000000  0.4316670000000  0.5585570000000 1.0
C      1  0.4088970000000  0.4191130000000  0.4868600000000 1.0
C      1  0.4106610000000  0.5810940000000  0.5123560000000 1.0
C      1  0.5243920000000  0.4357740000000  0.4335790000000 1.0
C      1  0.5242410000000  0.5641330000000  0.5665770000000 1.0
C      1  0.4900880000000  0.4429200000000  0.3950720000000 1.0
C      1  0.4897840000000  0.5571240000000  0.6050680000000 1.0
C      1  0.4269370000000  0.5244030000000  0.5715300000000 1.0
C      1  0.4262430000000  0.4756480000000  0.4260720000000 1.0
C      1  0.5356590000000  0.5805460000000  0.5449960000000 1.0
C      1  0.5359970000000  0.4192610000000  0.4551050000000 1.0
C      1  0.4188090000000  0.4460520000000  0.5700420000000 1.0
C      1  0.4184090000000  0.5546410000000  0.4306170000000 1.0
C      1  0.4598680000000  0.4763050000000  0.4612730000000 1.0
C      1  0.4610270000000  0.5237680000000  0.5365740000000 1.0
C      1  0.4415150000000  0.4507550000000  0.4204870000000 1.0
C      1  0.4413740000000  0.5490200000000  0.5787930000000 1.0
C      1  0.4952090000000  0.5440170000000  0.4457140000000 1.0
C      1  0.4952880000000  0.4563450000000  0.5533470000000 1.0
C      1  0.5740090000000  0.4123410000000  0.4934460000000 1.0
C      1  0.5732300000000  0.5873790000000  0.5060610000000 1.0
C      1  0.4097990000000  0.4697040000000  0.5550490000000 1.0
C      1  0.4094690000000  0.5309510000000  0.4453210000000 1.0
C      1  0.4982800000000  0.4055340000000  0.5546430000000 1.0
C      1  0.4978530000000  0.5948240000000  0.4461630000000 1.0
C      1  0.4275460000000  0.4849790000000  0.5052270000000 1.0
C      1  0.4335160000000  0.5118270000000  0.4927710000000 1.0
C      1  0.6055790000000  0.4726870000000  0.5030260000000 1.0
C      1  0.6055390000000  0.5276790000000  0.4971240000000 1.0
C      1  0.5371990000000  0.4110930000000  0.5317790000000 1.0
C      1  0.5363000000000  0.5886310000000  0.4676470000000 1.0
C      1  0.5683500000000  0.4423160000000  0.5081470000000 1.0
C      1  0.5663280000000  0.5576500000000  0.4920210000000 1.0
C      1  0.4111180000000  0.5677110000000  0.5396570000000 1.0
C      1  0.4112470000000  0.4337440000000  0.4602270000000 1.0
C      1  0.4704290000000  0.3854320000000  0.5085390000000 1.0
C      1  0.4714920000000  0.6150460000000  0.4919760000000 1.0
C      1  0.4526110000000  0.6064130000000  0.5137880000000 1.0
C      1  0.4518470000000  0.3950150000000  0.4868270000000 1.0
C      1  0.4882820000000  0.5713690000000  0.5258220000000 1.0
C      1  0.4891080000000  0.4293100000000  0.4748870000000 1.0
C      1  0.5259290000000  0.4904770000000  0.4165150000000 1.0
C      1  0.5259770000000  0.5096950000000  0.5832330000000 1.0
C      1  0.5399210000000  0.4353700000000  0.5117900000000 1.0
C      1  0.5378330000000  0.5648950000000  0.4886280000000 1.0
C      1  0.4483720000000  0.4636110000000  0.5373560000000 1.0
C      1  0.4499660000000  0.5351460000000  0.4619680000000 1.0
C      1  0.4022990000000  0.4614720000000  0.4669030000000 1.0
C      1  0.3994110000000  0.5405150000000  0.5341240000000 1.0
C      1  0.5579850000000  0.4954340000000  0.4082480000000 1.0
C      1  0.5579970000000  0.5046510000000  0.5917560000000 1.0
C      1  0.5146360000000  0.3984180000000  0.4988820000000 1.0
C      1  0.5144540000000  0.6005500000000  0.5012760000000 1.0
C      1  0.5077260000000  0.4902580000000  0.3904650000000 1.0
C      1  0.5076000000000  0.5097950000000  0.6091990000000 1.0
C      1  0.5711560000000  0.4674580000000  0.4124520000000 1.0
C      1  0.5712310000000  0.5326680000000  0.5877250000000 1.0
C      1  0.5557820000000  0.4798850000000  0.5733930000000 1.0
C      1  0.5557860000000  0.5202980000000  0.4264510000000 1.0
C      1  0.4762090000000  0.4902130000000  0.4020780000000 1.0
C      1  0.4762220000000  0.5100150000000  0.5977190000000 1.0
C      1  0.5625000000000  0.5114030000000  0.5464370000000 1.0
C      1  0.5619060000000  0.4888670000000  0.4537270000000 1.0
C      1  0.5403210000000  0.5259550000000  0.5602180000000 1.0
C      1  0.5399790000000  0.4742030000000  0.4396500000000 1.0
C      1  0.5132300000000  0.5874450000000  0.5272260000000 1.0
C      1  0.5136150000000  0.4124270000000  0.4731140000000 1.0
C      1  0.5642200000000  0.4227260000000  0.4644310000000 1.0
C      1  0.5638970000000  0.5774950000000  0.5355690000000 1.0
C      1  0.4556380000000  0.4755440000000  0.4908970000000 1.0
C      1  0.4590430000000  0.5231130000000  0.5067460000000 1.0
C      1  0.4679030000000  0.4598960000000  0.4062690000000 1.0
C      1  0.4674850000000  0.5401590000000  0.5937980000000 1.0
C      1  0.4664840000000  0.3855400000000  0.4477620000000 1.0
C      1  0.4666250000000  0.6147170000000  0.5542290000000 1.0
C      1  0.5761850000000  0.5498600000000  0.5366270000000 1.0
C      1  0.5758410000000  0.4505020000000  0.4635300000000 1.0
C      1  0.4287440000000  0.4863610000000  0.5376740000000 1.0
C      1  0.4291500000000  0.5138350000000  0.4606480000000 1.0
C      1  0.4495110000000  0.4103010000000  0.5513320000000 1.0
C      1  0.4487290000000  0.5884970000000  0.4522220000000 1.0
C      1  0.5972080000000  0.4868630000000  0.5283740000000 1.0
C      1  0.5972170000000  0.5134880000000  0.4717550000000 1.0
C      1  0.6022650000000  0.5157900000000  0.5245930000000 1.0
C      1  0.6023040000000  0.4845630000000  0.4755640000000 1.0
C      1  0.4980700000000  0.6251940000000  0.4997150000000 1.0
C      1  0.4966870000000  0.3748480000000  0.5003910000000 1.0
C      1  0.5051470000000  0.4759860000000  0.5967530000000 1.0
C      1  0.5053110000000  0.5241680000000  0.4026250000000 1.0
C      1  0.4366260000000  0.4397260000000  0.5242760000000 1.0
C      1  0.4414690000000  0.5571510000000  0.4792170000000 1.0
C      1  0.5192100000000  0.5435110000000  0.4923780000000 1.0
C      1  0.5213950000000  0.4565570000000  0.5077670000000 1.0
C      1  0.6018340000000  0.4026510000000  0.4937940000000 1.0
C      1  0.6012990000000  0.5962880000000  0.5049700000000 1.0
C      1  0.4806540000000  0.4797210000000  0.5046960000000 1.0
C      1  0.4866760000000  0.5144280000000  0.4967520000000 1.0
C      1  0.5545320000000  0.5744870000000  0.4477710000000 1.0
C      1  0.5553690000000  0.4251560000000  0.5519950000000 1.0
C      1  0.5285770000000  0.5350930000000  0.4210880000000 1.0
C      1  0.5285540000000  0.4650880000000  0.5784930000000 1.0
C      1  0.4618830000000  0.4140400000000  0.4607270000000 1.0
C      1  0.4618060000000  0.5867480000000  0.5404230000000 1.0
C      1  0.5769700000000  0.4721150000000  0.5496620000000 1.0
C      1  0.5767180000000  0.5280210000000  0.4506470000000 1.0
C      1  0.5168680000000  0.4575770000000  0.3920870000000 1.0
C      1  0.5166150000000  0.5423580000000  0.6078710000000 1.0
C      1  0.4881250000000  0.5278530000000  0.5522500000000 1.0
C      1  0.4878120000000  0.4721850000000  0.4472140000000 1.0
C      1  0.5833890000000  0.4683780000000  0.4403870000000 1.0
C      1  0.5837190000000  0.5319660000000  0.5598310000000 1.0
C      1  0.5542440000000  0.6035520000000  0.4883560000000 1.0
C      1  0.5547830000000  0.3961060000000  0.5108440000000 1.0
C      1  0.4900520000000  0.5506200000000  0.5001660000000 1.0
C      1  0.4930620000000  0.4493160000000  0.5012610000000 1.0
C      1  0.4388350000000  0.4897250000000  0.4476970000000 1.0
C      1  0.4387320000000  0.5110320000000  0.5491940000000 1.0
END
