TITL C-862500-986-1338 0.000889819388436102 125000 -282.689080007733 0 0 52 (Ci) n - 1
REM
REM in /home/nfs/bkarasulu/CARBON/AIRSS/Generating-Clusters/TERSOFF/Higher-Symm/FIRE-HFTN
REM
REM
REM
REM
REM
REM ./C.cell (b20cbc046b6831c77cfcea5457e17084)
REM AIRSS Version 0.9.1 bugfix July 2018 build 013d7b7c2542+ Fri, 06 Jul 2018 19:26:36 +0100
REM compiler GCC version 9.2.1 20190827 (Red Hat 9.2.1-1)
REM options -cpp -mtune=generic -march=x86-64 -g -O0 -fpre-include=/usr/include/finclude/math-vector-fortran.h
REM seed -2112601450 1904251112 -1899204366 1667218684 91656916 1226239902 -805371407 -455471842 1492097346 1977762939 -1758572851 -1881187118 1632616738 706550744 1224704004 758303258 1531247934 -725419928 -1976054771 1268976207 1490066966 -2037621306 -2012458124 -1921052435 5868316 326271378 1208995657 153006660 -225864933 -141072487 -307176757 1685405964 -1489983159
REM
CELL 1.54180   50.00000   50.00000   50.00000   90.00000   90.00000   90.00000
LATT -1
SFAC C  
C      1  0.4823170000000  0.4771800000000  0.4875480000000 1.0
C      1  0.5067740000000  0.4921350000000  0.5182210000000 1.0
C      1  0.4932260000000  0.5078650000000  0.4817790000000 1.0
C      1  0.5176830000000  0.5228200000000  0.5124520000000 1.0
C      1  0.5171300000000  0.4748050000000  0.4916910000000 1.0
C      1  0.4730300000000  0.4928140000000  0.5154940000000 1.0
C      1  0.5269700000000  0.5071860000000  0.4845060000000 1.0
C      1  0.4828700000000  0.5251950000000  0.5083090000000 1.0
C      1  0.5537030000000  0.4499710000000  0.5084670000000 1.0
C      1  0.4427210000000  0.4348150000000  0.4826170000000 1.0
C      1  0.5572790000000  0.5651850000000  0.5173830000000 1.0
C      1  0.4462970000000  0.5500290000000  0.4915330000000 1.0
C      1  0.4453750000000  0.4460790000000  0.5096570000000 1.0
C      1  0.5561610000000  0.4391630000000  0.4810830000000 1.0
C      1  0.4438390000000  0.5608370000000  0.5189170000000 1.0
C      1  0.5546250000000  0.5539210000000  0.4903430000000 1.0
C      1  0.4674820000000  0.4402510000000  0.5284210000000 1.0
C      1  0.5334720000000  0.4334160000000  0.4631440000000 1.0
C      1  0.4665280000000  0.5665840000000  0.5368560000000 1.0
C      1  0.5325180000000  0.5597490000000  0.4715790000000 1.0
C      1  0.5326660000000  0.4424870000000  0.5279920000000 1.0
C      1  0.4649930000000  0.4308020000000  0.4638430000000 1.0
C      1  0.5350070000000  0.5691980000000  0.5361570000000 1.0
C      1  0.4673340000000  0.5575130000000  0.4720080000000 1.0
C      1  0.5284380000000  0.5422190000000  0.4486210000000 1.0
C      1  0.4761360000000  0.5452410000000  0.5539310000000 1.0
C      1  0.5238640000000  0.4547590000000  0.4460690000000 1.0
C      1  0.4715620000000  0.4577810000000  0.5513790000000 1.0
C      1  0.4726150000000  0.5398850000000  0.4491970000000 1.0
C      1  0.5289280000000  0.5479090000000  0.5549840000000 1.0
C      1  0.4710720000000  0.4520910000000  0.4450160000000 1.0
C      1  0.5273850000000  0.4601150000000  0.5508030000000 1.0
C      1  0.5150670000000  0.5900290000000  0.5278380000000 1.0
C      1  0.4838770000000  0.5816040000000  0.4774890000000 1.0
C      1  0.5161230000000  0.4183960000000  0.5225110000000 1.0
C      1  0.4849330000000  0.4099710000000  0.4721620000000 1.0
C      1  0.4841410000000  0.5889030000000  0.5278550000000 1.0
C      1  0.5145160000000  0.5826230000000  0.4773870000000 1.0
C      1  0.4854840000000  0.4173770000000  0.5226130000000 1.0
C      1  0.5158590000000  0.4110970000000  0.4721450000000 1.0
C      1  0.4789060000000  0.4875120000000  0.5492790000000 1.0
C      1  0.5116770000000  0.4789510000000  0.4575250000000 1.0
C      1  0.4883230000000  0.5210490000000  0.5424750000000 1.0
C      1  0.5210940000000  0.5124880000000  0.4507210000000 1.0
C      1  0.5128670000000  0.4856640000000  0.5487770000000 1.0
C      1  0.4793630000000  0.4793350000000  0.4542750000000 1.0
C      1  0.5206370000000  0.5206650000000  0.5457250000000 1.0
C      1  0.4871330000000  0.5143360000000  0.4512230000000 1.0
C      1  0.4750840000000  0.5972390000000  0.5008940000000 1.0
C      1  0.5249160000000  0.4027610000000  0.4991060000000 1.0
C      1  0.4772270000000  0.4011150000000  0.4994600000000 1.0
C      1  0.5227730000000  0.5988850000000  0.5005400000000 1.0
END
