TITL C-862502-1143-1471 0.0858110777675837 125000 -1153.41636251959 0 0 196 (C1) n - 1
REM
REM in /home/nfs/bkarasulu/CARBON/AIRSS/Generating-Clusters/TERSOFF/Higher-Symm/FIRE-HFTN
REM
REM
REM
REM
REM
REM ./C.cell (b20cbc046b6831c77cfcea5457e17084)
REM AIRSS Version 0.9.1 bugfix July 2018 build 013d7b7c2542+ Fri, 06 Jul 2018 19:26:36 +0100
REM compiler GCC version 9.2.1 20190827 (Red Hat 9.2.1-1)
REM options -cpp -mtune=generic -march=x86-64 -g -O0 -fpre-include=/usr/include/finclude/math-vector-fortran.h
REM seed 2046407202 2034274678 -1894127218 -862946550 -1152612521 -2120978089 1832262992 -1027741329 -957357889 -858076102 2009440238 944670505 -864252634 615141464 1036708447 -429181094 -527812899 2010211124 1910361743 122796479 1373675794 1913911622 14830212 162478210 1093190317 -70062712 1709251971 -960607394 -1553710501 -102127787 -782207286 588095620 900379381
REM
CELL 1.54180   50.00000   50.00000   50.00000   90.00000   90.00000   90.00000
LATT -1
SFAC C  
C      1  0.4966880000000  0.4517900000000  0.3862510000000 1.0
C      1  0.4784170000000  0.6175060000000  0.4502860000000 1.0
C      1  0.5383310000000  0.3978830000000  0.4553310000000 1.0
C      1  0.5147820000000  0.5424910000000  0.4164850000000 1.0
C      1  0.5606420000000  0.5437810000000  0.3981190000000 1.0
C      1  0.4987020000000  0.3843860000000  0.5563170000000 1.0
C      1  0.5629180000000  0.5778780000000  0.5622810000000 1.0
C      1  0.4164260000000  0.4350350000000  0.5559740000000 1.0
C      1  0.5660380000000  0.4680410000000  0.5238600000000 1.0
C      1  0.4599100000000  0.6120390000000  0.5234110000000 1.0
C      1  0.3746870000000  0.4798070000000  0.5094140000000 1.0
C      1  0.5827520000000  0.5570080000000  0.5563200000000 1.0
C      1  0.4291750000000  0.6037820000000  0.4586260000000 1.0
C      1  0.5834460000000  0.4200030000000  0.5340480000000 1.0
C      1  0.4393790000000  0.4053480000000  0.4644430000000 1.0
C      1  0.5204160000000  0.3880770000000  0.4780720000000 1.0
C      1  0.4598240000000  0.5557080000000  0.5384070000000 1.0
C      1  0.4347780000000  0.4534890000000  0.4419240000000 1.0
C      1  0.6072790000000  0.5020090000000  0.4535680000000 1.0
C      1  0.5661750000000  0.4109250000000  0.5121900000000 1.0
C      1  0.5915110000000  0.5089760000000  0.4769720000000 1.0
C      1  0.4981430000000  0.5209720000000  0.4251890000000 1.0
C      1  0.4024880000000  0.4405540000000  0.4783170000000 1.0
C      1  0.4672570000000  0.4890630000000  0.4127830000000 1.0
C      1  0.6064230000000  0.5074310000000  0.6045080000000 1.0
C      1  0.4614250000000  0.5388240000000  0.5618790000000 1.0
C      1  0.4950520000000  0.3999240000000  0.4767440000000 1.0
C      1  0.5584300000000  0.4520920000000  0.4746860000000 1.0
C      1  0.5408860000000  0.4263920000000  0.5111920000000 1.0
C      1  0.5884570000000  0.4297180000000  0.4248480000000 1.0
C      1  0.4510790000000  0.3941180000000  0.6040000000000 1.0
C      1  0.4378690000000  0.4470050000000  0.4108790000000 1.0
C      1  0.4011690000000  0.5191900000000  0.5221370000000 1.0
C      1  0.4570910000000  0.5745560000000  0.4243810000000 1.0
C      1  0.5379430000000  0.5328280000000  0.3828100000000 1.0
C      1  0.5849870000000  0.4393640000000  0.4743400000000 1.0
C      1  0.5100970000000  0.5724270000000  0.5236470000000 1.0
C      1  0.5915480000000  0.4894250000000  0.5234040000000 1.0
C      1  0.5226110000000  0.4435060000000  0.5979990000000 1.0
C      1  0.5654810000000  0.6072420000000  0.4547140000000 1.0
C      1  0.4664950000000  0.5417500000000  0.6034680000000 1.0
C      1  0.4018010000000  0.5611130000000  0.5197990000000 1.0
C      1  0.4699890000000  0.4279440000000  0.5078480000000 1.0
C      1  0.4116710000000  0.5664870000000  0.4920250000000 1.0
C      1  0.5380930000000  0.4381470000000  0.4176310000000 1.0
C      1  0.4827930000000  0.5070720000000  0.5012800000000 1.0
C      1  0.4821800000000  0.4776410000000  0.3752270000000 1.0
C      1  0.4906370000000  0.4367820000000  0.5281790000000 1.0
C      1  0.5337770000000  0.5165060000000  0.6270770000000 1.0
C      1  0.5603890000000  0.5316150000000  0.4494690000000 1.0
C      1  0.5262070000000  0.4136390000000  0.4292310000000 1.0
C      1  0.5829930000000  0.5391570000000  0.4757070000000 1.0
C      1  0.5200640000000  0.4928760000000  0.4596170000000 1.0
C      1  0.5471730000000  0.5443640000000  0.5313630000000 1.0
C      1  0.5438190000000  0.5033990000000  0.5193820000000 1.0
C      1  0.3967200000000  0.4735420000000  0.4369290000000 1.0
C      1  0.4096450000000  0.5452540000000  0.4707510000000 1.0
C      1  0.4699510000000  0.5183180000000  0.4177640000000 1.0
C      1  0.6033350000000  0.4686020000000  0.5431340000000 1.0
C      1  0.4998500000000  0.5876000000000  0.5026250000000 1.0
C      1  0.4403780000000  0.5054900000000  0.5947730000000 1.0
C      1  0.4661300000000  0.5336800000000  0.3911100000000 1.0
C      1  0.5586480000000  0.5982570000000  0.5403330000000 1.0
C      1  0.4758430000000  0.5321540000000  0.4619910000000 1.0
C      1  0.5659210000000  0.4376210000000  0.4085640000000 1.0
C      1  0.4636900000000  0.4391860000000  0.5843680000000 1.0
C      1  0.6161870000000  0.4726710000000  0.4823630000000 1.0
C      1  0.4698930000000  0.5698110000000  0.5939410000000 1.0
C      1  0.6018020000000  0.4426260000000  0.5257640000000 1.0
C      1  0.4336560000000  0.5117650000000  0.4842290000000 1.0
C      1  0.4860460000000  0.5345790000000  0.5026580000000 1.0
C      1  0.4201330000000  0.5151800000000  0.5471220000000 1.0
C      1  0.4749680000000  0.5652290000000  0.4008220000000 1.0
C      1  0.4983820000000  0.5468770000000  0.5243890000000 1.0
C      1  0.4583750000000  0.4766670000000  0.5341640000000 1.0
C      1  0.5179070000000  0.4212070000000  0.5286930000000 1.0
C      1  0.5145300000000  0.5831860000000  0.5759130000000 1.0
C      1  0.4410280000000  0.5523280000000  0.4327650000000 1.0
C      1  0.4084830000000  0.4607580000000  0.5438860000000 1.0
C      1  0.4566650000000  0.4958810000000  0.4969850000000 1.0
C      1  0.4939280000000  0.4924090000000  0.6050690000000 1.0
C      1  0.3866740000000  0.4574670000000  0.5227290000000 1.0
C      1  0.5577740000000  0.4892130000000  0.4260220000000 1.0
C      1  0.5367710000000  0.4437420000000  0.4907700000000 1.0
C      1  0.3966550000000  0.4684540000000  0.4663850000000 1.0
C      1  0.5236070000000  0.6189630000000  0.4783560000000 1.0
C      1  0.4214260000000  0.4610640000000  0.6060940000000 1.0
C      1  0.4335580000000  0.5338920000000  0.3926190000000 1.0
C      1  0.4069450000000  0.5099710000000  0.4953340000000 1.0
C      1  0.4171540000000  0.4892190000000  0.4218930000000 1.0
C      1  0.5270440000000  0.5340680000000  0.4935640000000 1.0
C      1  0.4858220000000  0.4569190000000  0.4457380000000 1.0
C      1  0.3897620000000  0.4341420000000  0.5049910000000 1.0
C      1  0.4780920000000  0.6234910000000  0.5024390000000 1.0
C      1  0.5222310000000  0.4160570000000  0.5853720000000 1.0
C      1  0.5726840000000  0.5314580000000  0.4219020000000 1.0
C      1  0.4041590000000  0.5801030000000  0.5832540000000 1.0
C      1  0.5400740000000  0.5697100000000  0.5786450000000 1.0
C      1  0.5812940000000  0.5201010000000  0.6105070000000 1.0
C      1  0.4301950000000  0.4310700000000  0.4771390000000 1.0
C      1  0.3989220000000  0.5481370000000  0.4429490000000 1.0
C      1  0.4565990000000  0.4713200000000  0.4819850000000 1.0
C      1  0.5212060000000  0.3922410000000  0.5374370000000 1.0
C      1  0.4183580000000  0.5511620000000  0.5432480000000 1.0
C      1  0.5782290000000  0.5930430000000  0.5159800000000 1.0
C      1  0.5665300000000  0.3996170000000  0.4617190000000 1.0
C      1  0.5082320000000  0.6229620000000  0.4530790000000 1.0
C      1  0.4164190000000  0.5472230000000  0.4170420000000 1.0
C      1  0.4885640000000  0.5245320000000  0.6140700000000 1.0
C      1  0.3882610000000  0.4896720000000  0.4857370000000 1.0
C      1  0.5303340000000  0.3788310000000  0.5072230000000 1.0
C      1  0.5091680000000  0.4828840000000  0.5380620000000 1.0
C      1  0.5925030000000  0.4722130000000  0.5709880000000 1.0
C      1  0.4449720000000  0.4781980000000  0.4559800000000 1.0
C      1  0.5773260000000  0.3975500000000  0.4886130000000 1.0
C      1  0.4591430000000  0.4103880000000  0.4404870000000 1.0
C      1  0.5040380000000  0.4651600000000  0.5897050000000 1.0
C      1  0.5043650000000  0.5911350000000  0.5491710000000 1.0
C      1  0.4845020000000  0.4552820000000  0.5721690000000 1.0
C      1  0.4155510000000  0.4897600000000  0.6020080000000 1.0
C      1  0.5354970000000  0.4859320000000  0.4042540000000 1.0
C      1  0.5866000000000  0.4796640000000  0.4218380000000 1.0
C      1  0.5974680000000  0.4437990000000  0.4483580000000 1.0
C      1  0.6100500000000  0.4725010000000  0.4464930000000 1.0
C      1  0.4547260000000  0.5281020000000  0.4415100000000 1.0
C      1  0.5274970000000  0.4952560000000  0.6072320000000 1.0
C      1  0.4539200000000  0.5813970000000  0.5710400000000 1.0
C      1  0.4573700000000  0.4236040000000  0.4109400000000 1.0
C      1  0.5090790000000  0.6171780000000  0.5042060000000 1.0
C      1  0.5048810000000  0.4906810000000  0.5101250000000 1.0
C      1  0.4290760000000  0.4832150000000  0.5426140000000 1.0
C      1  0.5023880000000  0.4673920000000  0.4668970000000 1.0
C      1  0.4163920000000  0.4099010000000  0.5407070000000 1.0
C      1  0.4700190000000  0.4111310000000  0.5900190000000 1.0
C      1  0.4500240000000  0.4454030000000  0.4930660000000 1.0
C      1  0.5763470000000  0.5383720000000  0.5341490000000 1.0
C      1  0.5113230000000  0.5349090000000  0.6297410000000 1.0
C      1  0.5703730000000  0.5093960000000  0.5297420000000 1.0
C      1  0.4415310000000  0.3963730000000  0.5358920000000 1.0
C      1  0.5073510000000  0.4960770000000  0.4336900000000 1.0
C      1  0.5036480000000  0.5660740000000  0.4048570000000 1.0
C      1  0.5276940000000  0.5317210000000  0.5503200000000 1.0
C      1  0.5560690000000  0.4558370000000  0.5496300000000 1.0
C      1  0.4918710000000  0.5562260000000  0.4658040000000 1.0
C      1  0.4509950000000  0.4570410000000  0.6041430000000 1.0
C      1  0.6054530000000  0.4468040000000  0.4954940000000 1.0
C      1  0.4624880000000  0.4854520000000  0.6031370000000 1.0
C      1  0.4783630000000  0.5772130000000  0.4826840000000 1.0
C      1  0.4718750000000  0.5963060000000  0.5480670000000 1.0
C      1  0.5443710000000  0.4951150000000  0.5807250000000 1.0
C      1  0.4408920000000  0.5204130000000  0.5693170000000 1.0
C      1  0.5554980000000  0.5858530000000  0.4997160000000 1.0
C      1  0.4961290000000  0.4005820000000  0.5811490000000 1.0
C      1  0.5260880000000  0.6098660000000  0.5339230000000 1.0
C      1  0.5098910000000  0.4471190000000  0.4837740000000 1.0
C      1  0.5196200000000  0.4602900000000  0.4064000000000 1.0
C      1  0.4532940000000  0.5618000000000  0.4889450000000 1.0
C      1  0.5590380000000  0.5946770000000  0.4301630000000 1.0
C      1  0.5406520000000  0.4086020000000  0.5616240000000 1.0
C      1  0.4903940000000  0.5077690000000  0.3826530000000 1.0
C      1  0.5392900000000  0.5517810000000  0.4492750000000 1.0
C      1  0.5029300000000  0.4052110000000  0.4128010000000 1.0
C      1  0.6016950000000  0.5746380000000  0.5152040000000 1.0
C      1  0.5617450000000  0.4274740000000  0.5530210000000 1.0
C      1  0.3969470000000  0.4096100000000  0.5188850000000 1.0
C      1  0.5216180000000  0.5098170000000  0.3910040000000 1.0
C      1  0.5411750000000  0.5458040000000  0.5957630000000 1.0
C      1  0.5257650000000  0.5031070000000  0.5572900000000 1.0
C      1  0.4906380000000  0.4254180000000  0.4875970000000 1.0
C      1  0.5622100000000  0.4719510000000  0.5734000000000 1.0
C      1  0.4321330000000  0.6081100000000  0.5127510000000 1.0
C      1  0.4366570000000  0.5076390000000  0.4542050000000 1.0
C      1  0.5378380000000  0.5674740000000  0.5165990000000 1.0
C      1  0.4250080000000  0.5927580000000  0.4872210000000 1.0
C      1  0.4854200000000  0.4622880000000  0.5444380000000 1.0
C      1  0.6042990000000  0.5498760000000  0.4976220000000 1.0
C      1  0.4724650000000  0.6071620000000  0.4775140000000 1.0
C      1  0.4842890000000  0.4247460000000  0.3980130000000 1.0
C      1  0.4956790000000  0.5817970000000  0.5974110000000 1.0
C      1  0.4572910000000  0.4007000000000  0.5119660000000 1.0
C      1  0.5200220000000  0.5506940000000  0.4706020000000 1.0
C      1  0.4256250000000  0.5708720000000  0.5657880000000 1.0
C      1  0.4540800000000  0.6003230000000  0.4403850000000 1.0
C      1  0.5493060000000  0.4999420000000  0.4536320000000 1.0
C      1  0.5402190000000  0.5732460000000  0.4295330000000 1.0
C      1  0.5483990000000  0.6044360000000  0.4776950000000 1.0
C      1  0.4614510000000  0.4401600000000  0.4493040000000 1.0
C      1  0.6207120000000  0.5260540000000  0.5052360000000 1.0
C      1  0.4487650000000  0.3881520000000  0.4866230000000 1.0
C      1  0.4408520000000  0.4773120000000  0.4079400000000 1.0
C      1  0.4918280000000  0.4724040000000  0.4224120000000 1.0
C      1  0.5583620000000  0.5219640000000  0.5921000000000 1.0
C      1  0.5673760000000  0.4931230000000  0.4750870000000 1.0
C      1  0.6085080000000  0.4982240000000  0.5002240000000 1.0
C      1  0.4479820000000  0.5485280000000  0.5136030000000 1.0
C      1  0.6091510000000  0.4817860000000  0.5922530000000 1.0
END
