TITL C-862130-1496-601 0.158782131462701 125000 -971.783478480035 0 0 162 (C1) n - 1
REM
REM in /home/nfs/bkarasulu/CARBON/AIRSS/Generating-Clusters/TERSOFF/Higher-Symm/FIRE-HFTN
REM
REM
REM
REM
REM
REM ./C.cell (b20cbc046b6831c77cfcea5457e17084)
REM AIRSS Version 0.9.1 bugfix July 2018 build 013d7b7c2542+ Fri, 06 Jul 2018 19:26:36 +0100
REM compiler GCC version 9.2.1 20190827 (Red Hat 9.2.1-1)
REM options -cpp -mtune=generic -march=x86-64 -g -O0 -fpre-include=/usr/include/finclude/math-vector-fortran.h
REM seed -1548200919 641226516 882527180 -781728093 847032631 337625826 -1108670669 1955483935 -925852349 -1263352510 -368916728 -1847326893 1489434037 -917504440 -1629425458 1986841925 1406585954 -2028652820 440370400 -312025116 535169837 -755525672 438643581 -503972521 -1907525722 1897978193 -126514733 1280660942 1393526273 1634035287 -226389996 -1166707263 -214081198
REM
CELL 1.54180   50.00000   50.00000   50.00000   90.00000   90.00000   90.00000
LATT -1
SFAC C  
C      1  0.4733230000000  0.4183450000000  0.5574440000000 1.0
C      1  0.4718270000000  0.4899920000000  0.4013930000000 1.0
C      1  0.4732750000000  0.5915290000000  0.5418100000000 1.0
C      1  0.6203300000000  0.5192670000000  0.4925020000000 1.0
C      1  0.6205180000000  0.4972450000000  0.5200240000000 1.0
C      1  0.6204420000000  0.4844680000000  0.4873020000000 1.0
C      1  0.4488850000000  0.4122950000000  0.5407130000000 1.0
C      1  0.4471140000000  0.5070720000000  0.4043400000000 1.0
C      1  0.4492560000000  0.5803830000000  0.5556470000000 1.0
C      1  0.4244660000000  0.4943740000000  0.4166890000000 1.0
C      1  0.4265970000000  0.5751800000000  0.5390780000000 1.0
C      1  0.4260380000000  0.4292980000000  0.5449220000000 1.0
C      1  0.4476280000000  0.5366740000000  0.4000390000000 1.0
C      1  0.4513290000000  0.5679640000000  0.5825810000000 1.0
C      1  0.4498800000000  0.3935300000000  0.5174880000000 1.0
C      1  0.4467250000000  0.4715070000000  0.4533920000000 1.0
C      1  0.4468150000000  0.5531450000000  0.5000650000000 1.0
C      1  0.4488600000000  0.4719930000000  0.5465030000000 1.0
C      1  0.4000150000000  0.5460840000000  0.4997450000000 1.0
C      1  0.3964960000000  0.4850820000000  0.5276220000000 1.0
C      1  0.4075600000000  0.4803640000000  0.4656230000000 1.0
C      1  0.5323310000000  0.5207070000000  0.3936410000000 1.0
C      1  0.5336290000000  0.5822270000000  0.5722870000000 1.0
C      1  0.5343510000000  0.3957900000000  0.5352300000000 1.0
C      1  0.5668370000000  0.4874230000000  0.4851310000000 1.0
C      1  0.5667400000000  0.5197740000000  0.4967240000000 1.0
C      1  0.5669870000000  0.4934310000000  0.5187310000000 1.0
C      1  0.4885870000000  0.4109810000000  0.5053560000000 1.0
C      1  0.4865070000000  0.5372050000000  0.4228110000000 1.0
C      1  0.4870680000000  0.5481140000000  0.5729520000000 1.0
C      1  0.4560230000000  0.4438140000000  0.6004770000000 1.0
C      1  0.4555030000000  0.4396390000000  0.4010240000000 1.0
C      1  0.4558700000000  0.6150830000000  0.4980020000000 1.0
C      1  0.5256580000000  0.4561530000000  0.5332940000000 1.0
C      1  0.5235130000000  0.4942440000000  0.4472570000000 1.0
C      1  0.5246090000000  0.5499510000000  0.5218980000000 1.0
C      1  0.4591320000000  0.5569490000000  0.4738050000000 1.0
C      1  0.4602340000000  0.4944900000000  0.5610530000000 1.0
C      1  0.4611400000000  0.4473050000000  0.4632940000000 1.0
C      1  0.6117570000000  0.5157300000000  0.5447900000000 1.0
C      1  0.6117970000000  0.4537340000000  0.4910350000000 1.0
C      1  0.6112630000000  0.5313180000000  0.4641050000000 1.0
C      1  0.5219690000000  0.4690750000000  0.4647900000000 1.0
C      1  0.5223090000000  0.5474110000000  0.4913160000000 1.0
C      1  0.5227870000000  0.4842730000000  0.5455770000000 1.0
C      1  0.5432820000000  0.5301100000000  0.4798330000000 1.0
C      1  0.5436220000000  0.5029760000000  0.5361230000000 1.0
C      1  0.5435520000000  0.4674500000000  0.4849780000000 1.0
C      1  0.5757440000000  0.4185220000000  0.4825900000000 1.0
C      1  0.5745430000000  0.5560400000000  0.4380640000000 1.0
C      1  0.5752630000000  0.5255900000000  0.5797410000000 1.0
C      1  0.5007960000000  0.6244770000000  0.5171690000000 1.0
C      1  0.5009490000000  0.4226450000000  0.5985410000000 1.0
C      1  0.5004900000000  0.4529440000000  0.3847080000000 1.0
C      1  0.5417590000000  0.4488630000000  0.5075570000000 1.0
C      1  0.5407830000000  0.5195120000000  0.4529370000000 1.0
C      1  0.5414280000000  0.5316820000000  0.5407820000000 1.0
C      1  0.5809220000000  0.4325410000000  0.5280150000000 1.0
C      1  0.5797110000000  0.5095680000000  0.4279780000000 1.0
C      1  0.5804760000000  0.5579720000000  0.5446490000000 1.0
C      1  0.4694030000000  0.6209920000000  0.4725200000000 1.0
C      1  0.4695830000000  0.4627350000000  0.6185340000000 1.0
C      1  0.4693600000000  0.4146390000000  0.4081470000000 1.0
C      1  0.3879600000000  0.5512440000000  0.5261610000000 1.0
C      1  0.3864810000000  0.4582450000000  0.5197290000000 1.0
C      1  0.3902220000000  0.5031650000000  0.4565070000000 1.0
C      1  0.5287770000000  0.3934010000000  0.4839630000000 1.0
C      1  0.5262560000000  0.5657270000000  0.4173970000000 1.0
C      1  0.5274430000000  0.5387670000000  0.5992380000000 1.0
C      1  0.4733160000000  0.6148620000000  0.5227740000000 1.0
C      1  0.4734860000000  0.4228020000000  0.5873640000000 1.0
C      1  0.4727200000000  0.4619710000000  0.3899340000000 1.0
C      1  0.5042330000000  0.4819770000000  0.5080650000000 1.0
C      1  0.4993560000000  0.5003790000000  0.4810520000000 1.0
C      1  0.5032360000000  0.5155640000000  0.5107740000000 1.0
C      1  0.5014640000000  0.3896120000000  0.4919090000000 1.0
C      1  0.4989830000000  0.5597570000000  0.4109330000000 1.0
C      1  0.5001120000000  0.5474330000000  0.5981260000000 1.0
C      1  0.5740960000000  0.4971180000000  0.5781830000000 1.0
C      1  0.5739970000000  0.4339320000000  0.4586800000000 1.0
C      1  0.5734590000000  0.5691530000000  0.4633530000000 1.0
C      1  0.4293110000000  0.5741460000000  0.5106130000000 1.0
C      1  0.4294530000000  0.4541400000000  0.5591340000000 1.0
C      1  0.4282870000000  0.4695280000000  0.4307410000000 1.0
C      1  0.5599550000000  0.5313950000000  0.4316570000000 1.0
C      1  0.5607410000000  0.5437290000000  0.5617760000000 1.0
C      1  0.5611130000000  0.4246470000000  0.5072290000000 1.0
C      1  0.5926820000000  0.5352680000000  0.5015590000000 1.0
C      1  0.5929400000000  0.4813990000000  0.5295920000000 1.0
C      1  0.5926960000000  0.4840420000000  0.4691210000000 1.0
C      1  0.5952700000000  0.5575340000000  0.4793910000000 1.0
C      1  0.5958270000000  0.4893240000000  0.5598980000000 1.0
C      1  0.5956190000000  0.4538530000000  0.4607440000000 1.0
C      1  0.4968480000000  0.5755400000000  0.5402820000000 1.0
C      1  0.4974870000000  0.4271500000000  0.5446410000000 1.0
C      1  0.4955030000000  0.4967380000000  0.4160670000000 1.0
C      1  0.4983530000000  0.4664920000000  0.6185990000000 1.0
C      1  0.4980650000000  0.4131830000000  0.4120210000000 1.0
C      1  0.4981800000000  0.6192540000000  0.4692910000000 1.0
C      1  0.5433250000000  0.5417820000000  0.4101920000000 1.0
C      1  0.5443340000000  0.5570150000000  0.5817950000000 1.0
C      1  0.5451710000000  0.4003020000000  0.5086950000000 1.0
C      1  0.4931310000000  0.4480820000000  0.4698210000000 1.0
C      1  0.4930430000000  0.5547180000000  0.4716000000000 1.0
C      1  0.4933440000000  0.4980390000000  0.5611030000000 1.0
C      1  0.5982700000000  0.4538800000000  0.5188290000000 1.0
C      1  0.5976410000000  0.5070820000000  0.4505950000000 1.0
C      1  0.5980570000000  0.5396180000000  0.5307930000000 1.0
C      1  0.4515740000000  0.4008420000000  0.4883400000000 1.0
C      1  0.4501220000000  0.5580690000000  0.4211090000000 1.0
C      1  0.4493150000000  0.5387100000000  0.5887330000000 1.0
C      1  0.4851830000000  0.5331430000000  0.4510460000000 1.0
C      1  0.4893470000000  0.5271020000000  0.5536920000000 1.0
C      1  0.4926130000000  0.4384350000000  0.4983130000000 1.0
C      1  0.4384310000000  0.5107800000000  0.5271590000000 1.0
C      1  0.4424580000000  0.4617790000000  0.4979890000000 1.0
C      1  0.4295190000000  0.5180860000000  0.4680130000000 1.0
C      1  0.5725210000000  0.4331930000000  0.5560430000000 1.0
C      1  0.5707640000000  0.4847620000000  0.4154950000000 1.0
C      1  0.5717650000000  0.5816130000000  0.5298140000000 1.0
C      1  0.4124360000000  0.5190040000000  0.5601780000000 1.0
C      1  0.4135330000000  0.4342840000000  0.4808250000000 1.0
C      1  0.4107650000000  0.5522790000000  0.4524910000000 1.0
C      1  0.5470900000000  0.4866600000000  0.5873580000000 1.0
C      1  0.5470500000000  0.4301900000000  0.4452670000000 1.0
C      1  0.5463430000000  0.5819120000000  0.4678760000000 1.0
C      1  0.5370280000000  0.4565980000000  0.5862860000000 1.0
C      1  0.5359170000000  0.4467100000000  0.4208980000000 1.0
C      1  0.5364360000000  0.5959240000000  0.4942850000000 1.0
C      1  0.5441440000000  0.5871180000000  0.5224500000000 1.0
C      1  0.5449200000000  0.4363110000000  0.5648720000000 1.0
C      1  0.5431310000000  0.4756250000000  0.4151270000000 1.0
C      1  0.4314910000000  0.4517030000000  0.5876730000000 1.0
C      1  0.4308390000000  0.4462300000000  0.4142170000000 1.0
C      1  0.4314270000000  0.5998170000000  0.4977880000000 1.0
C      1  0.5225980000000  0.4958040000000  0.4052970000000 1.0
C      1  0.5238320000000  0.5852690000000  0.5449470000000 1.0
C      1  0.5244150000000  0.4179090000000  0.5515500000000 1.0
C      1  0.3982050000000  0.5634250000000  0.4767450000000 1.0
C      1  0.3973750000000  0.4946970000000  0.5546710000000 1.0
C      1  0.4016090000000  0.4523560000000  0.4610340000000 1.0
C      1  0.4419400000000  0.4258800000000  0.4763220000000 1.0
C      1  0.4401510000000  0.5562270000000  0.4487440000000 1.0
C      1  0.4409330000000  0.5177850000000  0.5697460000000 1.0
C      1  0.4238180000000  0.4811210000000  0.4904030000000 1.0
C      1  0.4127800000000  0.5215430000000  0.4927010000000 1.0
C      1  0.4162630000000  0.4994590000000  0.5114000000000 1.0
C      1  0.5324900000000  0.5081190000000  0.6044350000000 1.0
C      1  0.5336560000000  0.4040500000000  0.4548770000000 1.0
C      1  0.5314380000000  0.5857640000000  0.4409710000000 1.0
C      1  0.3989230000000  0.5272190000000  0.4407330000000 1.0
C      1  0.4006330000000  0.5450120000000  0.5524220000000 1.0
C      1  0.4033290000000  0.4360490000000  0.5088770000000 1.0
C      1  0.4839350000000  0.5304730000000  0.5259820000000 1.0
C      1  0.4873990000000  0.4599590000000  0.5164000000000 1.0
C      1  0.4789350000000  0.5081650000000  0.4627990000000 1.0
C      1  0.5148470000000  0.4353130000000  0.4034080000000 1.0
C      1  0.5152080000000  0.6166270000000  0.4927570000000 1.0
C      1  0.5153870000000  0.4475840000000  0.6045020000000 1.0
C      1  0.4563520000000  0.5316060000000  0.5176620000000 1.0
C      1  0.4595690000000  0.4645570000000  0.5206440000000 1.0
C      1  0.4519230000000  0.4982870000000  0.4643430000000 1.0
END
