TITL C-862132-7359-219 -6.45131797051744e-06 125000 -147.656684476473 0 0 28 (C3h) n - 1
REM
REM in /home/nfs/bkarasulu/CARBON/AIRSS/Generating-Clusters/TERSOFF/Higher-Symm/FIRE-HFTN
REM
REM
REM
REM
REM
REM ./C.cell (b20cbc046b6831c77cfcea5457e17084)
REM AIRSS Version 0.9.1 bugfix July 2018 build 013d7b7c2542+ Fri, 06 Jul 2018 19:26:36 +0100
REM compiler GCC version 9.2.1 20190827 (Red Hat 9.2.1-1)
REM options -cpp -mtune=generic -march=x86-64 -g -O0 -fpre-include=/usr/include/finclude/math-vector-fortran.h
REM seed 161653154 -1439360604 -1980969459 1341101934 -866134322 1624213076 1318588277 -1980227252 1544160663 346147179 -1085865590 -125790985 -613374160 1353973845 1625261918 377855094 1323835972 1714502436 -1283974792 -1231848530 -1394066069 1231904941 616489575 1937748674 1129660665 1949891757 126949580 1170625509 -630135081 195878174 400965251 -65574403 1688839534
REM
CELL 1.54180   50.00000   50.00000   50.00000   90.00000   90.00000   90.00000
LATT -1
SFAC C  
C      1  0.4754860000000  0.4760640000000  0.5188660000000 1.0
C      1  0.4754860000000  0.5267590000000  0.5122090000000 1.0
C      1  0.4754860000000  0.4956460000000  0.4716340000000 1.0
C      1  0.5174300000000  0.4760640000000  0.5188660000000 1.0
C      1  0.5174300000000  0.5267590000000  0.5122090000000 1.0
C      1  0.5174300000000  0.4956460000000  0.4716340000000 1.0
C      1  0.4530430000000  0.5383520000000  0.4974520000000 1.0
C      1  0.4530430000000  0.4770700000000  0.4689720000000 1.0
C      1  0.4530430000000  0.4830470000000  0.5362840000000 1.0
C      1  0.5398730000000  0.5383520000000  0.4974520000000 1.0
C      1  0.5398730000000  0.4770700000000  0.4689720000000 1.0
C      1  0.5398730000000  0.4830470000000  0.5362840000000 1.0
C      1  0.4257780000000  0.4875240000000  0.5271190000000 1.0
C      1  0.4257780000000  0.5281760000000  0.4981580000000 1.0
C      1  0.4257780000000  0.4827690000000  0.4774320000000 1.0
C      1  0.5671380000000  0.4875240000000  0.5271190000000 1.0
C      1  0.5671380000000  0.5281760000000  0.4981580000000 1.0
C      1  0.5671380000000  0.4827690000000  0.4774320000000 1.0
C      1  0.4182690000000  0.4717780000000  0.5035420000000 1.0
C      1  0.4182690000000  0.5156310000000  0.5235820000000 1.0
C      1  0.4182690000000  0.5110600000000  0.4755840000000 1.0
C      1  0.5746460000000  0.4717780000000  0.5035420000000 1.0
C      1  0.5746460000000  0.5156310000000  0.5235820000000 1.0
C      1  0.5746460000000  0.5110600000000  0.4755840000000 1.0
C      1  0.4964580000000  0.4996350000000  0.4492490000000 1.0
C      1  0.4964580000000  0.5441500000000  0.5268550000000 1.0
C      1  0.4964580000000  0.4546840000000  0.5266040000000 1.0
C      1  0.4964580000000  0.4994900000000  0.5009030000000 1.0
END
