TITL C-862505-1648-549 -128771.942763578 125000 -217.49354440108 0 0 38 (C1) n - 1
REM
REM in /home/nfs/bkarasulu/CARBON/AIRSS/Generating-Clusters/TERSOFF/Higher-Symm/FIRE-HFTN
REM
REM
REM
REM
REM
REM ./C.cell (b20cbc046b6831c77cfcea5457e17084)
REM AIRSS Version 0.9.1 bugfix July 2018 build 013d7b7c2542+ Fri, 06 Jul 2018 19:26:36 +0100
REM compiler GCC version 9.2.1 20190827 (Red Hat 9.2.1-1)
REM options -cpp -mtune=generic -march=x86-64 -g -O0 -fpre-include=/usr/include/finclude/math-vector-fortran.h
REM seed 465470088 -748590553 -805678802 -742614705 -1627535735 1090233597 -1385499614 -661223493 -877514131 -809893278 -1443413459 1973877126 936057189 -511195252 126904865 1623442965 315836756 436504011 2048630367 1991617711 -1524835497 -47618089 -1946617821 624198389 -1132099892 1861025127 133293389 1903989076 742381894 -2035993641 -941716309 -1217944190 -1636175068
REM
CELL 1.54180   50.00000   50.00000   50.00000   90.00000   90.00000   90.00000
LATT -1
SFAC C  
C      1  0.4612590000000  0.4368300000000  0.5127250000000 1.0
C      1  0.5352800000000  0.5102700000000  0.5143770000000 1.0
C      1  0.4513390000000  0.5141460000000  0.4793040000000 1.0
C      1  0.5446540000000  0.5406560000000  0.5536210000000 1.0
C      1  0.5076590000000  0.4858490000000  0.4514830000000 1.0
C      1  0.4854540000000  0.4734080000000  0.5253050000000 1.0
C      1  0.5109880000000  0.5802540000000  0.5184720000000 1.0
C      1  0.4396640000000  0.4541770000000  0.5021390000000 1.0
C      1  0.5177140000000  0.4907050000000  0.5025960000000 1.0
C      1  0.5258640000000  0.4461040000000  0.4719160000000 1.0
C      1  0.4519800000000  0.4802780000000  0.5616920000000 1.0
C      1  0.5496150000000  0.5268420000000  0.4953310000000 1.0
C      1  0.4665450000000  0.4750370000000  0.4775180000000 1.0
C      1  0.4874410000000  0.5471400000000  0.4620270000000 1.0
C      1  0.5547400000000  0.4895750000000  0.4599450000000 1.0
C      1  0.5287240000000  0.5277240000000  0.4395140000000 1.0
C      1  0.5285880000000  0.4934580000000  0.5618090000000 1.0
C      1  0.5114130000000  0.4421300000000  0.4978350000000 1.0
C      1  0.5013250000000  0.4879530000000  0.5705220000000 1.0
C      1  0.4708230000000  0.4863430000000  0.5040250000000 1.0
C      1  0.5362430000000  0.5148160000000  0.5432760000000 1.0
C      1  0.4797540000000  0.4792170000000  0.5530350000000 1.0
C      1  0.5322870000000  0.4989980000000  0.4422940000000 1.0
C      1  0.5314640000000  0.5744090000000  0.4987880000000 1.0
C      1  0.4301940000000  0.5050820000000  0.4983790000000 1.0
C      1  0.4825220000000  0.5765580000000  0.5143400000000 1.0
C      1  0.5085290000000  0.4568660000000  0.4510650000000 1.0
C      1  0.4696980000000  0.5510290000000  0.5093890000000 1.0
C      1  0.5169790000000  0.5439720000000  0.4607100000000 1.0
C      1  0.4291070000000  0.4813580000000  0.5437370000000 1.0
C      1  0.4852890000000  0.4280870000000  0.4976290000000 1.0
C      1  0.5661230000000  0.5108980000000  0.4768260000000 1.0
C      1  0.5338280000000  0.5493630000000  0.4842790000000 1.0
C      1  0.4700140000000  0.5369610000000  0.4839190000000 1.0
C      1  0.4307300000000  0.4797100000000  0.5145530000000 1.0
C      1  0.5519450000000  0.4615120000000  0.4711950000000 1.0
C      1  0.5022030000000  0.4972140000000  0.4783120000000 1.0
C      1  0.5120250000000  0.4650720000000  0.5161160000000 1.0
END
