TITL C-862127-1500-833 0.018361576982339 125000 -536.738939312244 0 0 93 (C1) n - 1
REM
REM in /home/nfs/bkarasulu/CARBON/AIRSS/Generating-Clusters/TERSOFF/Higher-Symm/FIRE-HFTN
REM
REM
REM
REM
REM
REM ./C.cell (b20cbc046b6831c77cfcea5457e17084)
REM AIRSS Version 0.9.1 bugfix July 2018 build 013d7b7c2542+ Fri, 06 Jul 2018 19:26:36 +0100
REM compiler GCC version 9.2.1 20190827 (Red Hat 9.2.1-1)
REM options -cpp -mtune=generic -march=x86-64 -g -O0 -fpre-include=/usr/include/finclude/math-vector-fortran.h
REM seed 222124559 -1697692308 -1298628752 -1858857602 1848915554 210274457 -1280957959 548472158 1569608231 1887830145 410824304 -499654762 1766498638 978628675 -1585037451 1899061026 -1082134111 1104169090 -1158084998 1286777259 -2085108433 916484675 1192794603 1437077335 1783044120 -1130387401 1183505678 -2137651435 -952195792 -1273163765 1927767204 -187496877 -1782780920
REM
CELL 1.54180   50.00000   50.00000   50.00000   90.00000   90.00000   90.00000
LATT -1
SFAC C  
C      1  0.5199640000000  0.4200580000000  0.5064380000000 1.0
C      1  0.5072680000000  0.4929830000000  0.5387840000000 1.0
C      1  0.5357730000000  0.4904580000000  0.5279470000000 1.0
C      1  0.5361060000000  0.5298380000000  0.5816410000000 1.0
C      1  0.4875250000000  0.5612060000000  0.5739680000000 1.0
C      1  0.4838680000000  0.4437530000000  0.5164740000000 1.0
C      1  0.5166130000000  0.5346570000000  0.4906390000000 1.0
C      1  0.5996190000000  0.4581190000000  0.5070970000000 1.0
C      1  0.4972810000000  0.4220840000000  0.4668400000000 1.0
C      1  0.4135710000000  0.4723570000000  0.5052050000000 1.0
C      1  0.4451550000000  0.4619850000000  0.4278840000000 1.0
C      1  0.5702470000000  0.4898150000000  0.4333920000000 1.0
C      1  0.4596990000000  0.4803990000000  0.5250230000000 1.0
C      1  0.5092670000000  0.5719240000000  0.5288280000000 1.0
C      1  0.4173250000000  0.5433760000000  0.4765260000000 1.0
C      1  0.4617470000000  0.4638520000000  0.5697680000000 1.0
C      1  0.5111060000000  0.5684440000000  0.5582920000000 1.0
C      1  0.4825650000000  0.5153290000000  0.5338600000000 1.0
C      1  0.4630010000000  0.4846210000000  0.4213230000000 1.0
C      1  0.4118840000000  0.5234690000000  0.4962490000000 1.0
C      1  0.4180780000000  0.5066060000000  0.5436070000000 1.0
C      1  0.4880840000000  0.5369880000000  0.5899240000000 1.0
C      1  0.5519620000000  0.4448310000000  0.5292690000000 1.0
C      1  0.5747850000000  0.5337000000000  0.4563880000000 1.0
C      1  0.4353430000000  0.5554630000000  0.5333180000000 1.0
C      1  0.5595510000000  0.5674040000000  0.5330530000000 1.0
C      1  0.5355680000000  0.5566180000000  0.5695140000000 1.0
C      1  0.4843350000000  0.5608170000000  0.5155430000000 1.0
C      1  0.4447180000000  0.5529900000000  0.4731510000000 1.0
C      1  0.5398900000000  0.4897370000000  0.4328470000000 1.0
C      1  0.5454000000000  0.5734300000000  0.4818530000000 1.0
C      1  0.5004400000000  0.5144520000000  0.4768720000000 1.0
C      1  0.4558330000000  0.4386690000000  0.5274150000000 1.0
C      1  0.5199470000000  0.4290790000000  0.4485250000000 1.0
C      1  0.4708900000000  0.4917230000000  0.5738780000000 1.0
C      1  0.5821010000000  0.5046810000000  0.4562360000000 1.0
C      1  0.5037510000000  0.4690460000000  0.4683240000000 1.0
C      1  0.5098460000000  0.5173200000000  0.5867420000000 1.0
C      1  0.5349130000000  0.5201070000000  0.4286490000000 1.0
C      1  0.4540400000000  0.5560970000000  0.4452360000000 1.0
C      1  0.5172680000000  0.5616720000000  0.4809570000000 1.0
C      1  0.5636940000000  0.5405590000000  0.5427880000000 1.0
C      1  0.5530040000000  0.5416230000000  0.4381540000000 1.0
C      1  0.4611010000000  0.5270590000000  0.4854980000000 1.0
C      1  0.4892640000000  0.4774210000000  0.5172420000000 1.0
C      1  0.5094520000000  0.4634020000000  0.5838770000000 1.0
C      1  0.4109840000000  0.4892400000000  0.4574120000000 1.0
C      1  0.4083160000000  0.4953460000000  0.4865140000000 1.0
C      1  0.4870110000000  0.4468990000000  0.5707730000000 1.0
C      1  0.5481310000000  0.4253450000000  0.4580580000000 1.0
C      1  0.4449060000000  0.4609290000000  0.5457350000000 1.0
C      1  0.5609970000000  0.5164750000000  0.5882180000000 1.0
C      1  0.5871900000000  0.4356390000000  0.4921060000000 1.0
C      1  0.5022140000000  0.4916590000000  0.5730330000000 1.0
C      1  0.4219860000000  0.4638590000000  0.4462760000000 1.0
C      1  0.4192230000000  0.4782430000000  0.5359390000000 1.0
C      1  0.4438570000000  0.4735970000000  0.5022430000000 1.0
C      1  0.4973630000000  0.5403970000000  0.4328990000000 1.0
C      1  0.4612120000000  0.5017410000000  0.4672040000000 1.0
C      1  0.4825630000000  0.5627180000000  0.4433890000000 1.0
C      1  0.3995600000000  0.4473090000000  0.4993090000000 1.0
C      1  0.4954230000000  0.5744010000000  0.4665520000000 1.0
C      1  0.4843670000000  0.4470390000000  0.4804210000000 1.0
C      1  0.5221390000000  0.4484550000000  0.4999250000000 1.0
C      1  0.5151970000000  0.4735860000000  0.4225880000000 1.0
C      1  0.4212860000000  0.5287830000000  0.5246050000000 1.0
C      1  0.4919190000000  0.4898490000000  0.4306240000000 1.0
C      1  0.5933570000000  0.4865630000000  0.5025700000000 1.0
C      1  0.5518440000000  0.4754240000000  0.4826690000000 1.0
C      1  0.5377060000000  0.5749900000000  0.5151310000000 1.0
C      1  0.5007190000000  0.4359110000000  0.5440870000000 1.0
C      1  0.4542350000000  0.5063450000000  0.4390990000000 1.0
C      1  0.4959750000000  0.4881700000000  0.4886370000000 1.0
C      1  0.5703080000000  0.5515680000000  0.4805630000000 1.0
C      1  0.4479700000000  0.5765590000000  0.4901840000000 1.0
C      1  0.4470000000000  0.5326410000000  0.4296440000000 1.0
C      1  0.5326210000000  0.4747920000000  0.4607840000000 1.0
C      1  0.5584540000000  0.4339980000000  0.4845580000000 1.0
C      1  0.5273450000000  0.5303140000000  0.5178090000000 1.0
C      1  0.5552050000000  0.5152600000000  0.5275230000000 1.0
C      1  0.4586760000000  0.4722710000000  0.4777020000000 1.0
C      1  0.5764180000000  0.4891050000000  0.4799730000000 1.0
C      1  0.5434500000000  0.5678150000000  0.4487280000000 1.0
C      1  0.5327790000000  0.4367610000000  0.5496400000000 1.0
C      1  0.5052100000000  0.4030210000000  0.4880840000000 1.0
C      1  0.5147770000000  0.4445000000000  0.4241740000000 1.0
C      1  0.5344740000000  0.4504080000000  0.5758670000000 1.0
C      1  0.5430650000000  0.4668630000000  0.5105440000000 1.0
C      1  0.4972510000000  0.5149640000000  0.4464960000000 1.0
C      1  0.4621870000000  0.5122240000000  0.5546200000000 1.0
C      1  0.5844500000000  0.5035950000000  0.5245070000000 1.0
C      1  0.4795810000000  0.5323040000000  0.5101800000000 1.0
C      1  0.4562540000000  0.5719040000000  0.5173620000000 1.0
END
