TITL C-862502-1143-351 -0.0492054978982854 125000 -832.274110688606 0 0 142 (Ci) n - 1
REM
REM in /home/nfs/bkarasulu/CARBON/AIRSS/Generating-Clusters/TERSOFF/Higher-Symm/FIRE-HFTN
REM
REM
REM
REM
REM
REM ./C.cell (b20cbc046b6831c77cfcea5457e17084)
REM AIRSS Version 0.9.1 bugfix July 2018 build 013d7b7c2542+ Fri, 06 Jul 2018 19:26:36 +0100
REM compiler GCC version 9.2.1 20190827 (Red Hat 9.2.1-1)
REM options -cpp -mtune=generic -march=x86-64 -g -O0 -fpre-include=/usr/include/finclude/math-vector-fortran.h
REM seed 593955280 1121308250 -399842194 1718534775 1452290105 984873728 41699275 1646310517 496446927 -1524696229 -2073192487 -1937753378 746406145 -702497713 -2071180981 1732903092 1031556425 -518229483 2056986307 1762946562 963531303 185629488 -686699814 2041410668 -2056243237 -1330145919 1552588840 -762034210 -1793696333 516150448 -1570656829 590261451 1375001686
REM
CELL 1.54180   50.00000   50.00000   50.00000   90.00000   90.00000   90.00000
LATT -1
SFAC C  
C      1  0.5726560000000  0.4578400000000  0.4859640000000 1.0
C      1  0.4282680000000  0.5429490000000  0.4862160000000 1.0
C      1  0.5717310000000  0.4570500000000  0.5149030000000 1.0
C      1  0.4273430000000  0.5421590000000  0.5151550000000 1.0
C      1  0.4777120000000  0.5723000000000  0.5202890000000 1.0
C      1  0.5186120000000  0.4307540000000  0.5224350000000 1.0
C      1  0.4813870000000  0.5692450000000  0.4786850000000 1.0
C      1  0.5222870000000  0.4276990000000  0.4808300000000 1.0
C      1  0.5418200000000  0.5057480000000  0.5990940000000 1.0
C      1  0.4584200000000  0.4940420000000  0.5996510000000 1.0
C      1  0.5415780000000  0.5059580000000  0.4014680000000 1.0
C      1  0.4581780000000  0.4942510000000  0.4020260000000 1.0
C      1  0.5541120000000  0.5802050000000  0.4844250000000 1.0
C      1  0.4462530000000  0.4193660000000  0.4850350000000 1.0
C      1  0.5537460000000  0.5806330000000  0.5160840000000 1.0
C      1  0.4458860000000  0.4197940000000  0.5166950000000 1.0
C      1  0.5345260000000  0.5488600000000  0.5645850000000 1.0
C      1  0.4652260000000  0.4508600000000  0.5650740000000 1.0
C      1  0.5347730000000  0.5491390000000  0.4360450000000 1.0
C      1  0.4654720000000  0.4511390000000  0.4365340000000 1.0
C      1  0.4207960000000  0.5671460000000  0.4710850000000 1.0
C      1  0.5789180000000  0.4341250000000  0.4700280000000 1.0
C      1  0.4210810000000  0.5658750000000  0.5310910000000 1.0
C      1  0.5792030000000  0.4328530000000  0.5300340000000 1.0
C      1  0.5307880000000  0.5774750000000  0.4380540000000 1.0
C      1  0.4697400000000  0.4228520000000  0.4385810000000 1.0
C      1  0.5302580000000  0.5771470000000  0.5625380000000 1.0
C      1  0.4692110000000  0.4225240000000  0.5630660000000 1.0
C      1  0.4211620000000  0.4286980000000  0.4716040000000 1.0
C      1  0.5793070000000  0.5704810000000  0.4716220000000 1.0
C      1  0.4206910000000  0.4295180000000  0.5294980000000 1.0
C      1  0.5788370000000  0.5713010000000  0.5295150000000 1.0
C      1  0.4322320000000  0.5170700000000  0.4728180000000 1.0
C      1  0.5689120000000  0.4839730000000  0.4734060000000 1.0
C      1  0.4310860000000  0.5160260000000  0.5277130000000 1.0
C      1  0.5677670000000  0.4829290000000  0.5283010000000 1.0
C      1  0.5898100000000  0.4923260000000  0.4550100000000 1.0
C      1  0.4105440000000  0.5089920000000  0.4551260000000 1.0
C      1  0.5894550000000  0.4910070000000  0.5459930000000 1.0
C      1  0.4101890000000  0.5076730000000  0.5461090000000 1.0
C      1  0.5013080000000  0.4841200000000  0.6184640000000 1.0
C      1  0.4993260000000  0.5153140000000  0.6186420000000 1.0
C      1  0.5006730000000  0.4846850000000  0.3824770000000 1.0
C      1  0.4986900000000  0.5158800000000  0.3826560000000 1.0
C      1  0.5262710000000  0.5258040000000  0.6139690000000 1.0
C      1  0.4742260000000  0.4737880000000  0.6140520000000 1.0
C      1  0.5257720000000  0.5262110000000  0.3870670000000 1.0
C      1  0.4737270000000  0.4741960000000  0.3871500000000 1.0
C      1  0.4872460000000  0.5947150000000  0.4431860000000 1.0
C      1  0.5132080000000  0.4053690000000  0.4428290000000 1.0
C      1  0.4867910000000  0.5946300000000  0.5582900000000 1.0
C      1  0.5127530000000  0.4052840000000  0.5579330000000 1.0
C      1  0.5636770000000  0.5138410000000  0.5814440000000 1.0
C      1  0.4364760000000  0.4861310000000  0.5820130000000 1.0
C      1  0.5635220000000  0.5138690000000  0.4191070000000 1.0
C      1  0.4363220000000  0.4861580000000  0.4196760000000 1.0
C      1  0.4166970000000  0.5045090000000  0.5736310000000 1.0
C      1  0.5837230000000  0.4956260000000  0.5734190000000 1.0
C      1  0.4162750000000  0.5043740000000  0.4277010000000 1.0
C      1  0.5833010000000  0.4954900000000  0.4274890000000 1.0
C      1  0.5481170000000  0.5035160000000  0.5158190000000 1.0
C      1  0.4513380000000  0.4962240000000  0.5154880000000 1.0
C      1  0.5486610000000  0.5037750000000  0.4856320000000 1.0
C      1  0.4518810000000  0.4964830000000  0.4853000000000 1.0
C      1  0.5223890000000  0.4809790000000  0.5963410000000 1.0
C      1  0.4780180000000  0.5185960000000  0.5968260000000 1.0
C      1  0.5219810000000  0.4814030000000  0.4042940000000 1.0
C      1  0.4776100000000  0.5190200000000  0.4047790000000 1.0
C      1  0.4613720000000  0.5780750000000  0.5584650000000 1.0
C      1  0.5384190000000  0.4213750000000  0.5581840000000 1.0
C      1  0.4615800000000  0.5786240000000  0.4429360000000 1.0
C      1  0.5386270000000  0.4219240000000  0.4426550000000 1.0
C      1  0.5327080000000  0.5895510000000  0.4651970000000 1.0
C      1  0.4683220000000  0.4105610000000  0.4657730000000 1.0
C      1  0.5316770000000  0.5894380000000  0.5353470000000 1.0
C      1  0.4672910000000  0.4104480000000  0.5359230000000 1.0
C      1  0.4901990000000  0.5173900000000  0.4828130000000 1.0
C      1  0.5109390000000  0.4811750000000  0.4852880000000 1.0
C      1  0.4890600000000  0.5188240000000  0.5158320000000 1.0
C      1  0.5098000000000  0.4826090000000  0.5183060000000 1.0
C      1  0.4183120000000  0.4525500000000  0.5480810000000 1.0
C      1  0.5812810000000  0.5476220000000  0.5472560000000 1.0
C      1  0.4187170000000  0.4523770000000  0.4538630000000 1.0
C      1  0.5816870000000  0.5474490000000  0.4530380000000 1.0
C      1  0.5307510000000  0.4561680000000  0.4839390000000 1.0
C      1  0.4718380000000  0.5423550000000  0.4856130000000 1.0
C      1  0.5281600000000  0.4576440000000  0.5155070000000 1.0
C      1  0.4692480000000  0.5438320000000  0.5171800000000 1.0
C      1  0.5152580000000  0.4678790000000  0.4303100000000 1.0
C      1  0.4846630000000  0.5324900000000  0.4307830000000 1.0
C      1  0.5153360000000  0.4675090000000  0.5703360000000 1.0
C      1  0.4847410000000  0.5321200000000  0.5708090000000 1.0
C      1  0.4564970000000  0.5968580000000  0.5153950000000 1.0
C      1  0.5392370000000  0.4063290000000  0.5183980000000 1.0
C      1  0.4607620000000  0.5936700000000  0.4827220000000 1.0
C      1  0.5435020000000  0.4031410000000  0.4857250000000 1.0
C      1  0.3821090000000  0.4583020000000  0.4848830000000 1.0
C      1  0.6176330000000  0.5436400000000  0.4866180000000 1.0
C      1  0.3831340000000  0.4567090000000  0.5137650000000 1.0
C      1  0.6172250000000  0.5413910000000  0.5154720000000 1.0
C      1  0.4968100000000  0.3956020000000  0.4721880000000 1.0
C      1  0.5050100000000  0.6033450000000  0.4729560000000 1.0
C      1  0.4949880000000  0.3966550000000  0.5281640000000 1.0
C      1  0.5031890000000  0.6043970000000  0.5289310000000 1.0
C      1  0.4920340000000  0.4117620000000  0.4238310000000 1.0
C      1  0.5082050000000  0.5886240000000  0.4237630000000 1.0
C      1  0.4917930000000  0.4113760000000  0.5773560000000 1.0
C      1  0.5079650000000  0.5882370000000  0.5772880000000 1.0
C      1  0.4867400000000  0.4699720000000  0.4437240000000 1.0
C      1  0.5134700000000  0.5304320000000  0.4436670000000 1.0
C      1  0.4865290000000  0.4695680000000  0.5574520000000 1.0
C      1  0.5132590000000  0.5300270000000  0.5573950000000 1.0
C      1  0.5593920000000  0.4138980000000  0.4625200000000 1.0
C      1  0.4397650000000  0.5876940000000  0.4623100000000 1.0
C      1  0.5602340000000  0.4123050000000  0.5388090000000 1.0
C      1  0.4406070000000  0.5861010000000  0.5385990000000 1.0
C      1  0.5210270000000  0.3799020000000  0.4859050000000 1.0
C      1  0.4800850000000  0.6199160000000  0.4838620000000 1.0
C      1  0.5199140000000  0.3800830000000  0.5172570000000 1.0
C      1  0.4789720000000  0.6200970000000  0.5152140000000 1.0
C      1  0.6164380000000  0.4942680000000  0.5357270000000 1.0
C      1  0.3832130000000  0.5026650000000  0.5365600000000 1.0
C      1  0.6167860000000  0.4973340000000  0.4645590000000 1.0
C      1  0.3835610000000  0.5057320000000  0.4653920000000 1.0
C      1  0.4635310000000  0.5482230000000  0.5587390000000 1.0
C      1  0.5363230000000  0.4512460000000  0.5579060000000 1.0
C      1  0.4636760000000  0.5487530000000  0.4432140000000 1.0
C      1  0.5364670000000  0.4517770000000  0.4423810000000 1.0
C      1  0.5192860000000  0.5128410000000  0.5306470000000 1.0
C      1  0.4797180000000  0.4876590000000  0.5310120000000 1.0
C      1  0.5202810000000  0.5123400000000  0.4701070000000 1.0
C      1  0.4807130000000  0.4871590000000  0.4704720000000 1.0
C      1  0.6291610000000  0.5197380000000  0.5305200000000 1.0
C      1  0.3719870000000  0.4764150000000  0.5317980000000 1.0
C      1  0.6282510000000  0.5235950000000  0.4686390000000 1.0
C      1  0.3705910000000  0.4802610000000  0.4699520000000 1.0
C      1  0.5608710000000  0.5386510000000  0.5664490000000 1.0
C      1  0.4389750000000  0.4612610000000  0.5671380000000 1.0
C      1  0.5610240000000  0.5387380000000  0.4339820000000 1.0
C      1  0.4391280000000  0.4613480000000  0.4346700000000 1.0
C      1  0.4967820000000  0.4171100000000  0.5001510000000 1.0
C      1  0.5032170000000  0.5828900000000  0.5009690000000 1.0
END
