TITL C-862129-6180-286 3.43467680816013e-06 125000 -583.165082728474 0 0 109 (D2) n - 1
REM
REM in /home/nfs/bkarasulu/CARBON/AIRSS/Generating-Clusters/TERSOFF/Higher-Symm/FIRE-HFTN
REM
REM
REM
REM
REM
REM ./C.cell (b20cbc046b6831c77cfcea5457e17084)
REM AIRSS Version 0.9.1 bugfix July 2018 build 013d7b7c2542+ Fri, 06 Jul 2018 19:26:36 +0100
REM compiler GCC version 9.2.1 20190827 (Red Hat 9.2.1-1)
REM options -cpp -mtune=generic -march=x86-64 -g -O0 -fpre-include=/usr/include/finclude/math-vector-fortran.h
REM seed 1269095069 1935059648 -690816230 628262182 1344592298 709417109 88359242 1939885964 -2145181533 -1638014197 -647634147 932489557 -1776342188 -2067524199 690357132 1195548718 -416395792 397603412 1415620275 -2139827972 -211274322 1525176180 396381698 -36327324 168878211 1862516977 -1735122519 1558830925 -1525774202 1607138751 -618261789 781210289 -458364809
REM
CELL 1.54180   50.00000   50.00000   50.00000   90.00000   90.00000   90.00000
LATT -1
SFAC C  
C      1  0.4326080000000  0.5160700000000  0.5295280000000 1.0
C      1  0.4326080000000  0.4834650000000  0.4698270000000 1.0
C      1  0.5680790000000  0.4834650000000  0.5295280000000 1.0
C      1  0.5680790000000  0.5160700000000  0.4698270000000 1.0
C      1  0.4748900000000  0.5229930000000  0.4572650000000 1.0
C      1  0.4748900000000  0.4765420000000  0.5420890000000 1.0
C      1  0.5257970000000  0.4765420000000  0.4572650000000 1.0
C      1  0.5257970000000  0.5229930000000  0.5420890000000 1.0
C      1  0.5198940000000  0.4851740000000  0.5195570000000 1.0
C      1  0.5198940000000  0.5143610000000  0.4797980000000 1.0
C      1  0.4807930000000  0.5143610000000  0.5195570000000 1.0
C      1  0.4807930000000  0.4851740000000  0.4797980000000 1.0
C      1  0.4985870000000  0.5519110000000  0.5616310000000 1.0
C      1  0.4985870000000  0.4476240000000  0.4377240000000 1.0
C      1  0.5021000000000  0.4476240000000  0.5616310000000 1.0
C      1  0.5021000000000  0.5519110000000  0.4377240000000 1.0
C      1  0.4490290000000  0.4658420000000  0.5108350000000 1.0
C      1  0.4490290000000  0.5336930000000  0.4885200000000 1.0
C      1  0.5516580000000  0.5336930000000  0.5108350000000 1.0
C      1  0.5516580000000  0.4658420000000  0.4885200000000 1.0
C      1  0.4639840000000  0.5806070000000  0.4785980000000 1.0
C      1  0.4639840000000  0.4189280000000  0.5207560000000 1.0
C      1  0.5367030000000  0.4189280000000  0.4785980000000 1.0
C      1  0.5367030000000  0.5806070000000  0.5207560000000 1.0
C      1  0.5178750000000  0.4533520000000  0.5189920000000 1.0
C      1  0.5178750000000  0.5461830000000  0.4803630000000 1.0
C      1  0.4828120000000  0.5461830000000  0.5189920000000 1.0
C      1  0.4828120000000  0.4533520000000  0.4803630000000 1.0
C      1  0.5334620000000  0.5507070000000  0.4500590000000 1.0
C      1  0.5334620000000  0.4488280000000  0.5492950000000 1.0
C      1  0.4672260000000  0.4488280000000  0.4500590000000 1.0
C      1  0.4672260000000  0.5507070000000  0.5492950000000 1.0
C      1  0.4998990000000  0.4765340000000  0.4242720000000 1.0
C      1  0.4998990000000  0.5230010000000  0.5750820000000 1.0
C      1  0.5007880000000  0.5230010000000  0.4242720000000 1.0
C      1  0.5007880000000  0.4765340000000  0.5750820000000 1.0
C      1  0.5531140000000  0.4806640000000  0.4248560000000 1.0
C      1  0.5531140000000  0.5188710000000  0.5744990000000 1.0
C      1  0.4475730000000  0.5188710000000  0.4248560000000 1.0
C      1  0.4475730000000  0.4806640000000  0.5744990000000 1.0
C      1  0.4111030000000  0.5187820000000  0.4626460000000 1.0
C      1  0.4111030000000  0.4807530000000  0.5367090000000 1.0
C      1  0.5895850000000  0.4807530000000  0.4626460000000 1.0
C      1  0.5895850000000  0.5187820000000  0.5367090000000 1.0
C      1  0.4804960000000  0.4933730000000  0.4501030000000 1.0
C      1  0.4804960000000  0.5061620000000  0.5492510000000 1.0
C      1  0.5201910000000  0.5061610000000  0.4501030000000 1.0
C      1  0.5201910000000  0.4933730000000  0.5492510000000 1.0
C      1  0.4747740000000  0.5640410000000  0.4485010000000 1.0
C      1  0.4747740000000  0.4354940000000  0.5508540000000 1.0
C      1  0.5259140000000  0.4354940000000  0.4485010000000 1.0
C      1  0.5259130000000  0.5640410000000  0.5508540000000 1.0
C      1  0.5888020000000  0.5293440000000  0.4849440000000 1.0
C      1  0.5888020000000  0.4701910000000  0.5144100000000 1.0
C      1  0.4118850000000  0.4701910000000  0.4849440000000 1.0
C      1  0.4118850000000  0.5293440000000  0.5144100000000 1.0
C      1  0.5476060000000  0.4591870000000  0.4440480000000 1.0
C      1  0.5476060000000  0.5403480000000  0.5553060000000 1.0
C      1  0.4530810000000  0.5403480000000  0.4440480000000 1.0
C      1  0.4530810000000  0.4591870000000  0.5553060000000 1.0
C      1  0.4307930000000  0.5428640000000  0.4637840000000 1.0
C      1  0.4307930000000  0.4566700000000  0.5355710000000 1.0
C      1  0.5698940000000  0.4566700000000  0.4637840000000 1.0
C      1  0.5698940000000  0.5428650000000  0.5355710000000 1.0
C      1  0.4324940000000  0.4255590000000  0.5340070000000 1.0
C      1  0.4324940000000  0.5739760000000  0.4653470000000 1.0
C      1  0.5681930000000  0.5739760000000  0.5340070000000 1.0
C      1  0.5681930000000  0.4255590000000  0.4653470000000 1.0
C      1  0.5546700000000  0.4375650000000  0.5031460000000 1.0
C      1  0.5546700000000  0.5619700000000  0.4962080000000 1.0
C      1  0.4460180000000  0.5619700000000  0.5031460000000 1.0
C      1  0.4460180000000  0.4375650000000  0.4962080000000 1.0
C      1  0.4733810000000  0.5107870000000  0.4125690000000 1.0
C      1  0.4733810000000  0.4887480000000  0.5867850000000 1.0
C      1  0.5273060000000  0.4887480000000  0.4125690000000 1.0
C      1  0.5273060000000  0.5107870000000  0.5867850000000 1.0
C      1  0.4529700000000  0.4981510000000  0.4843180000000 1.0
C      1  0.4529700000000  0.5013840000000  0.5150370000000 1.0
C      1  0.5477180000000  0.5013840000000  0.4843180000000 1.0
C      1  0.5477180000000  0.4981510000000  0.5150370000000 1.0
C      1  0.6011620000000  0.4856550000000  0.4927670000000 1.0
C      1  0.6011620000000  0.5138800000000  0.5065870000000 1.0
C      1  0.3995250000000  0.5138800000000  0.4927670000000 1.0
C      1  0.3995250000000  0.4856550000000  0.5065870000000 1.0
C      1  0.4481730000000  0.4332280000000  0.4677530000000 1.0
C      1  0.4481730000000  0.5663070000000  0.5316020000000 1.0
C      1  0.5525140000000  0.5663070000000  0.4677530000000 1.0
C      1  0.5525140000000  0.4332280000000  0.5316020000000 1.0
C      1  0.5280170000000  0.4813780000000  0.5887180000000 1.0
C      1  0.5280170000000  0.5181570000000  0.4106360000000 1.0
C      1  0.4726700000000  0.5181570000000  0.5887180000000 1.0
C      1  0.4726710000000  0.4813780000000  0.4106360000000 1.0
C      1  0.5164390000000  0.5361630000000  0.5154970000000 1.0
C      1  0.5164390000000  0.4633720000000  0.4838570000000 1.0
C      1  0.4842480000000  0.4633720000000  0.5154970000000 1.0
C      1  0.4842480000000  0.5361630000000  0.4838570000000 1.0
C      1  0.5730630000000  0.4945510000000  0.5583980000000 1.0
C      1  0.5730630000000  0.5049840000000  0.4409570000000 1.0
C      1  0.4276240000000  0.5049840000000  0.5583980000000 1.0
C      1  0.4276240000000  0.4945510000000  0.4409570000000 1.0
C      1  0.5146930000000  0.4248050000000  0.5026360000000 1.0
C      1  0.5146930000000  0.5747300000000  0.4967190000000 1.0
C      1  0.4859940000000  0.5747300000000  0.5026360000000 1.0
C      1  0.4859940000000  0.4248050000000  0.4967190000000 1.0
C      1  0.5488640000000  0.5294310000000  0.4302080000000 1.0
C      1  0.5488640000000  0.4701040000000  0.5691470000000 1.0
C      1  0.4518240000000  0.4701040000000  0.4302080000000 1.0
C      1  0.4518240000000  0.5294310000000  0.5691470000000 1.0
C      1  0.5003440000000  0.4997670000000  0.4996770000000 1.0
END
