TITL C-862129-6180-808 7.88246142606416 125000 -176.406200121834 0 0 32 (C1) n - 1
REM
REM in /home/nfs/bkarasulu/CARBON/AIRSS/Generating-Clusters/TERSOFF/Higher-Symm/FIRE-HFTN
REM
REM
REM
REM
REM
REM ./C.cell (b20cbc046b6831c77cfcea5457e17084)
REM AIRSS Version 0.9.1 bugfix July 2018 build 013d7b7c2542+ Fri, 06 Jul 2018 19:26:36 +0100
REM compiler GCC version 9.2.1 20190827 (Red Hat 9.2.1-1)
REM options -cpp -mtune=generic -march=x86-64 -g -O0 -fpre-include=/usr/include/finclude/math-vector-fortran.h
REM seed 602404798 89355884 -968291783 481187654 185992018 1249697059 1852609879 -794482983 -982062216 161660968 1480139415 1169422237 2068740658 -644577689 592883991 -1174319170 1206804417 1953154046 -1558211453 1503761376 1957283191 1629347113 -961575131 1164148901 -479658132 44808615 -1360885250 -1319276388 746165884 748856520 86157416 -353183750 516307040
REM
CELL 1.54180   50.00000   50.00000   50.00000   90.00000   90.00000   90.00000
LATT -1
SFAC C  
C      1  0.5088410000000  0.4035560000000  0.4660180000000 1.0
C      1  0.4869370000000  0.5774120000000  0.5719550000000 1.0
C      1  0.4952280000000  0.5154670000000  0.4313650000000 1.0
C      1  0.4972540000000  0.4691110000000  0.5388110000000 1.0
C      1  0.4469740000000  0.5521630000000  0.5013520000000 1.0
C      1  0.4948020000000  0.5609080000000  0.4880510000000 1.0
C      1  0.4895450000000  0.5260600000000  0.5727120000000 1.0
C      1  0.5066040000000  0.4523170000000  0.4498370000000 1.0
C      1  0.5288240000000  0.5002790000000  0.5917180000000 1.0
C      1  0.5419550000000  0.4668880000000  0.4165630000000 1.0
C      1  0.4773650000000  0.4537380000000  0.4509660000000 1.0
C      1  0.4620030000000  0.5196310000000  0.5650880000000 1.0
C      1  0.5204580000000  0.4297360000000  0.4618420000000 1.0
C      1  0.4958270000000  0.5523640000000  0.5834160000000 1.0
C      1  0.5108710000000  0.5060840000000  0.5696080000000 1.0
C      1  0.5220310000000  0.4735740000000  0.4366440000000 1.0
C      1  0.5516810000000  0.5178430000000  0.5221720000000 1.0
C      1  0.5534600000000  0.5221760000000  0.4726740000000 1.0
C      1  0.4698760000000  0.5154690000000  0.4442760000000 1.0
C      1  0.4726990000000  0.4729930000000  0.5249980000000 1.0
C      1  0.4525700000000  0.5167830000000  0.5377010000000 1.0
C      1  0.4622520000000  0.4721560000000  0.4676850000000 1.0
C      1  0.4667980000000  0.5008570000000  0.4690250000000 1.0
C      1  0.4649820000000  0.4998360000000  0.5175730000000 1.0
C      1  0.5138790000000  0.4921160000000  0.5441320000000 1.0
C      1  0.5171840000000  0.5014630000000  0.4438710000000 1.0
C      1  0.5265880000000  0.5112590000000  0.4698170000000 1.0
C      1  0.5247900000000  0.5066390000000  0.5211630000000 1.0
C      1  0.4787320000000  0.5126480000000  0.4940550000000 1.0
C      1  0.5097710000000  0.5083350000000  0.4948680000000 1.0
C      1  0.4734380000000  0.5422660000000  0.4944910000000 1.0
C      1  0.5658230000000  0.5254620000000  0.4983760000000 1.0
END
