TITL C-862502-1143-46 -109177.021555492 125000 -824.059454594499 0 0 144 (C2) n - 1
REM
REM in /home/nfs/bkarasulu/CARBON/AIRSS/Generating-Clusters/TERSOFF/Higher-Symm/FIRE-HFTN
REM
REM
REM
REM
REM
REM ./C.cell (b20cbc046b6831c77cfcea5457e17084)
REM AIRSS Version 0.9.1 bugfix July 2018 build 013d7b7c2542+ Fri, 06 Jul 2018 19:26:36 +0100
REM compiler GCC version 9.2.1 20190827 (Red Hat 9.2.1-1)
REM options -cpp -mtune=generic -march=x86-64 -g -O0 -fpre-include=/usr/include/finclude/math-vector-fortran.h
REM seed 871373519 905699366 555500753 -374351853 -1544879298 1322717741 -277528711 -2138506902 -1050916608 499336050 -1931308091 661255145 529923456 596702085 1087116323 2126565394 1615727354 383107948 -1991973289 -1689961995 1544977472 1555602775 -672308525 631672434 -1029008544 39162641 1284959173 1781758792 1234257315 -989900547 1580308751 -2002895280 -2085218381
REM
CELL 1.54180   50.00000   50.00000   50.00000   90.00000   90.00000   90.00000
LATT -1
SFAC C  
C      1  0.4347050000000  0.5360170000000  0.5699420000000 1.0
C      1  0.5652950000000  0.5360170000000  0.4300580000000 1.0
C      1  0.5509320000000  0.5465230000000  0.5059250000000 1.0
C      1  0.4490680000000  0.5465230000000  0.4940750000000 1.0
C      1  0.5838040000000  0.5213820000000  0.4990380000000 1.0
C      1  0.4161960000000  0.5213820000000  0.5009620000000 1.0
C      1  0.4764790000000  0.4519970000000  0.5926670000000 1.0
C      1  0.5235210000000  0.4519970000000  0.4073330000000 1.0
C      1  0.4249770000000  0.5165770000000  0.4698180000000 1.0
C      1  0.5750230000000  0.5165770000000  0.5301820000000 1.0
C      1  0.5374030000000  0.5188770000000  0.5118100000000 1.0
C      1  0.4625970000000  0.5188770000000  0.4881900000000 1.0
C      1  0.5322300000000  0.5793180000000  0.5466830000000 1.0
C      1  0.4677700000000  0.5793180000000  0.4533170000000 1.0
C      1  0.4454730000000  0.5096640000000  0.5148850000000 1.0
C      1  0.5545270000000  0.5096640000000  0.4851150000000 1.0
C      1  0.4941230000000  0.4488440000000  0.4059520000000 1.0
C      1  0.5058770000000  0.4488440000000  0.5940480000000 1.0
C      1  0.5542950000000  0.5043600000000  0.4553450000000 1.0
C      1  0.4457050000000  0.5043600000000  0.5446550000000 1.0
C      1  0.5235800000000  0.4606630000000  0.4623860000000 1.0
C      1  0.4764200000000  0.4606630000000  0.5376140000000 1.0
C      1  0.5128380000000  0.4003360000000  0.4914690000000 1.0
C      1  0.4871620000000  0.4003360000000  0.5085310000000 1.0
C      1  0.4148650000000  0.4524760000000  0.5361890000000 1.0
C      1  0.5851350000000  0.4524760000000  0.4638110000000 1.0
C      1  0.4648730000000  0.4824310000000  0.5137270000000 1.0
C      1  0.5351270000000  0.4824310000000  0.4862730000000 1.0
C      1  0.5805340000000  0.4316280000000  0.5068150000000 1.0
C      1  0.4194660000000  0.4316280000000  0.4931850000000 1.0
C      1  0.5966610000000  0.4508140000000  0.4921350000000 1.0
C      1  0.4033390000000  0.4508140000000  0.5078650000000 1.0
C      1  0.5428090000000  0.4805240000000  0.4441320000000 1.0
C      1  0.4571910000000  0.4805240000000  0.5558680000000 1.0
C      1  0.5126630000000  0.4107860000000  0.4631020000000 1.0
C      1  0.4873370000000  0.4107860000000  0.5368980000000 1.0
C      1  0.4221530000000  0.4846080000000  0.5786510000000 1.0
C      1  0.5778470000000  0.4846080000000  0.4213490000000 1.0
C      1  0.5005440000000  0.5408010000000  0.5330340000000 1.0
C      1  0.4994560000000  0.5408010000000  0.4669660000000 1.0
C      1  0.5886920000000  0.5749850000000  0.4926420000000 1.0
C      1  0.4113080000000  0.5749850000000  0.5073580000000 1.0
C      1  0.4873340000000  0.4084700000000  0.4483410000000 1.0
C      1  0.5126660000000  0.4084700000000  0.5516590000000 1.0
C      1  0.4226670000000  0.4810630000000  0.4477110000000 1.0
C      1  0.5773330000000  0.4810630000000  0.5522900000000 1.0
C      1  0.4651540000000  0.4541600000000  0.4372830000000 1.0
C      1  0.5348460000000  0.4541600000000  0.5627170000000 1.0
C      1  0.4902770000000  0.5874540000000  0.4343810000000 1.0
C      1  0.5097230000000  0.5874540000000  0.5656190000000 1.0
C      1  0.4042860000000  0.5231660000000  0.5296980000000 1.0
C      1  0.5957140000000  0.5231660000000  0.4703020000000 1.0
C      1  0.4946840000000  0.5689400000000  0.4114280000000 1.0
C      1  0.5053160000000  0.5689400000000  0.5885720000000 1.0
C      1  0.4987180000000  0.4781000000000  0.5603950000000 1.0
C      1  0.5012820000000  0.4781000000000  0.4396050000000 1.0
C      1  0.4641890000000  0.4774890000000  0.5843860000000 1.0
C      1  0.5358110000000  0.4774890000000  0.4156140000000 1.0
C      1  0.4418420000000  0.4461290000000  0.4801090000000 1.0
C      1  0.5581580000000  0.4461290000000  0.5198910000000 1.0
C      1  0.4928300000000  0.5195350000000  0.4869030000000 1.0
C      1  0.5071700000000  0.5195350000000  0.5130970000000 1.0
C      1  0.5906420000000  0.4780180000000  0.4470630000000 1.0
C      1  0.4093580000000  0.4780180000000  0.5529370000000 1.0
C      1  0.4827070000000  0.6026450000000  0.5240490000000 1.0
C      1  0.5172930000000  0.6026450000000  0.4759510000000 1.0
C      1  0.5279800000000  0.5459710000000  0.4606340000000 1.0
C      1  0.4720200000000  0.5459710000000  0.5393660000000 1.0
C      1  0.4837650000000  0.5957500000000  0.5529410000000 1.0
C      1  0.5162360000000  0.5957500000000  0.4470590000000 1.0
C      1  0.4291430000000  0.5124060000000  0.5876860000000 1.0
C      1  0.5708570000000  0.5124060000000  0.4123140000000 1.0
C      1  0.6066960000000  0.4991280000000  0.4587570000000 1.0
C      1  0.3933040000000  0.4991280000000  0.5412430000000 1.0
C      1  0.4478690000000  0.4946890000000  0.4655330000000 1.0
C      1  0.5521310000000  0.4946890000000  0.5344670000000 1.0
C      1  0.3971090000000  0.4759300000000  0.4622430000000 1.0
C      1  0.6028910000000  0.4759300000000  0.5377570000000 1.0
C      1  0.5625250000000  0.4279780000000  0.4642970000000 1.0
C      1  0.4374750000000  0.4279780000000  0.5357030000000 1.0
C      1  0.5441180000000  0.5608020000000  0.4804730000000 1.0
C      1  0.4558820000000  0.5608020000000  0.5195270000000 1.0
C      1  0.5528840000000  0.4742180000000  0.5112330000000 1.0
C      1  0.4471160000000  0.4742180000000  0.4887670000000 1.0
C      1  0.4859630000000  0.4471540000000  0.5054490000000 1.0
C      1  0.5140370000000  0.4471540000000  0.4945510000000 1.0
C      1  0.4340530000000  0.5004170000000  0.4011700000000 1.0
C      1  0.5659470000000  0.5004180000000  0.5988300000000 1.0
C      1  0.4607710000000  0.5806320000000  0.5639430000000 1.0
C      1  0.5392290000000  0.5806320000000  0.4360570000000 1.0
C      1  0.4796840000000  0.5325590000000  0.4436980000000 1.0
C      1  0.5203160000000  0.5325590000000  0.5563020000000 1.0
C      1  0.5125770000000  0.5683750000000  0.5227800000000 1.0
C      1  0.4874230000000  0.5683750000000  0.4772200000000 1.0
C      1  0.5354540000000  0.4306240000000  0.4230460000000 1.0
C      1  0.4645460000000  0.4306240000000  0.5769540000000 1.0
C      1  0.4839170000000  0.5488400000000  0.5886950000000 1.0
C      1  0.5160830000000  0.5488400000000  0.4113050000000 1.0
C      1  0.5294640000000  0.5832430000000  0.4945290000000 1.0
C      1  0.4705360000000  0.5832430000000  0.5054710000000 1.0
C      1  0.4555260000000  0.5521210000000  0.4443990000000 1.0
C      1  0.5444740000000  0.5521210000000  0.5556010000000 1.0
C      1  0.5829520000000  0.5440600000000  0.4530360000000 1.0
C      1  0.4170480000000  0.5440600000000  0.5469640000000 1.0
C      1  0.4245250000000  0.4791380000000  0.4186820000000 1.0
C      1  0.5754760000000  0.4791390000000  0.5813180000000 1.0
C      1  0.5286440000000  0.4733680000000  0.5890780000000 1.0
C      1  0.4713550000000  0.4733710000000  0.4109210000000 1.0
C      1  0.5173680000000  0.5050490000000  0.5759180000000 1.0
C      1  0.4826320000000  0.5050490000000  0.4240820000000 1.0
C      1  0.4654240000000  0.4310090000000  0.5471700000000 1.0
C      1  0.5345760000000  0.4310090000000  0.4528300000000 1.0
C      1  0.6055890000000  0.4738640000000  0.5081440000000 1.0
C      1  0.3944110000000  0.4738640000000  0.4918560000000 1.0
C      1  0.4181440000000  0.5544990000000  0.4861280000000 1.0
C      1  0.5818560000000  0.5544990000000  0.5138720000000 1.0
C      1  0.4617780000000  0.4026870000000  0.4937490000000 1.0
C      1  0.5382220000000  0.4026870000000  0.5062510000000 1.0
C      1  0.4651420000000  0.4326030000000  0.4909650000000 1.0
C      1  0.5348580000000  0.4326030000000  0.5090350000000 1.0
C      1  0.4344640000000  0.4109650000000  0.5097840000000 1.0
C      1  0.5655360000000  0.4109650000000  0.4902160000000 1.0
C      1  0.5448150000000  0.5951260000000  0.5214170000000 1.0
C      1  0.4551850000000  0.5951260000000  0.4785830000000 1.0
C      1  0.5060230000000  0.6268820000000  0.4869450000000 1.0
C      1  0.4939770000000  0.6268820000000  0.5130550000000 1.0
C      1  0.5013540000000  0.4921480000000  0.4790710000000 1.0
C      1  0.4986460000000  0.4921480000000  0.5209290000000 1.0
C      1  0.4780890000000  0.4757350000000  0.4605180000000 1.0
C      1  0.5219110000000  0.4757350000000  0.5394820000000 1.0
C      1  0.4291140000000  0.5440180000000  0.4554810000000 1.0
C      1  0.5708860000000  0.5440180000000  0.5445190000000 1.0
C      1  0.5345730000000  0.3960200000000  0.5357510000000 1.0
C      1  0.4654270000000  0.3960200000000  0.4642490000000 1.0
C      1  0.4417540000000  0.4438990000000  0.4512020000000 1.0
C      1  0.5582460000000  0.4438990000000  0.5487980000000 1.0
C      1  0.5195660000000  0.4290760000000  0.5725670000000 1.0
C      1  0.4804340000000  0.4290760000000  0.4274330000000 1.0
C      1  0.5398250000000  0.5130950000000  0.5968740000000 1.0
C      1  0.4601750000000  0.5130920000000  0.4031270000000 1.0
C      1  0.4277080000000  0.5672320000000  0.5307670000000 1.0
C      1  0.5722920000000  0.5672320000000  0.4692330000000 1.0
C      1  0.4620260000000  0.5499080000000  0.5681810000000 1.0
C      1  0.5379740000000  0.5499080000000  0.4318190000000 1.0
END
