TITL C-862506-1665-990 15141.8164517451 125000 -721.203617913748 0 0 128 (C2) n - 1
REM
REM in /home/nfs/bkarasulu/CARBON/AIRSS/Generating-Clusters/TERSOFF/Higher-Symm/FIRE-HFTN
REM
REM
REM
REM
REM
REM ./C.cell (b20cbc046b6831c77cfcea5457e17084)
REM AIRSS Version 0.9.1 bugfix July 2018 build 013d7b7c2542+ Fri, 06 Jul 2018 19:26:36 +0100
REM compiler GCC version 9.2.1 20190827 (Red Hat 9.2.1-1)
REM options -cpp -mtune=generic -march=x86-64 -g -O0 -fpre-include=/usr/include/finclude/math-vector-fortran.h
REM seed 784030182 -1065503960 -709640604 1574527766 1890261215 628479270 119451503 469816579 -1212740306 -756913702 -1429508372 -1971653217 1110470588 -43587895 -599140950 322229530 -1557124019 -608600209 40148212 239179690 -824161996 885508981 -246309276 -1384891363 -975953661 729079271 -296616866 -1882587843 -1169135505 -629463517 1499763026 510487476 1608011569
REM
CELL 1.54180   50.00000   50.00000   50.00000   90.00000   90.00000   90.00000
LATT -1
SFAC C  
C      1  0.5559890000000  0.5224200000000  0.6009010000000 1.0
C      1  0.4521270000000  0.4758930000000  0.5999290000000 1.0
C      1  0.5473540000000  0.5348420000000  0.4026300000000 1.0
C      1  0.4546790000000  0.4737330000000  0.4041040000000 1.0
C      1  0.4526640000000  0.5348160000000  0.5973880000000 1.0
C      1  0.5453080000000  0.4736600000000  0.5958820000000 1.0
C      1  0.4440230000000  0.5225010000000  0.3991100000000 1.0
C      1  0.5478610000000  0.4759200000000  0.4000580000000 1.0
C      1  0.4909030000000  0.5318070000000  0.5647570000000 1.0
C      1  0.5092210000000  0.4872340000000  0.5629500000000 1.0
C      1  0.4792950000000  0.5195090000000  0.4376030000000 1.0
C      1  0.5166460000000  0.5026020000000  0.4287750000000 1.0
C      1  0.5207150000000  0.5194660000000  0.5624070000000 1.0
C      1  0.4833550000000  0.5025740000000  0.5712270000000 1.0
C      1  0.5091140000000  0.5318360000000  0.4352590000000 1.0
C      1  0.4907730000000  0.4872710000000  0.4370440000000 1.0
C      1  0.4625670000000  0.4844230000000  0.5336520000000 1.0
C      1  0.5278410000000  0.5139070000000  0.5113130000000 1.0
C      1  0.4717810000000  0.4854000000000  0.4846990000000 1.0
C      1  0.5386970000000  0.5148210000000  0.4635520000000 1.0
C      1  0.5282110000000  0.4853780000000  0.5152940000000 1.0
C      1  0.4613110000000  0.5148220000000  0.5364550000000 1.0
C      1  0.5374250000000  0.4844210000000  0.4663390000000 1.0
C      1  0.4721660000000  0.5139270000000  0.4886940000000 1.0
C      1  0.5687290000000  0.5775270000000  0.5301940000000 1.0
C      1  0.4322890000000  0.4131220000000  0.5231410000000 1.0
C      1  0.5704350000000  0.5809720000000  0.4758770000000 1.0
C      1  0.4329300000000  0.4161560000000  0.4700910000000 1.0
C      1  0.4296070000000  0.5809960000000  0.5241650000000 1.0
C      1  0.5670260000000  0.4161060000000  0.5298650000000 1.0
C      1  0.4313110000000  0.5775780000000  0.4698460000000 1.0
C      1  0.5676660000000  0.4130990000000  0.4768140000000 1.0
C      1  0.4194760000000  0.5123260000000  0.5606850000000 1.0
C      1  0.5756640000000  0.4788540000000  0.5552970000000 1.0
C      1  0.4242000000000  0.5149710000000  0.4460030000000 1.0
C      1  0.5771790000000  0.4764770000000  0.4408140000000 1.0
C      1  0.5758080000000  0.5149040000000  0.5540040000000 1.0
C      1  0.4228090000000  0.4764870000000  0.5591740000000 1.0
C      1  0.5805310000000  0.5123160000000  0.4393220000000 1.0
C      1  0.4243250000000  0.4789220000000  0.4446930000000 1.0
C      1  0.5412600000000  0.4052180000000  0.4883810000000 1.0
C      1  0.4552660000000  0.5911590000000  0.4814950000000 1.0
C      1  0.5412230000000  0.4059410000000  0.5189520000000 1.0
C      1  0.4543350000000  0.5927330000000  0.5116480000000 1.0
C      1  0.4587280000000  0.4059720000000  0.4810000000000 1.0
C      1  0.5457130000000  0.5927160000000  0.4884000000000 1.0
C      1  0.4586910000000  0.4052340000000  0.5115700000000 1.0
C      1  0.5447810000000  0.5911270000000  0.5185530000000 1.0
C      1  0.4885800000000  0.4716340000000  0.4642440000000 1.0
C      1  0.5163550000000  0.5346170000000  0.4681290000000 1.0
C      1  0.4844380000000  0.4693550000000  0.5236670000000 1.0
C      1  0.5153350000000  0.5310460000000  0.5301480000000 1.0
C      1  0.5155470000000  0.4693590000000  0.4763170000000 1.0
C      1  0.4846810000000  0.5310700000000  0.4698680000000 1.0
C      1  0.5114050000000  0.4716090000000  0.5357420000000 1.0
C      1  0.4836620000000  0.5346090000000  0.5318890000000 1.0
C      1  0.5166660000000  0.5826940000000  0.5314020000000 1.0
C      1  0.4819320000000  0.4202000000000  0.5242950000000 1.0
C      1  0.5180250000000  0.5872230000000  0.4727960000000 1.0
C      1  0.4843230000000  0.4173180000000  0.4666180000000 1.0
C      1  0.4820200000000  0.5872180000000  0.5272490000000 1.0
C      1  0.5156340000000  0.4172930000000  0.5333390000000 1.0
C      1  0.4833770000000  0.5827190000000  0.4686410000000 1.0
C      1  0.5180270000000  0.4202030000000  0.4756640000000 1.0
C      1  0.5196840000000  0.4446280000000  0.5207210000000 1.0
C      1  0.4785800000000  0.5585420000000  0.5140840000000 1.0
C      1  0.5204610000000  0.4454000000000  0.4914320000000 1.0
C      1  0.4795230000000  0.5570040000000  0.4843130000000 1.0
C      1  0.4795110000000  0.4454070000000  0.5085390000000 1.0
C      1  0.5205060000000  0.5569850000000  0.5157170000000 1.0
C      1  0.4802880000000  0.4446490000000  0.4792510000000 1.0
C      1  0.5214500000000  0.5585380000000  0.4859460000000 1.0
C      1  0.4354150000000  0.4815340000000  0.5194450000000 1.0
C      1  0.5590060000000  0.5129400000000  0.5078830000000 1.0
C      1  0.4417010000000  0.4804930000000  0.4898970000000 1.0
C      1  0.5658900000000  0.5149890000000  0.4785780000000 1.0
C      1  0.5582890000000  0.4804580000000  0.5100930000000 1.0
C      1  0.4341170000000  0.5150120000000  0.5214300000000 1.0
C      1  0.5645760000000  0.4815110000000  0.4805450000000 1.0
C      1  0.4410000000000  0.5129740000000  0.4921230000000 1.0
C      1  0.5823330000000  0.5543620000000  0.5173020000000 1.0
C      1  0.4168360000000  0.4365480000000  0.5132910000000 1.0
C      1  0.5851480000000  0.5573220000000  0.4867880000000 1.0
C      1  0.4183600000000  0.4390500000000  0.4822020000000 1.0
C      1  0.4148810000000  0.5573590000000  0.5132420000000 1.0
C      1  0.5816090000000  0.4389990000000  0.5177670000000 1.0
C      1  0.4176950000000  0.5544130000000  0.4827260000000 1.0
C      1  0.5831320000000  0.4365120000000  0.4866760000000 1.0
C      1  0.4421000000000  0.4615740000000  0.5774310000000 1.0
C      1  0.5635260000000  0.5331730000000  0.5745110000000 1.0
C      1  0.4390330000000  0.4615450000000  0.4244310000000 1.0
C      1  0.5599630000000  0.5341780000000  0.4290300000000 1.0
C      1  0.5609480000000  0.4614740000000  0.5755490000000 1.0
C      1  0.4400540000000  0.5341720000000  0.5709880000000 1.0
C      1  0.5578800000000  0.4615840000000  0.4225490000000 1.0
C      1  0.4364910000000  0.5332450000000  0.4255060000000 1.0
C      1  0.5846600000000  0.4629970000000  0.4691740000000 1.0
C      1  0.4245770000000  0.5266640000000  0.4737240000000 1.0
C      1  0.5750240000000  0.4666440000000  0.5277200000000 1.0
C      1  0.4104930000000  0.5305690000000  0.5314070000000 1.0
C      1  0.4249590000000  0.4666970000000  0.4722630000000 1.0
C      1  0.5895230000000  0.5305390000000  0.4686090000000 1.0
C      1  0.4153210000000  0.4630240000000  0.5308070000000 1.0
C      1  0.5754370000000  0.5266110000000  0.5262890000000 1.0
C      1  0.5488650000000  0.4349320000000  0.5669150000000 1.0
C      1  0.4522690000000  0.5539230000000  0.5519790000000 1.0
C      1  0.5444010000000  0.4351190000000  0.4299400000000 1.0
C      1  0.4521380000000  0.5586200000000  0.4345150000000 1.0
C      1  0.4555650000000  0.4351060000000  0.5700270000000 1.0
C      1  0.5478920000000  0.5585610000000  0.5655160000000 1.0
C      1  0.4511010000000  0.4349910000000  0.4330520000000 1.0
C      1  0.5477590000000  0.5539250000000  0.4480490000000 1.0
C      1  0.5178850000000  0.4305790000000  0.4451630000000 1.0
C      1  0.4849610000000  0.5658710000000  0.4398120000000 1.0
C      1  0.5166370000000  0.4277040000000  0.5649100000000 1.0
C      1  0.4794840000000  0.5709910000000  0.5552660000000 1.0
C      1  0.4833250000000  0.4277460000000  0.4350520000000 1.0
C      1  0.5205520000000  0.5710090000000  0.4447710000000 1.0
C      1  0.4820790000000  0.4305600000000  0.5548010000000 1.0
C      1  0.5150730000000  0.5658330000000  0.5602220000000 1.0
C      1  0.5293770000000  0.4968370000000  0.4035300000000 1.0
C      1  0.4716660000000  0.5191040000000  0.4074290000000 1.0
C      1  0.5180160000000  0.4765710000000  0.5892990000000 1.0
C      1  0.4799010000000  0.5434650000000  0.5903930000000 1.0
C      1  0.4819720000000  0.4766270000000  0.4106890000000 1.0
C      1  0.5201210000000  0.5435020000000  0.4096290000000 1.0
C      1  0.4706210000000  0.4968020000000  0.5964680000000 1.0
C      1  0.5283440000000  0.5190410000000  0.5925810000000 1.0
END
