TITL C-862130-1496-1134 0.00161745225426643 125000 -1103.66758637687 0 0 181 (C1) n - 1
REM
REM in /home/nfs/bkarasulu/CARBON/AIRSS/Generating-Clusters/TERSOFF/Higher-Symm/FIRE-HFTN
REM
REM
REM
REM
REM
REM ./C.cell (b20cbc046b6831c77cfcea5457e17084)
REM AIRSS Version 0.9.1 bugfix July 2018 build 013d7b7c2542+ Fri, 06 Jul 2018 19:26:36 +0100
REM compiler GCC version 9.2.1 20190827 (Red Hat 9.2.1-1)
REM options -cpp -mtune=generic -march=x86-64 -g -O0 -fpre-include=/usr/include/finclude/math-vector-fortran.h
REM seed 1349522016 -1707368790 -22102004 1684487356 561392275 -964114535 1792387455 -159553297 -124734402 -221423059 -523377074 -1641251936 1869450197 -260853712 706091530 1414079380 -1469453270 -1051036100 -7926059 313562364 1011383318 58132950 2010501388 254568405 -803374314 -345597063 -271096316 -1271210343 1179536058 -1516640422 922841630 1060555439 -517564187
REM
CELL 1.54180   50.00000   50.00000   50.00000   90.00000   90.00000   90.00000
LATT -1
SFAC C  
C      1  0.4673010000000  0.4149910000000  0.4968240000000 1.0
C      1  0.4950930000000  0.4777140000000  0.4099230000000 1.0
C      1  0.4128400000000  0.4965810000000  0.4703430000000 1.0
C      1  0.4676910000000  0.5780180000000  0.5159000000000 1.0
C      1  0.5137240000000  0.5840970000000  0.4918480000000 1.0
C      1  0.5394730000000  0.4257330000000  0.5148310000000 1.0
C      1  0.4894700000000  0.5175410000000  0.5942310000000 1.0
C      1  0.5187680000000  0.5307390000000  0.4200500000000 1.0
C      1  0.5147410000000  0.4582790000000  0.5820820000000 1.0
C      1  0.4198250000000  0.5180330000000  0.5435570000000 1.0
C      1  0.5833350000000  0.5144460000000  0.4582080000000 1.0
C      1  0.5853250000000  0.4983330000000  0.5158600000000 1.0
C      1  0.5263320000000  0.4114900000000  0.4933600000000 1.0
C      1  0.5171800000000  0.4588560000000  0.4196860000000 1.0
C      1  0.5930810000000  0.4910790000000  0.4715830000000 1.0
C      1  0.5294660000000  0.5761030000000  0.5151160000000 1.0
C      1  0.4837710000000  0.5858580000000  0.4921540000000 1.0
C      1  0.4528840000000  0.4245040000000  0.5198670000000 1.0
C      1  0.5111480000000  0.5306750000000  0.5811800000000 1.0
C      1  0.4962330000000  0.5137010000000  0.4088370000000 1.0
C      1  0.4917360000000  0.4727650000000  0.5912180000000 1.0
C      1  0.5740350000000  0.5187830000000  0.5324350000000 1.0
C      1  0.4219950000000  0.5177670000000  0.4538520000000 1.0
C      1  0.4074380000000  0.4963270000000  0.5296330000000 1.0
C      1  0.5334450000000  0.4146190000000  0.5627680000000 1.0
C      1  0.5653460000000  0.5307420000000  0.4135700000000 1.0
C      1  0.4195350000000  0.5643270000000  0.5319050000000 1.0
C      1  0.5280430000000  0.5770460000000  0.4442970000000 1.0
C      1  0.4628610000000  0.5761630000000  0.5596200000000 1.0
C      1  0.4672590000000  0.4177320000000  0.4496100000000 1.0
C      1  0.5554940000000  0.4672570000000  0.5740960000000 1.0
C      1  0.4476970000000  0.4686170000000  0.4209300000000 1.0
C      1  0.4426170000000  0.5269680000000  0.5886210000000 1.0
C      1  0.4179240000000  0.4482960000000  0.4715320000000 1.0
C      1  0.5840930000000  0.4496860000000  0.5209300000000 1.0
C      1  0.5802230000000  0.5571590000000  0.4693410000000 1.0
C      1  0.4670410000000  0.4164270000000  0.5585630000000 1.0
C      1  0.4473050000000  0.5252770000000  0.4112960000000 1.0
C      1  0.5772800000000  0.5659930000000  0.5314510000000 1.0
C      1  0.4703230000000  0.5753040000000  0.4448630000000 1.0
C      1  0.5216430000000  0.5785640000000  0.5632300000000 1.0
C      1  0.5298230000000  0.4120530000000  0.4449270000000 1.0
C      1  0.4438630000000  0.4661820000000  0.5825440000000 1.0
C      1  0.5578000000000  0.4678240000000  0.4139370000000 1.0
C      1  0.5580220000000  0.5249280000000  0.5812360000000 1.0
C      1  0.5802120000000  0.4449110000000  0.4622360000000 1.0
C      1  0.4101740000000  0.4484460000000  0.5321100000000 1.0
C      1  0.4219660000000  0.5572520000000  0.4680730000000 1.0
C      1  0.5574470000000  0.6024810000000  0.4784580000000 1.0
C      1  0.4752580000000  0.5614800000000  0.6079470000000 1.0
C      1  0.6027680000000  0.4804040000000  0.5565450000000 1.0
C      1  0.5761870000000  0.4006110000000  0.5292890000000 1.0
C      1  0.4252990000000  0.3991920000000  0.4762020000000 1.0
C      1  0.4365030000000  0.6108040000000  0.5285340000000 1.0
C      1  0.4754430000000  0.4307950000000  0.4011490000000 1.0
C      1  0.5319670000000  0.4294680000000  0.6088540000000 1.0
C      1  0.5326480000000  0.5684240000000  0.3951060000000 1.0
C      1  0.6109260000000  0.5303840000000  0.4276770000000 1.0
C      1  0.3954760000000  0.5330720000000  0.5765920000000 1.0
C      1  0.3990710000000  0.4735440000000  0.4300320000000 1.0
C      1  0.4409060000000  0.6039650000000  0.4761320000000 1.0
C      1  0.5294830000000  0.5624720000000  0.6087170000000 1.0
C      1  0.3947880000000  0.4784640000000  0.5724710000000 1.0
C      1  0.4174120000000  0.3988820000000  0.5289380000000 1.0
C      1  0.5700040000000  0.3969060000000  0.4756470000000 1.0
C      1  0.5557430000000  0.6083410000000  0.5334980000000 1.0
C      1  0.5277120000000  0.4217680000000  0.3958800000000 1.0
C      1  0.4767200000000  0.4307600000000  0.6060780000000 1.0
C      1  0.4799760000000  0.5620750000000  0.3959340000000 1.0
C      1  0.3985740000000  0.5263350000000  0.4197870000000 1.0
C      1  0.6044350000000  0.5328460000000  0.5655190000000 1.0
C      1  0.6058260000000  0.4756690000000  0.4285200000000 1.0
C      1  0.5558820000000  0.5624750000000  0.5117980000000 1.0
C      1  0.5050200000000  0.5528990000000  0.5624250000000 1.0
C      1  0.5541480000000  0.5110840000000  0.5534870000000 1.0
C      1  0.5565570000000  0.4510460000000  0.4782230000000 1.0
C      1  0.4371380000000  0.4516840000000  0.5200730000000 1.0
C      1  0.4415540000000  0.5422740000000  0.4893650000000 1.0
C      1  0.5162020000000  0.4377660000000  0.4471260000000 1.0
C      1  0.4892280000000  0.4339020000000  0.5465930000000 1.0
C      1  0.4849040000000  0.5512460000000  0.4492500000000 1.0
C      1  0.5477210000000  0.4885350000000  0.4328870000000 1.0
C      1  0.4488840000000  0.4842530000000  0.5603180000000 1.0
C      1  0.4476730000000  0.5159210000000  0.4384250000000 1.0
C      1  0.4444380000000  0.5582230000000  0.5141500000000 1.0
C      1  0.4783410000000  0.5525050000000  0.5509610000000 1.0
C      1  0.4442780000000  0.5137290000000  0.5621000000000 1.0
C      1  0.4403700000000  0.4522160000000  0.4907790000000 1.0
C      1  0.5570600000000  0.4504250000000  0.5082340000000 1.0
C      1  0.5610760000000  0.5464590000000  0.4890210000000 1.0
C      1  0.4857010000000  0.4392590000000  0.4579490000000 1.0
C      1  0.5126320000000  0.4355660000000  0.5632270000000 1.0
C      1  0.5146380000000  0.5507580000000  0.4447830000000 1.0
C      1  0.4510710000000  0.4877330000000  0.4423350000000 1.0
C      1  0.5392220000000  0.4831320000000  0.5500260000000 1.0
C      1  0.5638260000000  0.5120790000000  0.4359410000000 1.0
C      1  0.4672190000000  0.5231920000000  0.5440750000000 1.0
C      1  0.5408470000000  0.4788260000000  0.5140880000000 1.0
C      1  0.5160610000000  0.5334180000000  0.4710520000000 1.0
C      1  0.4917690000000  0.4715190000000  0.4512560000000 1.0
C      1  0.5053940000000  0.4834880000000  0.5498180000000 1.0
C      1  0.5035140000000  0.5115410000000  0.4545780000000 1.0
C      1  0.5412880000000  0.5247400000000  0.4851590000000 1.0
C      1  0.4553330000000  0.5066820000000  0.5182410000000 1.0
C      1  0.4677160000000  0.4846470000000  0.4665340000000 1.0
C      1  0.5187450000000  0.4627530000000  0.4962570000000 1.0
C      1  0.4682290000000  0.4575800000000  0.4829590000000 1.0
C      1  0.4994940000000  0.5467030000000  0.5151490000000 1.0
C      1  0.4966560000000  0.5114990000000  0.5467520000000 1.0
C      1  0.4505290000000  0.4766820000000  0.5314240000000 1.0
C      1  0.4920390000000  0.5383910000000  0.4888770000000 1.0
C      1  0.5244450000000  0.4844430000000  0.4534210000000 1.0
C      1  0.4896630000000  0.4620380000000  0.5343300000000 1.0
C      1  0.4718110000000  0.5246750000000  0.4547200000000 1.0
C      1  0.4658170000000  0.5154930000000  0.4860450000000 1.0
C      1  0.5357190000000  0.5144830000000  0.5158340000000 1.0
C      1  0.5434540000000  0.4933750000000  0.4805160000000 1.0
C      1  0.4901390000000  0.4673510000000  0.5038500000000 1.0
C      1  0.5287040000000  0.4564170000000  0.4672250000000 1.0
C      1  0.5142140000000  0.5273910000000  0.5304160000000 1.0
C      1  0.3996930000000  0.4215640000000  0.5348140000000 1.0
C      1  0.5354750000000  0.4034240000000  0.4177770000000 1.0
C      1  0.4208780000000  0.5307430000000  0.4007710000000 1.0
C      1  0.4194660000000  0.5861860000000  0.4686800000000 1.0
C      1  0.5785510000000  0.5922500000000  0.5437270000000 1.0
C      1  0.5875960000000  0.4166640000000  0.4624400000000 1.0
C      1  0.5347310000000  0.5830630000000  0.5886350000000 1.0
C      1  0.4680200000000  0.5810490000000  0.4161030000000 1.0
C      1  0.4672490000000  0.4112750000000  0.5869920000000 1.0
C      1  0.4153960000000  0.4660420000000  0.5903500000000 1.0
C      1  0.5863610000000  0.4667580000000  0.4087400000000 1.0
C      1  0.5847470000000  0.5345360000000  0.5868740000000 1.0
C      1  0.5936880000000  0.4241100000000  0.5308300000000 1.0
C      1  0.4630180000000  0.4132240000000  0.4213160000000 1.0
C      1  0.5919370000000  0.5400240000000  0.4071870000000 1.0
C      1  0.5805130000000  0.5865820000000  0.4682000000000 1.0
C      1  0.4143760000000  0.5927760000000  0.5354740000000 1.0
C      1  0.4096520000000  0.4212810000000  0.4659100000000 1.0
C      1  0.4645010000000  0.5814800000000  0.5886600000000 1.0
C      1  0.5369760000000  0.5863140000000  0.4181860000000 1.0
C      1  0.5424360000000  0.4088870000000  0.5899530000000 1.0
C      1  0.5850200000000  0.4679660000000  0.5761110000000 1.0
C      1  0.4204700000000  0.4622540000000  0.4136900000000 1.0
C      1  0.4169420000000  0.5377290000000  0.5957610000000 1.0
C      1  0.4036650000000  0.5404680000000  0.4482660000000 1.0
C      1  0.4460010000000  0.4038830000000  0.5401520000000 1.0
C      1  0.5377230000000  0.4505020000000  0.3994390000000 1.0
C      1  0.3977730000000  0.4727910000000  0.5430570000000 1.0
C      1  0.5990130000000  0.4673390000000  0.4565170000000 1.0
C      1  0.5912380000000  0.5412990000000  0.5396860000000 1.0
C      1  0.4678810000000  0.5939630000000  0.4683450000000 1.0
C      1  0.5292680000000  0.5930390000000  0.5385440000000 1.0
C      1  0.5405340000000  0.4006730000000  0.4703050000000 1.0
C      1  0.5348360000000  0.5345380000000  0.5965260000000 1.0
C      1  0.4731440000000  0.5319660000000  0.3991700000000 1.0
C      1  0.4678050000000  0.4590590000000  0.5997920000000 1.0
C      1  0.6010130000000  0.5384550000000  0.4565610000000 1.0
C      1  0.5479540000000  0.4091940000000  0.5371160000000 1.0
C      1  0.4708050000000  0.4606970000000  0.4052440000000 1.0
C      1  0.5964000000000  0.4749870000000  0.5282860000000 1.0
C      1  0.4048790000000  0.4715810000000  0.4594490000000 1.0
C      1  0.4043090000000  0.5424040000000  0.5471340000000 1.0
C      1  0.5304590000000  0.5927160000000  0.4693230000000 1.0
C      1  0.4619270000000  0.5977190000000  0.5380630000000 1.0
C      1  0.4546410000000  0.4037370000000  0.4728750000000 1.0
C      1  0.4671310000000  0.5331530000000  0.6028860000000 1.0
C      1  0.5400890000000  0.5402140000000  0.4022030000000 1.0
C      1  0.5390960000000  0.4580120000000  0.5984440000000 1.0
C      1  0.4375350000000  0.6211060000000  0.5004370000000 1.0
C      1  0.5035810000000  0.4258510000000  0.6208250000000 1.0
C      1  0.6218370000000  0.5017030000000  0.4241140000000 1.0
C      1  0.4158420000000  0.3862480000000  0.5016640000000 1.0
C      1  0.5781020000000  0.3855290000000  0.5027950000000 1.0
C      1  0.5595450000000  0.6191750000000  0.5045750000000 1.0
C      1  0.5055240000000  0.5700750000000  0.3824530000000 1.0
C      1  0.5020730000000  0.5660200000000  0.6219100000000 1.0
C      1  0.4993390000000  0.4206760000000  0.3859490000000 1.0
C      1  0.6173250000000  0.5057220000000  0.5636270000000 1.0
C      1  0.3856270000000  0.4988840000000  0.4201870000000 1.0
C      1  0.3818920000000  0.5055440000000  0.5796460000000 1.0
C      1  0.4913650000000  0.4975700000000  0.4987340000000 1.0
END
