TITL C-862134-6730-281 3442.38457976573 125000 -553.237542803395 0 0 100 (C2) n - 1
REM
REM in /home/nfs/bkarasulu/CARBON/AIRSS/Generating-Clusters/TERSOFF/Higher-Symm/FIRE-HFTN
REM
REM
REM
REM
REM
REM ./C.cell (b20cbc046b6831c77cfcea5457e17084)
REM AIRSS Version 0.9.1 bugfix July 2018 build 013d7b7c2542+ Fri, 06 Jul 2018 19:26:36 +0100
REM compiler GCC version 9.2.1 20190827 (Red Hat 9.2.1-1)
REM options -cpp -mtune=generic -march=x86-64 -g -O0 -fpre-include=/usr/include/finclude/math-vector-fortran.h
REM seed -2010490710 -1021633342 -709583799 -790399091 -614939853 -1035094909 -590190586 -1775964337 1708362172 204718343 817856086 1636490210 92154383 -16295379 -1869952169 1495719858 -642290560 -291699860 303018661 1483143494 -1534980449 -2087121537 522851633 -185511127 771968486 -776193303 -1215259190 1219726157 -446133454 1188111398 -420051398 -32303198 1314356698
REM
CELL 1.54180   50.00000   50.00000   50.00000   90.00000   90.00000   90.00000
LATT -1
SFAC C  
C      1  0.5671370000000  0.4974190000000  0.5260070000000 1.0
C      1  0.5665510000000  0.5210950000000  0.4914050000000 1.0
C      1  0.5481420000000  0.4984190000000  0.4535610000000 1.0
C      1  0.5097990000000  0.4970100000000  0.4206170000000 1.0
C      1  0.4574580000000  0.4991720000000  0.4295670000000 1.0
C      1  0.4328520000000  0.4976850000000  0.4739970000000 1.0
C      1  0.4335450000000  0.5214080000000  0.5085650000000 1.0
C      1  0.4518520000000  0.4987030000000  0.5464410000000 1.0
C      1  0.4901870000000  0.4971670000000  0.5793870000000 1.0
C      1  0.5425380000000  0.4990800000000  0.5704340000000 1.0
C      1  0.5811900000000  0.5372770000000  0.4523190000000 1.0
C      1  0.5500840000000  0.5210220000000  0.4146640000000 1.0
C      1  0.4825300000000  0.5243620000000  0.3990110000000 1.0
C      1  0.4283800000000  0.5271390000000  0.4412390000000 1.0
C      1  0.4226000000000  0.5705820000000  0.4942620000000 1.0
C      1  0.4189790000000  0.5377110000000  0.5476280000000 1.0
C      1  0.4500110000000  0.5213690000000  0.5853060000000 1.0
C      1  0.5175800000000  0.5244260000000  0.6009540000000 1.0
C      1  0.5717420000000  0.5268980000000  0.5587230000000 1.0
C      1  0.5777180000000  0.5702390000000  0.5056380000000 1.0
C      1  0.4786280000000  0.5481540000000  0.4167980000000 1.0
C      1  0.4399390000000  0.5464480000000  0.4610300000000 1.0
C      1  0.4496870000000  0.5809790000000  0.4946390000000 1.0
C      1  0.4345060000000  0.5576420000000  0.5324040000000 1.0
C      1  0.4646890000000  0.5459740000000  0.5779470000000 1.0
C      1  0.5215900000000  0.5481750000000  0.5831340000000 1.0
C      1  0.5602700000000  0.5462320000000  0.5389050000000 1.0
C      1  0.5506790000000  0.5807590000000  0.5052460000000 1.0
C      1  0.5657530000000  0.5573000000000  0.4675150000000 1.0
C      1  0.5355190000000  0.5457030000000  0.4219880000000 1.0
C      1  0.5412740000000  0.5106120000000  0.5233480000000 1.0
C      1  0.5347210000000  0.5227330000000  0.4958530000000 1.0
C      1  0.5264900000000  0.5131730000000  0.4666720000000 1.0
C      1  0.5030520000000  0.5113730000000  0.4465140000000 1.0
C      1  0.4734540000000  0.5123030000000  0.4513120000000 1.0
C      1  0.4587740000000  0.5107650000000  0.4766360000000 1.0
C      1  0.4653820000000  0.5228960000000  0.5041140000000 1.0
C      1  0.4735700000000  0.5133390000000  0.5333090000000 1.0
C      1  0.4970000000000  0.5114630000000  0.5534700000000 1.0
C      1  0.5266010000000  0.5122520000000  0.5486710000000 1.0
C      1  0.4639760000000  0.5570160000000  0.5283880000000 1.0
C      1  0.4803930000000  0.5500230000000  0.5525860000000 1.0
C      1  0.5107880000000  0.5510680000000  0.5550640000000 1.0
C      1  0.5309010000000  0.5504280000000  0.5317510000000 1.0
C      1  0.5256590000000  0.5632380000000  0.5020710000000 1.0
C      1  0.5362810000000  0.5568120000000  0.4715310000000 1.0
C      1  0.5198330000000  0.5498590000000  0.4473440000000 1.0
C      1  0.4894430000000  0.5510380000000  0.4448630000000 1.0
C      1  0.4693270000000  0.5505220000000  0.4681780000000 1.0
C      1  0.4746280000000  0.5633500000000  0.4978400000000 1.0
C      1  0.4203350000000  0.4897570000000  0.5202300000000 1.0
C      1  0.4589980000000  0.4737560000000  0.5617950000000 1.0
C      1  0.5092150000000  0.4734510000000  0.5861620000000 1.0
C      1  0.5604080000000  0.4747670000000  0.5607230000000 1.0
C      1  0.5708880000000  0.4757020000000  0.5063710000000 1.0
C      1  0.5796180000000  0.4893680000000  0.4797850000000 1.0
C      1  0.5408830000000  0.4734830000000  0.4382420000000 1.0
C      1  0.4906650000000  0.4733710000000  0.4138750000000 1.0
C      1  0.4394780000000  0.4749540000000  0.4393130000000 1.0
C      1  0.4290020000000  0.4760140000000  0.4936630000000 1.0
C      1  0.4274300000000  0.4458600000000  0.4888090000000 1.0
C      1  0.4344810000000  0.4585720000000  0.5314290000000 1.0
C      1  0.4608140000000  0.4430550000000  0.5612670000000 1.0
C      1  0.5081170000000  0.4417770000000  0.5822170000000 1.0
C      1  0.5578230000000  0.4431840000000  0.5589820000000 1.0
C      1  0.5723240000000  0.4455490000000  0.5112680000000 1.0
C      1  0.5653310000000  0.4582320000000  0.4686300000000 1.0
C      1  0.5389280000000  0.4427920000000  0.4388140000000 1.0
C      1  0.4916200000000  0.4416970000000  0.4178660000000 1.0
C      1  0.4419200000000  0.4433620000000  0.4410990000000 1.0
C      1  0.5803080000000  0.4983110000000  0.5520890000000 1.0
C      1  0.5847880000000  0.5419740000000  0.5016720000000 1.0
C      1  0.5760010000000  0.5085270000000  0.4525440000000 1.0
C      1  0.5377960000000  0.4942690000000  0.4131080000000 1.0
C      1  0.4711550000000  0.4971850000000  0.4042150000000 1.0
C      1  0.4196850000000  0.4986000000000  0.4479130000000 1.0
C      1  0.4154030000000  0.5423540000000  0.4982680000000 1.0
C      1  0.4240380000000  0.5089380000000  0.5474430000000 1.0
C      1  0.4621790000000  0.4945630000000  0.5869000000000 1.0
C      1  0.5288320000000  0.4971900000000  0.5957890000000 1.0
C      1  0.5417420000000  0.4407730000000  0.4806710000000 1.0
C      1  0.5204320000000  0.4283340000000  0.4593390000000 1.0
C      1  0.4913280000000  0.4294850000000  0.4456110000000 1.0
C      1  0.4628130000000  0.4304290000000  0.4587160000000 1.0
C      1  0.4537360000000  0.4294560000000  0.4894180000000 1.0
C      1  0.4579900000000  0.4409900000000  0.5194130000000 1.0
C      1  0.4792440000000  0.4284850000000  0.5407620000000 1.0
C      1  0.5083530000000  0.4295230000000  0.5544890000000 1.0
C      1  0.5368720000000  0.4303210000000  0.5413830000000 1.0
C      1  0.5459450000000  0.4292630000000  0.5106820000000 1.0
C      1  0.5184680000000  0.4791260000000  0.4898650000000 1.0
C      1  0.5160370000000  0.4722870000000  0.4606250000000 1.0
C      1  0.4902160000000  0.4714100000000  0.4474880000000 1.0
C      1  0.4649630000000  0.4723110000000  0.4609300000000 1.0
C      1  0.4609440000000  0.4711270000000  0.4903310000000 1.0
C      1  0.4814380000000  0.4792240000000  0.5101650000000 1.0
C      1  0.4838380000000  0.4724150000000  0.5394140000000 1.0
C      1  0.5096540000000  0.4714400000000  0.5525530000000 1.0
C      1  0.5349120000000  0.4722080000000  0.5391090000000 1.0
C      1  0.5389250000000  0.4709640000000  0.5097100000000 1.0
END
