TITL C-862131-2149-905 8.66972216144222e-06 125000 -121.105029399055 0 0 22 (S4) n - 1
REM
REM in /home/nfs/bkarasulu/CARBON/AIRSS/Generating-Clusters/TERSOFF/Higher-Symm/FIRE-HFTN
REM
REM
REM
REM
REM
REM ./C.cell (b20cbc046b6831c77cfcea5457e17084)
REM AIRSS Version 0.9.1 bugfix July 2018 build 013d7b7c2542+ Fri, 06 Jul 2018 19:26:36 +0100
REM compiler GCC version 9.2.1 20190827 (Red Hat 9.2.1-1)
REM options -cpp -mtune=generic -march=x86-64 -g -O0 -fpre-include=/usr/include/finclude/math-vector-fortran.h
REM seed -1899518555 -1078061079 -1466704938 2086266918 -282395720 1107863266 2140806128 -1756357243 633771046 -844433989 963611749 -249588844 -445101136 1360985982 899335620 -1912736577 -13137264 -744393639 1295184364 363464477 -695706042 1879308128 -261151815 1944453144 89435440 341399263 1099720968 1957407015 -1923900562 532405034 -537956346 -545354942 -204888395
REM
CELL 1.54180   50.00000   50.00000   50.00000   90.00000   90.00000   90.00000
LATT -1
SFAC C  
C      1  0.5505020000000  0.5062380000000  0.4968730000000 1.0
C      1  0.4952990000000  0.5487940000000  0.5031270000000 1.0
C      1  0.4527430000000  0.4935910000000  0.4968730000000 1.0
C      1  0.5079450000000  0.4510350000000  0.5031270000000 1.0
C      1  0.5385800000000  0.5300340000000  0.4851620000000 1.0
C      1  0.4715030000000  0.5368730000000  0.5148380000000 1.0
C      1  0.4646640000000  0.4697960000000  0.4851620000000 1.0
C      1  0.5317410000000  0.4629560000000  0.5148380000000 1.0
C      1  0.4932400000000  0.4652590000000  0.4822750000000 1.0
C      1  0.5362780000000  0.4915320000000  0.5177250000000 1.0
C      1  0.5100050000000  0.5345700000000  0.4822750000000 1.0
C      1  0.4669670000000  0.5082970000000  0.5177250000000 1.0
C      1  0.4960610000000  0.5249540000000  0.4586410000000 1.0
C      1  0.4765830000000  0.4943530000000  0.5413590000000 1.0
C      1  0.5071840000000  0.4748760000000  0.4586410000000 1.0
C      1  0.5266610000000  0.5054760000000  0.5413590000000 1.0
C      1  0.5044630000000  0.5748680000000  0.5121640000000 1.0
C      1  0.4266690000000  0.5027550000000  0.4878360000000 1.0
C      1  0.4987820000000  0.4249610000000  0.5121640000000 1.0
C      1  0.5765760000000  0.4970740000000  0.4878360000000 1.0
C      1  0.5016220000000  0.4999150000000  0.5547710000000 1.0
C      1  0.5016220000000  0.4999150000000  0.4452290000000 1.0
END
