TITL C-862500-986-13 0.00124159110059061 125000 -526.853244919081 0 0 94 (C2h) n - 1
REM
REM in /home/nfs/bkarasulu/CARBON/AIRSS/Generating-Clusters/TERSOFF/Higher-Symm/FIRE-HFTN
REM
REM
REM
REM
REM
REM ./C.cell (b20cbc046b6831c77cfcea5457e17084)
REM AIRSS Version 0.9.1 bugfix July 2018 build 013d7b7c2542+ Fri, 06 Jul 2018 19:26:36 +0100
REM compiler GCC version 9.2.1 20190827 (Red Hat 9.2.1-1)
REM options -cpp -mtune=generic -march=x86-64 -g -O0 -fpre-include=/usr/include/finclude/math-vector-fortran.h
REM seed 877072067 1105183532 1686169007 1010903644 -1991318775 1139784646 -127037406 -301128172 780173676 1568022967 473615661 1095527868 -1849285353 -1089639455 626201052 -1450873268 1462182587 -1024655455 -294072516 264323271 -523087282 -1976454196 -1366868444 1547817962 -658426082 740794182 -1506696968 532312666 474031147 -644843577 1841861779 1354369462 -703411073
REM
CELL 1.54180   50.00000   50.00000   50.00000   90.00000   90.00000   90.00000
LATT -1
SFAC C  
C      1  0.4860510000000  0.4184960000000  0.5577400000000 1.0
C      1  0.5139490000000  0.4184960000000  0.4422600000000 1.0
C      1  0.4860510000000  0.5831960000000  0.5577400000000 1.0
C      1  0.5139490000000  0.5831960000000  0.4422600000000 1.0
C      1  0.4530850000000  0.4276090000000  0.4931880000000 1.0
C      1  0.5469150000000  0.4276090000000  0.5068120000000 1.0
C      1  0.4530850000000  0.5740830000000  0.4931880000000 1.0
C      1  0.5469150000000  0.5740830000000  0.5068120000000 1.0
C      1  0.4730290000000  0.5146700000000  0.5322850000000 1.0
C      1  0.5269710000000  0.5146700000000  0.4677150000000 1.0
C      1  0.4730290000000  0.4870210000000  0.5322850000000 1.0
C      1  0.5269710000000  0.4870210000000  0.4677150000000 1.0
C      1  0.5067600000000  0.5319240000000  0.5758260000000 1.0
C      1  0.4932400000000  0.5319240000000  0.4241740000000 1.0
C      1  0.5067600000000  0.4697670000000  0.5758260000000 1.0
C      1  0.4932400000000  0.4697670000000  0.4241740000000 1.0
C      1  0.4540360000000  0.5169190000000  0.5748930000000 1.0
C      1  0.5459640000000  0.5169190000000  0.4251070000000 1.0
C      1  0.4540360000000  0.4847730000000  0.5748930000000 1.0
C      1  0.5459640000000  0.4847730000000  0.4251070000000 1.0
C      1  0.5287510000000  0.4051850000000  0.4922230000000 1.0
C      1  0.4712490000000  0.4051850000000  0.5077770000000 1.0
C      1  0.5287510000000  0.5965060000000  0.4922230000000 1.0
C      1  0.4712490000000  0.5965060000000  0.5077770000000 1.0
C      1  0.5008170000000  0.5267970000000  0.4675640000000 1.0
C      1  0.4991830000000  0.5267970000000  0.5324360000000 1.0
C      1  0.5008170000000  0.4748940000000  0.4675640000000 1.0
C      1  0.4991830000000  0.4748940000000  0.5324360000000 1.0
C      1  0.5087650000000  0.4394730000000  0.5728820000000 1.0
C      1  0.4912350000000  0.4394730000000  0.4271180000000 1.0
C      1  0.5087650000000  0.5622190000000  0.5728820000000 1.0
C      1  0.4912350000000  0.5622190000000  0.4271180000000 1.0
C      1  0.4671380000000  0.5270560000000  0.4926380000000 1.0
C      1  0.5328620000000  0.5270560000000  0.5073620000000 1.0
C      1  0.4671380000000  0.4746360000000  0.4926380000000 1.0
C      1  0.5328620000000  0.4746360000000  0.5073620000000 1.0
C      1  0.5181050000000  0.5162270000000  0.5527450000000 1.0
C      1  0.4818950000000  0.5162270000000  0.4472550000000 1.0
C      1  0.5181050000000  0.4854650000000  0.5527450000000 1.0
C      1  0.4818950000000  0.4854650000000  0.4472550000000 1.0
C      1  0.4836650000000  0.5177010000000  0.5886760000000 1.0
C      1  0.5163350000000  0.5177010000000  0.4113240000000 1.0
C      1  0.4836650000000  0.4839910000000  0.5886760000000 1.0
C      1  0.5163350000000  0.4839910000000  0.4113240000000 1.0
C      1  0.4246300000000  0.4860370000000  0.5328190000000 1.0
C      1  0.5753700000000  0.4860370000000  0.4671810000000 1.0
C      1  0.4246300000000  0.5156540000000  0.5328190000000 1.0
C      1  0.5753700000000  0.5156540000000  0.4671810000000 1.0
C      1  0.5509130000000  0.4748210000000  0.4539360000000 1.0
C      1  0.4490870000000  0.4748210000000  0.5460640000000 1.0
C      1  0.5509130000000  0.5268710000000  0.4539360000000 1.0
C      1  0.4490870000000  0.5268710000000  0.5460640000000 1.0
C      1  0.4740110000000  0.5745780000000  0.4515150000000 1.0
C      1  0.5259890000000  0.5745780000000  0.5484850000000 1.0
C      1  0.4740110000000  0.4271140000000  0.4515150000000 1.0
C      1  0.5259890000000  0.4271140000000  0.5484850000000 1.0
C      1  0.5596720000000  0.4690840000000  0.5410290000000 1.0
C      1  0.4403280000000  0.4690840000000  0.4589710000000 1.0
C      1  0.5596720000000  0.5326080000000  0.5410290000000 1.0
C      1  0.4403280000000  0.5326080000000  0.4589710000000 1.0
C      1  0.4596820000000  0.5744410000000  0.5533560000000 1.0
C      1  0.5403180000000  0.5744410000000  0.4466440000000 1.0
C      1  0.4596820000000  0.4272500000000  0.5533560000000 1.0
C      1  0.5403180000000  0.4272500000000  0.4466440000000 1.0
C      1  0.4499410000000  0.5627280000000  0.4636240000000 1.0
C      1  0.5500590000000  0.5627280000000  0.5363760000000 1.0
C      1  0.4499410000000  0.4389630000000  0.4636240000000 1.0
C      1  0.5500590000000  0.4389630000000  0.5363760000000 1.0
C      1  0.5594580000000  0.4852300000000  0.5157030000000 1.0
C      1  0.4405420000000  0.4852300000000  0.4842970000000 1.0
C      1  0.5594580000000  0.5164620000000  0.5157030000000 1.0
C      1  0.4405420000000  0.5164620000000  0.4842970000000 1.0
C      1  0.5294960000000  0.4490670000000  0.4932200000000 1.0
C      1  0.4705040000000  0.4490670000000  0.5067800000000 1.0
C      1  0.5294960000000  0.5526250000000  0.4932200000000 1.0
C      1  0.4705040000000  0.5526250000000  0.5067800000000 1.0
C      1  0.4212790000000  0.4762940000000  0.5053840000000 1.0
C      1  0.5787210000000  0.4762940000000  0.4946160000000 1.0
C      1  0.4212790000000  0.5253980000000  0.5053840000000 1.0
C      1  0.5787210000000  0.5253980000000  0.4946160000000 1.0
C      1  0.5580010000000  0.4857400000000  0.5658620000000 1.0
C      1  0.4419990000000  0.4857400000000  0.4341380000000 1.0
C      1  0.5580010000000  0.5159520000000  0.5658620000000 1.0
C      1  0.4419990000000  0.5159520000000  0.4341380000000 1.0
C      1  0.5437480000000  0.5530490000000  0.4647190000000 1.0
C      1  0.4562520000000  0.5530490000000  0.5352810000000 1.0
C      1  0.5437480000000  0.4486430000000  0.4647190000000 1.0
C      1  0.4562520000000  0.4486430000000  0.5352810000000 1.0
C      1  0.4996030000000  0.5888190000000  0.4724700000000 1.0
C      1  0.5003970000000  0.5888190000000  0.5275300000000 1.0
C      1  0.4996030000000  0.4128730000000  0.4724700000000 1.0
C      1  0.5003970000000  0.4128730000000  0.5275300000000 1.0
C      1  0.5000000000000  0.5669160000000  0.5000000000000 1.0
C      1  0.5000000000000  0.4347760000000  0.5000000000000 1.0
END
