TITL C-862504-1170-107 7.89367900486782e-05 125000 -551.615157338388 0 0 103 (C2v) n - 1
REM
REM in /home/nfs/bkarasulu/CARBON/AIRSS/Generating-Clusters/TERSOFF/Higher-Symm/FIRE-HFTN
REM
REM
REM
REM
REM
REM ./C.cell (b20cbc046b6831c77cfcea5457e17084)
REM AIRSS Version 0.9.1 bugfix July 2018 build 013d7b7c2542+ Fri, 06 Jul 2018 19:26:36 +0100
REM compiler GCC version 9.2.1 20190827 (Red Hat 9.2.1-1)
REM options -cpp -mtune=generic -march=x86-64 -g -O0 -fpre-include=/usr/include/finclude/math-vector-fortran.h
REM seed 1124782107 345159390 -1503570248 686102330 -1470856683 718012100 -1779152560 -598350381 1754849670 -1307850895 -1726099917 923415249 1821065710 399139364 -1292154174 1210104199 348783989 319472262 -1287774813 1181645463 -1921533437 -2087708535 1850445030 -598194750 -312534135 734862620 1690281806 -591285461 77118906 258884232 -494498411 -1406630644 1858711516
REM
CELL 1.54180   50.00000   50.00000   50.00000   90.00000   90.00000   90.00000
LATT -1
SFAC C  
C      1  0.4821840000000  0.4403610000000  0.4365120000000 1.0
C      1  0.5179900000000  0.5605370000000  0.4360730000000 1.0
C      1  0.4821840000000  0.4403610000000  0.5637130000000 1.0
C      1  0.5179900000000  0.5605370000000  0.5641510000000 1.0
C      1  0.5177740000000  0.4403610000000  0.4365120000000 1.0
C      1  0.4819680000000  0.5605370000000  0.4360730000000 1.0
C      1  0.5177740000000  0.4403610000000  0.5637130000000 1.0
C      1  0.4819680000000  0.5605370000000  0.5641510000000 1.0
C      1  0.4528330000000  0.5751880000000  0.4400320000000 1.0
C      1  0.5460030000000  0.4243070000000  0.4405600000000 1.0
C      1  0.4528330000000  0.5751880000000  0.5601910000000 1.0
C      1  0.5460030000000  0.4243070000000  0.5596650000000 1.0
C      1  0.5471240000000  0.5751880000000  0.4400320000000 1.0
C      1  0.4539540000000  0.4243070000000  0.4405600000000 1.0
C      1  0.5471240000000  0.5751880000000  0.5601910000000 1.0
C      1  0.4539540000000  0.4243070000000  0.5596650000000 1.0
C      1  0.5227330000000  0.5633180000000  0.5282210000000 1.0
C      1  0.4771950000000  0.4378130000000  0.5274840000000 1.0
C      1  0.5227330000000  0.5633170000000  0.4720030000000 1.0
C      1  0.4771950000000  0.4378120000000  0.4727400000000 1.0
C      1  0.4772250000000  0.5633180000000  0.5282210000000 1.0
C      1  0.5227630000000  0.4378130000000  0.5274840000000 1.0
C      1  0.4772250000000  0.5633170000000  0.4720030000000 1.0
C      1  0.5227630000000  0.4378120000000  0.4727400000000 1.0
C      1  0.5689390000000  0.5153670000000  0.4444670000000 1.0
C      1  0.4281710000000  0.4834170000000  0.4438180000000 1.0
C      1  0.5689390000000  0.5153670000000  0.5557570000000 1.0
C      1  0.4281710000000  0.4834170000000  0.5564070000000 1.0
C      1  0.4310190000000  0.5153670000000  0.4444670000000 1.0
C      1  0.5717860000000  0.4834170000000  0.4438180000000 1.0
C      1  0.4310190000000  0.5153670000000  0.5557570000000 1.0
C      1  0.5717860000000  0.4834170000000  0.5564070000000 1.0
C      1  0.4686470000000  0.4684410000000  0.5303150000000 1.0
C      1  0.5255460000000  0.5289430000000  0.5250390000000 1.0
C      1  0.4686470000000  0.4684410000000  0.4699090000000 1.0
C      1  0.5255460000000  0.5289430000000  0.4751850000000 1.0
C      1  0.5313110000000  0.4684410000000  0.5303150000000 1.0
C      1  0.4744120000000  0.5289430000000  0.5250390000000 1.0
C      1  0.5313110000000  0.4684410000000  0.4699090000000 1.0
C      1  0.4744120000000  0.5289430000000  0.4751850000000 1.0
C      1  0.4487350000000  0.4844010000000  0.4191200000000 1.0
C      1  0.5503490000000  0.5185140000000  0.4192500000000 1.0
C      1  0.4487350000000  0.4844010000000  0.5811040000000 1.0
C      1  0.5503490000000  0.5185150000000  0.5809740000000 1.0
C      1  0.5512220000000  0.4844010000000  0.4191200000000 1.0
C      1  0.4496090000000  0.5185140000000  0.4192500000000 1.0
C      1  0.5512220000000  0.4844010000000  0.5811040000000 1.0
C      1  0.4496090000000  0.5185150000000  0.5809740000000 1.0
C      1  0.5249850000000  0.4703090000000  0.5755410000000 1.0
C      1  0.4754650000000  0.5305820000000  0.5726900000000 1.0
C      1  0.5249850000000  0.4703080000000  0.4246840000000 1.0
C      1  0.4754650000000  0.5305820000000  0.4275340000000 1.0
C      1  0.4749720000000  0.4703090000000  0.5755410000000 1.0
C      1  0.5244930000000  0.5305820000000  0.5726900000000 1.0
C      1  0.4749720000000  0.4703080000000  0.4246840000000 1.0
C      1  0.5244930000000  0.5305820000000  0.4275340000000 1.0
C      1  0.4417300000000  0.5241830000000  0.5276200000000 1.0
C      1  0.5612770000000  0.4739910000000  0.5287420000000 1.0
C      1  0.4417300000000  0.5241830000000  0.4726040000000 1.0
C      1  0.5612770000000  0.4739910000000  0.4714820000000 1.0
C      1  0.5582270000000  0.5241830000000  0.5276200000000 1.0
C      1  0.4386810000000  0.4739910000000  0.5287420000000 1.0
C      1  0.5582270000000  0.5241830000000  0.4726040000000 1.0
C      1  0.4386810000000  0.4739910000000  0.4714820000000 1.0
C      1  0.4843410000000  0.4082560000000  0.5159270000000 1.0
C      1  0.5155120000000  0.5922300000000  0.5159070000000 1.0
C      1  0.4843410000000  0.4082560000000  0.4842980000000 1.0
C      1  0.5155120000000  0.5922300000000  0.4843160000000 1.0
C      1  0.5156170000000  0.4082560000000  0.5159270000000 1.0
C      1  0.4844460000000  0.5922300000000  0.5159070000000 1.0
C      1  0.5156170000000  0.4082560000000  0.4842980000000 1.0
C      1  0.4844460000000  0.5922300000000  0.4843160000000 1.0
C      1  0.4849540000000  0.5153220000000  0.5494110000000 1.0
C      1  0.5156710000000  0.4838030000000  0.5501240000000 1.0
C      1  0.4849540000000  0.5153220000000  0.4508130000000 1.0
C      1  0.5156710000000  0.4838020000000  0.4501000000000 1.0
C      1  0.5150040000000  0.5153220000000  0.5494110000000 1.0
C      1  0.4842870000000  0.4838030000000  0.5501240000000 1.0
C      1  0.5150040000000  0.5153220000000  0.4508130000000 1.0
C      1  0.4842870000000  0.4838020000000  0.4501000000000 1.0
C      1  0.5551380000000  0.5725470000000  0.5293910000000 1.0
C      1  0.4448570000000  0.4262450000000  0.5291060000000 1.0
C      1  0.5551380000000  0.5725460000000  0.4708330000000 1.0
C      1  0.4448570000000  0.4262450000000  0.4711180000000 1.0
C      1  0.4448200000000  0.5725470000000  0.5293910000000 1.0
C      1  0.5551010000000  0.4262450000000  0.5291060000000 1.0
C      1  0.4448200000000  0.5725460000000  0.4708330000000 1.0
C      1  0.5551010000000  0.4262450000000  0.4711180000000 1.0
C      1  0.5690760000000  0.5496860000000  0.5152700000000 1.0
C      1  0.4287620000000  0.4483310000000  0.5153800000000 1.0
C      1  0.5690760000000  0.5496860000000  0.4849540000000 1.0
C      1  0.4287620000000  0.4483310000000  0.4848440000000 1.0
C      1  0.4308810000000  0.5496860000000  0.5152700000000 1.0
C      1  0.5711960000000  0.4483310000000  0.5153800000000 1.0
C      1  0.4308810000000  0.5496860000000  0.4849540000000 1.0
C      1  0.5711960000000  0.4483310000000  0.4848440000000 1.0
C      1  0.4356450000000  0.4990210000000  0.5138100000000 1.0
C      1  0.5643130000000  0.4990210000000  0.5138100000000 1.0
C      1  0.4356450000000  0.4990210000000  0.4864140000000 1.0
C      1  0.5643130000000  0.4990210000000  0.4864140000000 1.0
C      1  0.4999790000000  0.4438800000000  0.5001120000000 1.0
C      1  0.4999790000000  0.5565580000000  0.5001120000000 1.0
C      1  0.4999790000000  0.5232530000000  0.5001120000000 1.0
END
