TITL C-862130-1496-720 -0.0653307445864645 125000 -666.362567047416 0 0 115 (C2) n - 1
REM
REM in /home/nfs/bkarasulu/CARBON/AIRSS/Generating-Clusters/TERSOFF/Higher-Symm/FIRE-HFTN
REM
REM
REM
REM
REM
REM ./C.cell (b20cbc046b6831c77cfcea5457e17084)
REM AIRSS Version 0.9.1 bugfix July 2018 build 013d7b7c2542+ Fri, 06 Jul 2018 19:26:36 +0100
REM compiler GCC version 9.2.1 20190827 (Red Hat 9.2.1-1)
REM options -cpp -mtune=generic -march=x86-64 -g -O0 -fpre-include=/usr/include/finclude/math-vector-fortran.h
REM seed 1559038545 -400253490 -237030126 -616353783 -997321559 -278500732 32976979 -1083128372 -790234797 -234602037 842422829 -851100263 -25252494 1947336005 130576077 2000304800 -1508073809 -655708151 -128328018 1827754209 1640944414 -1756918256 205133005 -680327422 -860196809 1935325341 1613936630 1519965990 -390646791 -492170188 -2124694220 1777580178 622349500
REM
CELL 1.54180   50.00000   50.00000   50.00000   90.00000   90.00000   90.00000
LATT -1
SFAC C  
C      1  0.4817160000000  0.4890130000000  0.5975100000000 1.0
C      1  0.5175650000000  0.5108040000000  0.5975100000000 1.0
C      1  0.5047570000000  0.5422280000000  0.4280150000000 1.0
C      1  0.4945260000000  0.4575910000000  0.4280150000000 1.0
C      1  0.4442260000000  0.4142080000000  0.5485150000000 1.0
C      1  0.5550560000000  0.5856100000000  0.5485170000000 1.0
C      1  0.5481290000000  0.4278690000000  0.4627190000000 1.0
C      1  0.4511530000000  0.5719500000000  0.4627200000000 1.0
C      1  0.5243800000000  0.4201430000000  0.4792170000000 1.0
C      1  0.4749020000000  0.5796750000000  0.4792180000000 1.0
C      1  0.4989780000000  0.4517570000000  0.5432450000000 1.0
C      1  0.5003030000000  0.5480610000000  0.5432460000000 1.0
C      1  0.5852050000000  0.5488750000000  0.5274070000000 1.0
C      1  0.4140770000000  0.4509430000000  0.5274060000000 1.0
C      1  0.4458900000000  0.4232850000000  0.4862100000000 1.0
C      1  0.5533920000000  0.5765340000000  0.4862110000000 1.0
C      1  0.4472090000000  0.4670770000000  0.4604990000000 1.0
C      1  0.5520730000000  0.5327420000000  0.4604990000000 1.0
C      1  0.5163750000000  0.5916470000000  0.4265560000000 1.0
C      1  0.4829070000000  0.4081720000000  0.4265550000000 1.0
C      1  0.5381490000000  0.5281010000000  0.5275630000000 1.0
C      1  0.4611330000000  0.4717170000000  0.5275620000000 1.0
C      1  0.5810030000000  0.5095370000000  0.5624190000000 1.0
C      1  0.4182780000000  0.4902810000000  0.5624180000000 1.0
C      1  0.4719930000000  0.4620320000000  0.4083720000000 1.0
C      1  0.5272900000000  0.5377880000000  0.4083720000000 1.0
C      1  0.4200930000000  0.5161350000000  0.4939870000000 1.0
C      1  0.5791890000000  0.4836840000000  0.4939880000000 1.0
C      1  0.4433880000000  0.5438090000000  0.4551470000000 1.0
C      1  0.5558940000000  0.4560100000000  0.4551470000000 1.0
C      1  0.4561000000000  0.4032290000000  0.4168220000000 1.0
C      1  0.5431830000000  0.5965940000000  0.4168280000000 1.0
C      1  0.4445180000000  0.5052920000000  0.4203430000000 1.0
C      1  0.5547650000000  0.4945270000000  0.4203430000000 1.0
C      1  0.4163140000000  0.5008350000000  0.4258460000000 1.0
C      1  0.5829680000000  0.4989850000000  0.4258470000000 1.0
C      1  0.4831620000000  0.5511520000000  0.5187600000000 1.0
C      1  0.5161200000000  0.4486660000000  0.5187590000000 1.0
C      1  0.4559390000000  0.5303290000000  0.4308590000000 1.0
C      1  0.5433430000000  0.4694900000000  0.4308590000000 1.0
C      1  0.4600380000000  0.4881970000000  0.4018110000000 1.0
C      1  0.5392450000000  0.5116220000000  0.4018110000000 1.0
C      1  0.4705910000000  0.4844660000000  0.4635350000000 1.0
C      1  0.5286920000000  0.5153530000000  0.4635350000000 1.0
C      1  0.5642430000000  0.4433320000000  0.5610050000000 1.0
C      1  0.4350390000000  0.5564850000000  0.5610060000000 1.0
C      1  0.4029550000000  0.5157080000000  0.4466780000000 1.0
C      1  0.5963280000000  0.4841110000000  0.4466790000000 1.0
C      1  0.5655450000000  0.4544540000000  0.5342170000000 1.0
C      1  0.4337360000000  0.5453640000000  0.5342170000000 1.0
C      1  0.4375230000000  0.4511580000000  0.4828460000000 1.0
C      1  0.5617590000000  0.5486600000000  0.4828470000000 1.0
C      1  0.4986390000000  0.5469370000000  0.4913850000000 1.0
C      1  0.5006430000000  0.4528820000000  0.4913840000000 1.0
C      1  0.5314610000000  0.5195970000000  0.5738010000000 1.0
C      1  0.4678200000000  0.4802200000000  0.5738000000000 1.0
C      1  0.5811120000000  0.5369170000000  0.5009250000000 1.0
C      1  0.4181700000000  0.4629020000000  0.5009240000000 1.0
C      1  0.4195560000000  0.4987890000000  0.5349400000000 1.0
C      1  0.5797250000000  0.5010290000000  0.5349410000000 1.0
C      1  0.5163870000000  0.5231310000000  0.5468980000000 1.0
C      1  0.4828950000000  0.4766870000000  0.5468980000000 1.0
C      1  0.5879120000000  0.4724790000000  0.5247580000000 1.0
C      1  0.4113700000000  0.5273390000000  0.5247580000000 1.0
C      1  0.5256850000000  0.4214770000000  0.5086740000000 1.0
C      1  0.4735970000000  0.5783410000000  0.5086750000000 1.0
C      1  0.4057070000000  0.4888050000000  0.4936950000000 1.0
C      1  0.5935750000000  0.5110130000000  0.4936950000000 1.0
C      1  0.5528470000000  0.4569100000000  0.5840770000000 1.0
C      1  0.4464350000000  0.5429070000000  0.5840780000000 1.0
C      1  0.5791140000000  0.5767060000000  0.5343240000000 1.0
C      1  0.4201680000000  0.4231110000000  0.5343230000000 1.0
C      1  0.5083220000000  0.5682490000000  0.4418660000000 1.0
C      1  0.4909610000000  0.4315700000000  0.4418650000000 1.0
C      1  0.5477370000000  0.4863310000000  0.5006970000000 1.0
C      1  0.4515460000000  0.5134880000000  0.5006970000000 1.0
C      1  0.5376260000000  0.5679900000000  0.5651220000000 1.0
C      1  0.4616560000000  0.4318280000000  0.5651210000000 1.0
C      1  0.4876450000000  0.5205040000000  0.6038490000000 1.0
C      1  0.5116370000000  0.4793130000000  0.6038490000000 1.0
C      1  0.5067400000000  0.5705510000000  0.5612340000000 1.0
C      1  0.4925420000000  0.4292670000000  0.5612330000000 1.0
C      1  0.4954940000000  0.4290550000000  0.4711440000000 1.0
C      1  0.5037880000000  0.5707640000000  0.4711450000000 1.0
C      1  0.5808250000000  0.4696490000000  0.4670050000000 1.0
C      1  0.4184570000000  0.5301700000000  0.4670050000000 1.0
C      1  0.5644750000000  0.5357170000000  0.4343700000000 1.0
C      1  0.4348070000000  0.4641020000000  0.4343690000000 1.0
C      1  0.5348010000000  0.3999200000000  0.5257040000000 1.0
C      1  0.4644810000000  0.5998980000000  0.5257060000000 1.0
C      1  0.4430160000000  0.4914510000000  0.5190710000000 1.0
C      1  0.5562660000000  0.5083680000000  0.5190720000000 1.0
C      1  0.4638010000000  0.3942290000000  0.5379500000000 1.0
C      1  0.5354810000000  0.6055890000000  0.5379520000000 1.0
C      1  0.5603070000000  0.5251130000000  0.5755710000000 1.0
C      1  0.4389750000000  0.4747050000000  0.5755700000000 1.0
C      1  0.4910210000000  0.4022690000000  0.5464620000000 1.0
C      1  0.5082600000000  0.5975490000000  0.5464640000000 1.0
C      1  0.4732440000000  0.4137530000000  0.4837800000000 1.0
C      1  0.5260390000000  0.5860660000000  0.4837810000000 1.0
C      1  0.5089740000000  0.4319650000000  0.5854300000000 1.0
C      1  0.4903070000000  0.5678530000000  0.5854310000000 1.0
C      1  0.4730280000000  0.5555010000000  0.3905090000000 1.0
C      1  0.5262540000000  0.4443190000000  0.3905080000000 1.0
C      1  0.4698400000000  0.5085170000000  0.4791880000000 1.0
C      1  0.5294430000000  0.4913020000000  0.4791880000000 1.0
C      1  0.5056270000000  0.5212090000000  0.4481570000000 1.0
C      1  0.4936560000000  0.4786100000000  0.4481570000000 1.0
C      1  0.4575050000000  0.5362520000000  0.5192860000000 1.0
C      1  0.5417770000000  0.4635660000000  0.5192860000000 1.0
C      1  0.4777320000000  0.5427880000000  0.4162000000000 1.0
C      1  0.5215510000000  0.4570310000000  0.4161990000000 1.0
C      1  0.4745150000000  0.5440000000000  0.5918200000000 1.0
C      1  0.5247670000000  0.4558170000000  0.5918200000000 1.0
C      1  0.4996410000000  0.4999090000000  0.5361630000000 1.0
END
