TITL C-862133-5440-1372 0.131365710047486 125000 -326.056279792917 0 0 61 (C2) n - 1
REM
REM in /home/nfs/bkarasulu/CARBON/AIRSS/Generating-Clusters/TERSOFF/Higher-Symm/FIRE-HFTN
REM
REM
REM
REM
REM
REM ./C.cell (b20cbc046b6831c77cfcea5457e17084)
REM AIRSS Version 0.9.1 bugfix July 2018 build 013d7b7c2542+ Fri, 06 Jul 2018 19:26:36 +0100
REM compiler GCC version 9.2.1 20190827 (Red Hat 9.2.1-1)
REM options -cpp -mtune=generic -march=x86-64 -g -O0 -fpre-include=/usr/include/finclude/math-vector-fortran.h
REM seed -36091231 -1908351201 1357435769 2099913271 -830318504 -1453177960 1798426688 1973455050 -1955048696 758897992 131995934 -1683406115 -39648656 -1244379010 -1635785441 1329967138 -537727635 1190110851 1019992264 -1563631074 1439527567 -1987790505 -1692284892 -1184464230 1807822203 -597114849 -911388274 2122580362 928230982 -1374710754 -699944564 161234643 -1878137855
REM
CELL 1.54180   50.00000   50.00000   50.00000   90.00000   90.00000   90.00000
LATT -1
SFAC C  
C      1  0.4562590000000  0.5168650000000  0.5440750000000 1.0
C      1  0.5431210000000  0.4852630000000  0.5440960000000 1.0
C      1  0.5463600000000  0.5222090000000  0.5438770000000 1.0
C      1  0.4530200000000  0.4799190000000  0.5438460000000 1.0
C      1  0.5190720000000  0.5228600000000  0.5007270000000 1.0
C      1  0.4803320000000  0.4792770000000  0.5007110000000 1.0
C      1  0.4773590000000  0.5205760000000  0.5019660000000 1.0
C      1  0.5220450000000  0.4815610000000  0.5019750000000 1.0
C      1  0.5107360000000  0.5499970000000  0.4283940000000 1.0
C      1  0.4887090000000  0.4521560000000  0.4283770000000 1.0
C      1  0.4830340000000  0.5543370000000  0.4214290000000 1.0
C      1  0.5164150000000  0.4478180000000  0.4214270000000 1.0
C      1  0.4387150000000  0.5253430000000  0.5176910000000 1.0
C      1  0.5606790000000  0.4767910000000  0.5177200000000 1.0
C      1  0.5610040000000  0.5260250000000  0.5154330000000 1.0
C      1  0.4383920000000  0.4761090000000  0.5153920000000 1.0
C      1  0.4417920000000  0.5336220000000  0.4674480000000 1.0
C      1  0.5576310000000  0.4685220000000  0.4674740000000 1.0
C      1  0.5550980000000  0.5296840000000  0.4654050000000 1.0
C      1  0.4443270000000  0.4724610000000  0.4653670000000 1.0
C      1  0.5176750000000  0.5663370000000  0.5225230000000 1.0
C      1  0.4817170000000  0.4357960000000  0.5224990000000 1.0
C      1  0.4861770000000  0.5636300000000  0.5241930000000 1.0
C      1  0.5132140000000  0.4385020000000  0.5241870000000 1.0
C      1  0.5247710000000  0.4399800000000  0.4967430000000 1.0
C      1  0.4746350000000  0.5621580000000  0.4967420000000 1.0
C      1  0.4733490000000  0.4384660000000  0.4937760000000 1.0
C      1  0.5260590000000  0.5636730000000  0.4938040000000 1.0
C      1  0.4780490000000  0.4790040000000  0.5625930000000 1.0
C      1  0.5213200000000  0.5231190000000  0.5626100000000 1.0
C      1  0.5249680000000  0.4830160000000  0.5739950000000 1.0
C      1  0.4743950000000  0.5191050000000  0.5739850000000 1.0
C      1  0.5449930000000  0.4636150000000  0.4935920000000 1.0
C      1  0.4544150000000  0.5385240000000  0.4935750000000 1.0
C      1  0.4551060000000  0.4646450000000  0.4918280000000 1.0
C      1  0.5443030000000  0.5374940000000  0.4918610000000 1.0
C      1  0.5143550000000  0.4580400000000  0.5855720000000 1.0
C      1  0.4850010000000  0.5440790000000  0.5855730000000 1.0
C      1  0.4861960000000  0.4559240000000  0.5785930000000 1.0
C      1  0.5131630000000  0.5461960000000  0.5786110000000 1.0
C      1  0.4619890000000  0.4464220000000  0.5415730000000 1.0
C      1  0.5373920000000  0.5557060000000  0.5416060000000 1.0
C      1  0.5282080000000  0.4523660000000  0.5455650000000 1.0
C      1  0.4711710000000  0.5497620000000  0.5455590000000 1.0
C      1  0.5247290000000  0.5248750000000  0.4254560000000 1.0
C      1  0.4747180000000  0.4772790000000  0.4254370000000 1.0
C      1  0.4625720000000  0.5339140000000  0.4217020000000 1.0
C      1  0.5368770000000  0.4682410000000  0.4217160000000 1.0
C      1  0.5412110000000  0.5125400000000  0.4460210000000 1.0
C      1  0.4582240000000  0.4896090000000  0.4459950000000 1.0
C      1  0.4542420000000  0.5190770000000  0.4453090000000 1.0
C      1  0.5451930000000  0.4830720000000  0.4453310000000 1.0
C      1  0.5755370000000  0.5010730000000  0.5102400000000 1.0
C      1  0.4238610000000  0.5010620000000  0.5101970000000 1.0
C      1  0.5008380000000  0.4784800000000  0.5273260000000 1.0
C      1  0.4985510000000  0.5236520000000  0.5273300000000 1.0
C      1  0.4993280000000  0.5644550000000  0.4792790000000 1.0
C      1  0.5000890000000  0.4376870000000  0.4792650000000 1.0
C      1  0.4997080000000  0.5010710000000  0.4813320000000 1.0
C      1  0.4996870000000  0.5010630000000  0.5553680000000 1.0
C      1  0.4997160000000  0.5010740000000  0.4523710000000 1.0
END
