TITL C-862129-6180-856 2.61534928835857 125000 -209.157483790996 0 0 40 (C2) n - 1
REM
REM in /home/nfs/bkarasulu/CARBON/AIRSS/Generating-Clusters/TERSOFF/Higher-Symm/FIRE-HFTN
REM
REM
REM
REM
REM
REM ./C.cell (b20cbc046b6831c77cfcea5457e17084)
REM AIRSS Version 0.9.1 bugfix July 2018 build 013d7b7c2542+ Fri, 06 Jul 2018 19:26:36 +0100
REM compiler GCC version 9.2.1 20190827 (Red Hat 9.2.1-1)
REM options -cpp -mtune=generic -march=x86-64 -g -O0 -fpre-include=/usr/include/finclude/math-vector-fortran.h
REM seed 997308825 981547918 -1958940899 -922412534 -677531334 -1395110858 -544441231 -1239313502 807179427 2124233448 -1514306010 -870612918 926897122 1181958659 789232800 -307515622 -1722698566 1164424248 1043460825 -716295334 -2034332034 -1956685471 1155675273 855458613 1227027611 -1370160587 587671386 -799288410 -347907318 1216099676 -784303374 -468328321 1582766467
REM
CELL 1.54180   50.00000   50.00000   50.00000   90.00000   90.00000   90.00000
LATT -1
SFAC C  
C      1  0.4990190000000  0.4454620000000  0.4619920000000 1.0
C      1  0.4990250000000  0.5545380000000  0.5380080000000 1.0
C      1  0.4699460000000  0.4430210000000  0.4191900000000 1.0
C      1  0.4699510000000  0.5569840000000  0.5808080000000 1.0
C      1  0.4972690000000  0.4839280000000  0.4353230000000 1.0
C      1  0.4972680000000  0.5160730000000  0.5646760000000 1.0
C      1  0.5410490000000  0.4596850000000  0.4854440000000 1.0
C      1  0.5410550000000  0.5403090000000  0.5145570000000 1.0
C      1  0.4567450000000  0.4805840000000  0.4784860000000 1.0
C      1  0.4567470000000  0.5194230000000  0.5215110000000 1.0
C      1  0.4835660000000  0.5364390000000  0.6257980000000 1.0
C      1  0.4835640000000  0.4635440000000  0.3741910000000 1.0
C      1  0.4905240000000  0.5447660000000  0.5645210000000 1.0
C      1  0.4905200000000  0.4552350000000  0.4354780000000 1.0
C      1  0.5113520000000  0.4812670000000  0.5291360000000 1.0
C      1  0.5113560000000  0.5187310000000  0.4708640000000 1.0
C      1  0.5123290000000  0.5338340000000  0.5193610000000 1.0
C      1  0.5123240000000  0.4661640000000  0.4806390000000 1.0
C      1  0.5562370000000  0.5252050000000  0.4948890000000 1.0
C      1  0.5562350000000  0.4747890000000  0.5051090000000 1.0
C      1  0.4678870000000  0.4733300000000  0.5050290000000 1.0
C      1  0.4678920000000  0.5266750000000  0.4949690000000 1.0
C      1  0.4980090000000  0.5005920000000  0.4116690000000 1.0
C      1  0.4980050000000  0.4994090000000  0.5883300000000 1.0
C      1  0.5217930000000  0.5062030000000  0.3961580000000 1.0
C      1  0.5217780000000  0.4938390000000  0.6038740000000 1.0
C      1  0.4566430000000  0.5094170000000  0.4738030000000 1.0
C      1  0.4566410000000  0.4905890000000  0.5261940000000 1.0
C      1  0.4470330000000  0.5388340000000  0.5406830000000 1.0
C      1  0.4470290000000  0.4611750000000  0.4593140000000 1.0
C      1  0.5091240000000  0.5087950000000  0.5384570000000 1.0
C      1  0.5091240000000  0.4912040000000  0.4615430000000 1.0
C      1  0.4684200000000  0.5550820000000  0.6096490000000 1.0
C      1  0.4684400000000  0.4448870000000  0.3903450000000 1.0
C      1  0.5538070000000  0.5617080000000  0.5295520000000 1.0
C      1  0.5537980000000  0.4382810000000  0.4704530000000 1.0
C      1  0.4971950000000  0.4703350000000  0.5060820000000 1.0
C      1  0.4972000000000  0.5296660000000  0.4939170000000 1.0
C      1  0.5620500000000  0.5342500000000  0.4680160000000 1.0
C      1  0.5620500000000  0.4657470000000  0.5319830000000 1.0
END
