TITL C-862134-6730-425 464633.418570739 125000 -533.071171575306 0 0 97 (C2) n - 1
REM
REM in /home/nfs/bkarasulu/CARBON/AIRSS/Generating-Clusters/TERSOFF/Higher-Symm/FIRE-HFTN
REM
REM
REM
REM
REM
REM ./C.cell (b20cbc046b6831c77cfcea5457e17084)
REM AIRSS Version 0.9.1 bugfix July 2018 build 013d7b7c2542+ Fri, 06 Jul 2018 19:26:36 +0100
REM compiler GCC version 9.2.1 20190827 (Red Hat 9.2.1-1)
REM options -cpp -mtune=generic -march=x86-64 -g -O0 -fpre-include=/usr/include/finclude/math-vector-fortran.h
REM seed 777307835 93922498 1296191098 510351749 -681254202 -1646454286 -1206538160 565275165 1307783973 -993883187 473395025 -1366458784 -858195526 335293814 -1338190701 -1108821986 -1057025656 861798347 -1083017271 -1547979659 -1250247927 -1310554244 -23312758 1990850072 -104848513 1412773697 671281610 -1570574944 1025546538 -1158391172 -744182844 -83382406 -755246478
REM
CELL 1.54180   50.00000   50.00000   50.00000   90.00000   90.00000   90.00000
LATT -1
SFAC C  
C      1  0.4220380000000  0.5240780000000  0.5508050000000 1.0
C      1  0.5778680000000  0.4758780000000  0.5508060000000 1.0
C      1  0.5380370000000  0.5159880000000  0.4248190000000 1.0
C      1  0.4618700000000  0.4839690000000  0.4248180000000 1.0
C      1  0.5331360000000  0.5322110000000  0.5230340000000 1.0
C      1  0.4667700000000  0.4677450000000  0.5230340000000 1.0
C      1  0.4881070000000  0.4157330000000  0.5336970000000 1.0
C      1  0.5117990000000  0.5842230000000  0.5336980000000 1.0
C      1  0.4718220000000  0.4633600000000  0.4455960000000 1.0
C      1  0.5280840000000  0.5365970000000  0.4455960000000 1.0
C      1  0.4765770000000  0.5565270000000  0.4415710000000 1.0
C      1  0.5233300000000  0.4434290000000  0.4415700000000 1.0
C      1  0.6129380000000  0.5301250000000  0.4768470000000 1.0
C      1  0.3869650000000  0.4698290000000  0.4768510000000 1.0
C      1  0.5665780000000  0.5030490000000  0.5555010000000 1.0
C      1  0.4333270000000  0.4969060000000  0.5555010000000 1.0
C      1  0.4415970000000  0.5524960000000  0.5134520000000 1.0
C      1  0.5583090000000  0.4474600000000  0.5134520000000 1.0
C      1  0.4897290000000  0.4535390000000  0.4822780000000 1.0
C      1  0.5101770000000  0.5464170000000  0.4822790000000 1.0
C      1  0.5411590000000  0.4370140000000  0.4671020000000 1.0
C      1  0.4587470000000  0.5629420000000  0.4671020000000 1.0
C      1  0.4825990000000  0.5346960000000  0.5410080000000 1.0
C      1  0.5173070000000  0.4652600000000  0.5410080000000 1.0
C      1  0.4103530000000  0.4667780000000  0.4938350000000 1.0
C      1  0.5895520000000  0.5331810000000  0.4938370000000 1.0
C      1  0.4620510000000  0.5142390000000  0.5247200000000 1.0
C      1  0.5378550000000  0.4857170000000  0.5247200000000 1.0
C      1  0.4310470000000  0.5184240000000  0.4766980000000 1.0
C      1  0.5688590000000  0.4815320000000  0.4766980000000 1.0
C      1  0.5095480000000  0.5669530000000  0.4385350000000 1.0
C      1  0.4903580000000  0.4330040000000  0.4385350000000 1.0
C      1  0.4956030000000  0.5800960000000  0.5582690000000 1.0
C      1  0.5043030000000  0.4198590000000  0.5582680000000 1.0
C      1  0.4100060000000  0.4358240000000  0.5222220000000 1.0
C      1  0.5899000000000  0.5641270000000  0.5222200000000 1.0
C      1  0.4526550000000  0.5746380000000  0.5304010000000 1.0
C      1  0.5472510000000  0.4253170000000  0.5304010000000 1.0
C      1  0.5511040000000  0.5448560000000  0.4696960000000 1.0
C      1  0.4488030000000  0.4551000000000  0.4696950000000 1.0
C      1  0.5666880000000  0.4545980000000  0.4646060000000 1.0
C      1  0.4332180000000  0.5453580000000  0.4646060000000 1.0
C      1  0.5080640000000  0.4215480000000  0.5135510000000 1.0
C      1  0.4918420000000  0.5784080000000  0.5135510000000 1.0
C      1  0.4750160000000  0.4761430000000  0.4947930000000 1.0
C      1  0.5248900000000  0.5238140000000  0.4947930000000 1.0
C      1  0.5340430000000  0.5369490000000  0.5683570000000 1.0
C      1  0.4658630000000  0.4630060000000  0.5683570000000 1.0
C      1  0.4577880000000  0.5901680000000  0.4804530000000 1.0
C      1  0.5421180000000  0.4097880000000  0.4804520000000 1.0
C      1  0.4596320000000  0.5374060000000  0.4230420000000 1.0
C      1  0.5402750000000  0.4625510000000  0.4230420000000 1.0
C      1  0.4657680000000  0.5422400000000  0.4909600000000 1.0
C      1  0.5341390000000  0.4577160000000  0.4909600000000 1.0
C      1  0.5354990000000  0.5882520000000  0.4811350000000 1.0
C      1  0.4644070000000  0.4117040000000  0.4811340000000 1.0
C      1  0.5849220000000  0.4847050000000  0.5011650000000 1.0
C      1  0.4149840000000  0.5152510000000  0.5011650000000 1.0
C      1  0.4484510000000  0.4852070000000  0.5775270000000 1.0
C      1  0.5514550000000  0.5147480000000  0.5775280000000 1.0
C      1  0.4493810000000  0.5104000000000  0.4313320000000 1.0
C      1  0.5505260000000  0.4895570000000  0.4313330000000 1.0
C      1  0.4930880000000  0.5120610000000  0.4243840000000 1.0
C      1  0.5068180000000  0.4878960000000  0.4243840000000 1.0
C      1  0.5163950000000  0.4493260000000  0.5141220000000 1.0
C      1  0.4835110000000  0.5506300000000  0.5141220000000 1.0
C      1  0.5172180000000  0.5701960000000  0.4682890000000 1.0
C      1  0.4826890000000  0.4297600000000  0.4682880000000 1.0
C      1  0.5498800000000  0.5593950000000  0.5538700000000 1.0
C      1  0.4500260000000  0.4405610000000  0.5538690000000 1.0
C      1  0.5791840000000  0.4652410000000  0.5226180000000 1.0
C      1  0.4207230000000  0.5347150000000  0.5226180000000 1.0
C      1  0.5786560000000  0.5587060000000  0.5488090000000 1.0
C      1  0.4212500000000  0.4412480000000  0.5488080000000 1.0
C      1  0.5804080000000  0.5113690000000  0.5101210000000 1.0
C      1  0.4194980000000  0.4885870000000  0.5101210000000 1.0
C      1  0.5738890000000  0.5594390000000  0.4937490000000 1.0
C      1  0.4260170000000  0.4405180000000  0.4937480000000 1.0
C      1  0.5122560000000  0.5272740000000  0.5465960000000 1.0
C      1  0.4876490000000  0.4726820000000  0.5465960000000 1.0
C      1  0.5072060000000  0.4702390000000  0.4480890000000 1.0
C      1  0.4927000000000  0.5297170000000  0.4480890000000 1.0
C      1  0.5334620000000  0.4055540000000  0.5091090000000 1.0
C      1  0.4664440000000  0.5944020000000  0.5091100000000 1.0
C      1  0.5511520000000  0.5775830000000  0.5034070000000 1.0
C      1  0.4487540000000  0.4223730000000  0.5034060000000 1.0
C      1  0.5361830000000  0.5677680000000  0.5279370000000 1.0
C      1  0.4637230000000  0.4321880000000  0.5279360000000 1.0
C      1  0.5566250000000  0.5122990000000  0.5286890000000 1.0
C      1  0.4432810000000  0.4876570000000  0.5286890000000 1.0
C      1  0.4801000000000  0.5181500000000  0.4747140000000 1.0
C      1  0.5198070000000  0.4818060000000  0.4747140000000 1.0
C      1  0.4717020000000  0.5631680000000  0.5524160000000 1.0
C      1  0.5282040000000  0.4367870000000  0.5524150000000 1.0
C      1  0.5442180000000  0.5013530000000  0.4740300000000 1.0
C      1  0.4556880000000  0.4986030000000  0.4740300000000 1.0
C      1  0.4999530000000  0.4999780000000  0.4914310000000 1.0
END
