TITL C-862131-2149-62 -296145.107585844 125000 -1103.87295992505 0 0 195 (C1) n - 1
REM
REM in /home/nfs/bkarasulu/CARBON/AIRSS/Generating-Clusters/TERSOFF/Higher-Symm/FIRE-HFTN
REM
REM
REM
REM
REM
REM ./C.cell (b20cbc046b6831c77cfcea5457e17084)
REM AIRSS Version 0.9.1 bugfix July 2018 build 013d7b7c2542+ Fri, 06 Jul 2018 19:26:36 +0100
REM compiler GCC version 9.2.1 20190827 (Red Hat 9.2.1-1)
REM options -cpp -mtune=generic -march=x86-64 -g -O0 -fpre-include=/usr/include/finclude/math-vector-fortran.h
REM seed -361057452 1149716405 1215085735 532199086 683700680 -1538638390 152789939 -1957316143 -2108526338 1424257911 -1770696967 75443762 -981678698 -1059407193 -421202724 1218971661 1117133357 -1083470427 1591694601 2140534129 969508454 -1108251032 -1885819326 154157487 823291165 -388110460 2065971421 -2004000579 477113683 1167276201 -1970644181 -381340102 -1061693417
REM
CELL 1.54180   50.00000   50.00000   50.00000   90.00000   90.00000   90.00000
LATT -1
SFAC C  
C      1  0.4183150000000  0.4736960000000  0.5833970000000 1.0
C      1  0.4147770000000  0.5237090000000  0.5859750000000 1.0
C      1  0.4178130000000  0.5642240000000  0.5575410000000 1.0
C      1  0.4159430000000  0.5917360000000  0.5154320000000 1.0
C      1  0.4169160000000  0.5856670000000  0.4642210000000 1.0
C      1  0.4140010000000  0.5531500000000  0.4253280000000 1.0
C      1  0.4192090000000  0.5041550000000  0.4171590000000 1.0
C      1  0.4195530000000  0.4554920000000  0.4240270000000 1.0
C      1  0.4190920000000  0.4208340000000  0.4613720000000 1.0
C      1  0.4178250000000  0.4140970000000  0.5100900000000 1.0
C      1  0.4179540000000  0.4307740000000  0.5565540000000 1.0
C      1  0.5493560000000  0.5581330000000  0.6016760000000 1.0
C      1  0.5508440000000  0.6069700000000  0.5516140000000 1.0
C      1  0.5516050000000  0.6110400000000  0.4858060000000 1.0
C      1  0.5444090000000  0.5952010000000  0.4174360000000 1.0
C      1  0.5494550000000  0.5355910000000  0.3894780000000 1.0
C      1  0.5536040000000  0.4681120000000  0.3857010000000 1.0
C      1  0.5513400000000  0.4109440000000  0.4229590000000 1.0
C      1  0.5455530000000  0.3769100000000  0.4809390000000 1.0
C      1  0.5501050000000  0.3933270000000  0.5450850000000 1.0
C      1  0.5539710000000  0.4392270000000  0.5936750000000 1.0
C      1  0.5334780000000  0.4969560000000  0.6314880000000 1.0
C      1  0.4438460000000  0.4277630000000  0.5086970000000 1.0
C      1  0.4457820000000  0.4383090000000  0.5492970000000 1.0
C      1  0.4474070000000  0.4766750000000  0.5759840000000 1.0
C      1  0.4410290000000  0.5211420000000  0.5737270000000 1.0
C      1  0.4461230000000  0.5558080000000  0.5505770000000 1.0
C      1  0.4429530000000  0.5803330000000  0.5143160000000 1.0
C      1  0.4452660000000  0.5758140000000  0.4669710000000 1.0
C      1  0.4401380000000  0.5443500000000  0.4351890000000 1.0
C      1  0.4474700000000  0.5036760000000  0.4278820000000 1.0
C      1  0.4478710000000  0.4617190000000  0.4307780000000 1.0
C      1  0.4473500000000  0.4280920000000  0.4668610000000 1.0
C      1  0.3818790000000  0.4424580000000  0.4896590000000 1.0
C      1  0.3817700000000  0.4452740000000  0.5234180000000 1.0
C      1  0.3827140000000  0.4665310000000  0.5483810000000 1.0
C      1  0.3814460000000  0.4981620000000  0.5580790000000 1.0
C      1  0.3809690000000  0.5305890000000  0.5484570000000 1.0
C      1  0.3814770000000  0.5544880000000  0.5241790000000 1.0
C      1  0.3816760000000  0.5624460000000  0.4924010000000 1.0
C      1  0.3810210000000  0.5495550000000  0.4628140000000 1.0
C      1  0.3814540000000  0.5195570000000  0.4475970000000 1.0
C      1  0.3826780000000  0.4849650000000  0.4447750000000 1.0
C      1  0.3837970000000  0.4561210000000  0.4597660000000 1.0
C      1  0.5033070000000  0.4234640000000  0.4139320000000 1.0
C      1  0.4979110000000  0.3916210000000  0.4705910000000 1.0
C      1  0.5001040000000  0.3920280000000  0.5349580000000 1.0
C      1  0.5036490000000  0.4256170000000  0.5895020000000 1.0
C      1  0.4956200000000  0.4846090000000  0.6104620000000 1.0
C      1  0.4985030000000  0.5482840000000  0.6010270000000 1.0
C      1  0.5030160000000  0.5948500000000  0.5595140000000 1.0
C      1  0.5021670000000  0.6126990000000  0.4974090000000 1.0
C      1  0.4986760000000  0.5907740000000  0.4376500000000 1.0
C      1  0.4989900000000  0.5413570000000  0.3954100000000 1.0
C      1  0.5040260000000  0.4784730000000  0.3836700000000 1.0
C      1  0.5408610000000  0.3892590000000  0.4368590000000 1.0
C      1  0.5372640000000  0.3712920000000  0.5067260000000 1.0
C      1  0.5443280000000  0.3996160000000  0.5715810000000 1.0
C      1  0.5479360000000  0.4587130000000  0.6124530000000 1.0
C      1  0.5323000000000  0.5246880000000  0.6305350000000 1.0
C      1  0.5441820000000  0.5834630000000  0.5912070000000 1.0
C      1  0.5418880000000  0.6215710000000  0.5297690000000 1.0
C      1  0.5445710000000  0.6159750000000  0.4592430000000 1.0
C      1  0.5352970000000  0.5789470000000  0.3968660000000 1.0
C      1  0.5439510000000  0.5120970000000  0.3755580000000 1.0
C      1  0.5470480000000  0.4413350000000  0.3886580000000 1.0
C      1  0.5340800000000  0.4256170000000  0.5780190000000 1.0
C      1  0.5285060000000  0.4797750000000  0.6070570000000 1.0
C      1  0.5291150000000  0.5382980000000  0.6053560000000 1.0
C      1  0.5343190000000  0.5871280000000  0.5644750000000 1.0
C      1  0.5323220000000  0.6074580000000  0.5068430000000 1.0
C      1  0.5317340000000  0.5953390000000  0.4436800000000 1.0
C      1  0.5291140000000  0.5514350000000  0.4021480000000 1.0
C      1  0.5343310000000  0.4891000000000  0.3897720000000 1.0
C      1  0.5349190000000  0.4323910000000  0.4130210000000 1.0
C      1  0.5302430000000  0.3936650000000  0.4631030000000 1.0
C      1  0.5302090000000  0.3927260000000  0.5242840000000 1.0
C      1  0.6142310000000  0.5274980000000  0.4573060000000 1.0
C      1  0.6263070000000  0.5024820000000  0.4485820000000 1.0
C      1  0.6148770000000  0.4768560000000  0.4563730000000 1.0
C      1  0.6279190000000  0.4616350000000  0.4774910000000 1.0
C      1  0.6160280000000  0.4589110000000  0.5039070000000 1.0
C      1  0.6299780000000  0.4691630000000  0.5273490000000 1.0
C      1  0.6169830000000  0.4852910000000  0.5476190000000 1.0
C      1  0.6191200000000  0.5172370000000  0.5488160000000 1.0
C      1  0.6307100000000  0.5340700000000  0.5282310000000 1.0
C      1  0.6156320000000  0.5440080000000  0.5053080000000 1.0
C      1  0.6270920000000  0.5425440000000  0.4786180000000 1.0
C      1  0.4026050000000  0.4186290000000  0.4857670000000 1.0
C      1  0.4020260000000  0.4230830000000  0.5327960000000 1.0
C      1  0.4032390000000  0.4535980000000  0.5680560000000 1.0
C      1  0.4012240000000  0.4980670000000  0.5825210000000 1.0
C      1  0.4006860000000  0.5433910000000  0.5695760000000 1.0
C      1  0.4016040000000  0.5757480000000  0.5357800000000 1.0
C      1  0.4014080000000  0.5865390000000  0.4899630000000 1.0
C      1  0.3999810000000  0.5682290000000  0.4463960000000 1.0
C      1  0.4014180000000  0.5266090000000  0.4239650000000 1.0
C      1  0.4037920000000  0.4801840000000  0.4218930000000 1.0
C      1  0.4046300000000  0.4395240000000  0.4440030000000 1.0
C      1  0.5417540000000  0.5016380000000  0.4463070000000 1.0
C      1  0.5323900000000  0.4715060000000  0.4516730000000 1.0
C      1  0.5430590000000  0.4522930000000  0.4758340000000 1.0
C      1  0.5355270000000  0.4432490000000  0.5054220000000 1.0
C      1  0.5419880000000  0.4599230000000  0.5317820000000 1.0
C      1  0.5299430000000  0.4825960000000  0.5516950000000 1.0
C      1  0.5358950000000  0.5126440000000  0.5560820000000 1.0
C      1  0.5426640000000  0.5364040000000  0.5349460000000 1.0
C      1  0.5325110000000  0.5532310000000  0.5092010000000 1.0
C      1  0.5418380000000  0.5481030000000  0.4788980000000 1.0
C      1  0.5326490000000  0.5313110000000  0.4531800000000 1.0
C      1  0.4526710000000  0.4859060000000  0.5485010000000 1.0
C      1  0.4412770000000  0.5123320000000  0.5458370000000 1.0
C      1  0.4496010000000  0.5349820000000  0.5292040000000 1.0
C      1  0.4433330000000  0.5526030000000  0.5068900000000 1.0
C      1  0.4478730000000  0.5496760000000  0.4789650000000 1.0
C      1  0.4401480000000  0.5295600000000  0.4604190000000 1.0
C      1  0.4520100000000  0.5026400000000  0.4589720000000 1.0
C      1  0.4521310000000  0.4732050000000  0.4564020000000 1.0
C      1  0.4519060000000  0.4545340000000  0.4773730000000 1.0
C      1  0.4427320000000  0.4594880000000  0.5049070000000 1.0
C      1  0.4482530000000  0.4618310000000  0.5337090000000 1.0
C      1  0.4990900000000  0.6191950000000  0.5328830000000 1.0
C      1  0.5012060000000  0.6180420000000  0.4614750000000 1.0
C      1  0.4941750000000  0.5759920000000  0.4048360000000 1.0
C      1  0.4961240000000  0.5123100000000  0.3738660000000 1.0
C      1  0.5015210000000  0.4421090000000  0.3829370000000 1.0
C      1  0.4989500000000  0.3938070000000  0.4343820000000 1.0
C      1  0.4933410000000  0.3760940000000  0.5031820000000 1.0
C      1  0.4969220000000  0.3953900000000  0.5709500000000 1.0
C      1  0.4980220000000  0.4490240000000  0.6168150000000 1.0
C      1  0.4917910000000  0.5189750000000  0.6210450000000 1.0
C      1  0.4955330000000  0.5831560000000  0.5920700000000 1.0
C      1  0.4961560000000  0.4244510000000  0.5406700000000 1.0
C      1  0.4936670000000  0.4532200000000  0.5753720000000 1.0
C      1  0.4908590000000  0.5054670000000  0.5813100000000 1.0
C      1  0.4957500000000  0.5491980000000  0.5674500000000 1.0
C      1  0.4931330000000  0.5776630000000  0.5323720000000 1.0
C      1  0.4946140000000  0.5827020000000  0.4830280000000 1.0
C      1  0.4905050000000  0.5557220000000  0.4413890000000 1.0
C      1  0.4963040000000  0.5160490000000  0.4156750000000 1.0
C      1  0.4966860000000  0.4695970000000  0.4141460000000 1.0
C      1  0.4944590000000  0.4335070000000  0.4471920000000 1.0
C      1  0.4938290000000  0.4165960000000  0.4922200000000 1.0
C      1  0.4681530000000  0.4615520000000  0.5886030000000 1.0
C      1  0.4661630000000  0.5224410000000  0.5879600000000 1.0
C      1  0.4694240000000  0.5650110000000  0.5646340000000 1.0
C      1  0.4675760000000  0.5930320000000  0.5235980000000 1.0
C      1  0.4691430000000  0.5916160000000  0.4674810000000 1.0
C      1  0.4657110000000  0.5520480000000  0.4243160000000 1.0
C      1  0.4704540000000  0.5021980000000  0.4107070000000 1.0
C      1  0.4708240000000  0.4544310000000  0.4148420000000 1.0
C      1  0.4696700000000  0.4173290000000  0.4531420000000 1.0
C      1  0.4695130000000  0.4133270000000  0.5101770000000 1.0
C      1  0.4697840000000  0.4241270000000  0.5567500000000 1.0
C      1  0.5716900000000  0.5426690000000  0.4803230000000 1.0
C      1  0.5846450000000  0.5269370000000  0.4586260000000 1.0
C      1  0.5714910000000  0.5017360000000  0.4501740000000 1.0
C      1  0.5852240000000  0.4764420000000  0.4572770000000 1.0
C      1  0.5726190000000  0.4592740000000  0.4779900000000 1.0
C      1  0.5863230000000  0.4578220000000  0.5044250000000 1.0
C      1  0.5716910000000  0.4656890000000  0.5293140000000 1.0
C      1  0.5854490000000  0.4826840000000  0.5491750000000 1.0
C      1  0.5877100000000  0.5153770000000  0.5488750000000 1.0
C      1  0.5725020000000  0.5332140000000  0.5310630000000 1.0
C      1  0.5858670000000  0.5436490000000  0.5065030000000 1.0
C      1  0.5201550000000  0.5790540000000  0.5161020000000 1.0
C      1  0.5230580000000  0.5749730000000  0.4679460000000 1.0
C      1  0.5187300000000  0.5470740000000  0.4327770000000 1.0
C      1  0.5239930000000  0.5012130000000  0.4181130000000 1.0
C      1  0.5214780000000  0.4587840000000  0.4275380000000 1.0
C      1  0.5230470000000  0.4257500000000  0.4626420000000 1.0
C      1  0.5204250000000  0.4186430000000  0.5069560000000 1.0
C      1  0.5237270000000  0.4376450000000  0.5505580000000 1.0
C      1  0.5166720000000  0.4724680000000  0.5762510000000 1.0
C      1  0.5203460000000  0.5182450000000  0.5814610000000 1.0
C      1  0.5234750000000  0.5580330000000  0.5537630000000 1.0
C      1  0.4914030000000  0.4726520000000  0.5383810000000 1.0
C      1  0.4919170000000  0.5008260000000  0.5494560000000 1.0
C      1  0.5028140000000  0.5236960000000  0.5327010000000 1.0
C      1  0.4888480000000  0.5478510000000  0.5219830000000 1.0
C      1  0.4871960000000  0.5555670000000  0.4924070000000 1.0
C      1  0.4872020000000  0.5393070000000  0.4679740000000 1.0
C      1  0.4933430000000  0.5108180000000  0.4706850000000 1.0
C      1  0.4909440000000  0.4894110000000  0.4506250000000 1.0
C      1  0.4927630000000  0.4616000000000  0.4613820000000 1.0
C      1  0.5013720000000  0.4612160000000  0.4890420000000 1.0
C      1  0.4839960000000  0.4623920000000  0.5116860000000 1.0
C      1  0.5709310000000  0.5001120000000  0.5052630000000 1.0
C      1  0.5452060000000  0.4917630000000  0.4948390000000 1.0
C      1  0.5954710000000  0.5010770000000  0.4898990000000 1.0
C      1  0.4703800000000  0.5020790000000  0.5134250000000 1.0
C      1  0.4947250000000  0.5017360000000  0.4978490000000 1.0
C      1  0.4436580000000  0.5033120000000  0.5022660000000 1.0
C      1  0.4198370000000  0.4931520000000  0.5152340000000 1.0
C      1  0.5201150000000  0.4933470000000  0.5093880000000 1.0
END
