TITL C-862128-1543-1317 0.00866797224407052 125000 -689.802799217253 0 0 119 (D3) n - 1
REM
REM in /home/nfs/bkarasulu/CARBON/AIRSS/Generating-Clusters/TERSOFF/Higher-Symm/FIRE-HFTN
REM
REM
REM
REM
REM
REM ./C.cell (b20cbc046b6831c77cfcea5457e17084)
REM AIRSS Version 0.9.1 bugfix July 2018 build 013d7b7c2542+ Fri, 06 Jul 2018 19:26:36 +0100
REM compiler GCC version 9.2.1 20190827 (Red Hat 9.2.1-1)
REM options -cpp -mtune=generic -march=x86-64 -g -O0 -fpre-include=/usr/include/finclude/math-vector-fortran.h
REM seed 1107295301 -1637569575 324201742 1765944578 -289200969 420586662 825982007 -1161397168 -1513817235 638415015 -676922410 43026601 2089137866 1625924164 -1183000537 -912075644 -551032833 -1431479984 1896620628 1440379461 1630533425 1707372906 -1394595248 -1955805547 1616339518 403863262 -10774489 1146215514 355731996 -939251874 1530091911 -760825757 -1420134084
REM
CELL 1.54180   50.00000   50.00000   50.00000   90.00000   90.00000   90.00000
LATT -1
SFAC C  
C      1  0.5073450000000  0.4748860000000  0.4769180000000 1.0
C      1  0.5164900000000  0.4748860000000  0.5178160000000 1.0
C      1  0.4764980000000  0.4748870000000  0.5052870000000 1.0
C      1  0.4928780000000  0.5253320000000  0.4769180000000 1.0
C      1  0.4837350000000  0.5253330000000  0.5178170000000 1.0
C      1  0.5237260000000  0.5253310000000  0.5052850000000 1.0
C      1  0.4973450000000  0.5134480000000  0.4522880000000 1.0
C      1  0.5428220000000  0.5134470000000  0.5214690000000 1.0
C      1  0.4601700000000  0.5134500000000  0.5262630000000 1.0
C      1  0.5028760000000  0.4867700000000  0.4522880000000 1.0
C      1  0.4574030000000  0.4867720000000  0.5214730000000 1.0
C      1  0.5400550000000  0.4867690000000  0.5262610000000 1.0
C      1  0.5128620000000  0.5792220000000  0.5505160000000 1.0
C      1  0.4499990000000  0.5792240000000  0.4857900000000 1.0
C      1  0.5374850000000  0.5792200000000  0.4637120000000 1.0
C      1  0.4873660000000  0.4209970000000  0.5505190000000 1.0
C      1  0.5502240000000  0.4209940000000  0.4857880000000 1.0
C      1  0.4627360000000  0.4209970000000  0.4637170000000 1.0
C      1  0.4399550000000  0.5663140000000  0.4359550000000 1.0
C      1  0.5856640000000  0.5663080000000  0.4799320000000 1.0
C      1  0.4747250000000  0.5663140000000  0.5841310000000 1.0
C      1  0.5602640000000  0.4339030000000  0.4359530000000 1.0
C      1  0.4145580000000  0.4339100000000  0.4799390000000 1.0
C      1  0.5255050000000  0.4339070000000  0.5841310000000 1.0
C      1  0.6127130000000  0.5167680000000  0.5256840000000 1.0
C      1  0.4215760000000  0.5167770000000  0.5846830000000 1.0
C      1  0.4660490000000  0.5167720000000  0.3896530000000 1.0
C      1  0.3875130000000  0.4834510000000  0.5256920000000 1.0
C      1  0.5786540000000  0.4834440000000  0.5846780000000 1.0
C      1  0.5341670000000  0.4834430000000  0.3896510000000 1.0
C      1  0.4103560000000  0.4820660000000  0.5056600000000 1.0
C      1  0.5400930000000  0.4820590000000  0.4194500000000 1.0
C      1  0.5498840000000  0.4820610000000  0.5749110000000 1.0
C      1  0.5898690000000  0.5181530000000  0.5056530000000 1.0
C      1  0.4601250000000  0.5181570000000  0.4194530000000 1.0
C      1  0.4503450000000  0.5181590000000  0.5749140000000 1.0
C      1  0.4686410000000  0.5681200000000  0.5339870000000 1.0
C      1  0.4864240000000  0.5681180000000  0.4557580000000 1.0
C      1  0.5452800000000  0.5681160000000  0.5102730000000 1.0
C      1  0.5315850000000  0.4320990000000  0.5339860000000 1.0
C      1  0.5137970000000  0.4320990000000  0.4557590000000 1.0
C      1  0.4549440000000  0.4321030000000  0.5102780000000 1.0
C      1  0.5337810000000  0.5326940000000  0.4078730000000 1.0
C      1  0.5630690000000  0.5326940000000  0.5752300000000 1.0
C      1  0.4034900000000  0.5327010000000  0.5169160000000 1.0
C      1  0.4664360000000  0.4675230000000  0.4078760000000 1.0
C      1  0.4371600000000  0.4675260000000  0.5752350000000 1.0
C      1  0.5967350000000  0.4675180000000  0.5169100000000 1.0
C      1  0.4465100000000  0.5269820000000  0.5470110000000 1.0
C      1  0.4862080000000  0.5269790000000  0.4300820000000 1.0
C      1  0.5676220000000  0.5269760000000  0.5229260000000 1.0
C      1  0.5537180000000  0.4732380000000  0.5470080000000 1.0
C      1  0.5140110000000  0.4732380000000  0.4300820000000 1.0
C      1  0.4326040000000  0.4732430000000  0.5229320000000 1.0
C      1  0.5676000000000  0.4431520000000  0.4926530000000 1.0
C      1  0.4727340000000  0.4431570000000  0.5621330000000 1.0
C      1  0.4599950000000  0.4431560000000  0.4452370000000 1.0
C      1  0.4326240000000  0.5570660000000  0.4926560000000 1.0
C      1  0.5274940000000  0.5570630000000  0.5621300000000 1.0
C      1  0.5402250000000  0.5570610000000  0.4452330000000 1.0
C      1  0.5798740000000  0.4435800000000  0.5195160000000 1.0
C      1  0.4433320000000  0.4435870000000  0.5593320000000 1.0
C      1  0.4771220000000  0.4435830000000  0.4211750000000 1.0
C      1  0.4203510000000  0.5566390000000  0.5195200000000 1.0
C      1  0.5568960000000  0.5566330000000  0.5593260000000 1.0
C      1  0.5230960000000  0.5566330000000  0.4211720000000 1.0
C      1  0.5078340000000  0.5834320000000  0.4715270000000 1.0
C      1  0.5209200000000  0.5834320000000  0.5209300000000 1.0
C      1  0.4715930000000  0.5834340000000  0.5075610000000 1.0
C      1  0.4923880000000  0.4167860000000  0.4715290000000 1.0
C      1  0.4793060000000  0.4167870000000  0.5209330000000 1.0
C      1  0.5286320000000  0.4167850000000  0.5075610000000 1.0
C      1  0.5476300000000  0.5262230000000  0.4578950000000 1.0
C      1  0.5128240000000  0.5262260000000  0.5622130000000 1.0
C      1  0.4398850000000  0.5262280000000  0.4799110000000 1.0
C      1  0.4525910000000  0.4739950000000  0.4578990000000 1.0
C      1  0.4874040000000  0.4739940000000  0.5622150000000 1.0
C      1  0.5603380000000  0.4739900000000  0.4799080000000 1.0
C      1  0.4362640000000  0.4452910000000  0.5305840000000 1.0
C      1  0.5055520000000  0.4452870000000  0.4294280000000 1.0
C      1  0.5585120000000  0.4452860000000  0.5400110000000 1.0
C      1  0.5639620000000  0.5549280000000  0.5305780000000 1.0
C      1  0.4946670000000  0.5549300000000  0.4294270000000 1.0
C      1  0.4417140000000  0.5549330000000  0.5400140000000 1.0
C      1  0.4559750000000  0.4877850000000  0.4264820000000 1.0
C      1  0.5858540000000  0.4877800000000  0.4985460000000 1.0
C      1  0.4585050000000  0.4877870000000  0.5749930000000 1.0
C      1  0.5442440000000  0.5124320000000  0.4264780000000 1.0
C      1  0.4143690000000  0.5124380000000  0.4985520000000 1.0
C      1  0.5417240000000  0.5124340000000  0.5749900000000 1.0
C      1  0.4713220000000  0.5439500000000  0.4780180000000 1.0
C      1  0.5335520000000  0.5439470000000  0.4860660000000 1.0
C      1  0.4954670000000  0.5439490000000  0.5359350000000 1.0
C      1  0.5289000000000  0.4562680000000  0.4780170000000 1.0
C      1  0.4666700000000  0.4562710000000  0.4860700000000 1.0
C      1  0.5047600000000  0.4562700000000  0.5359360000000 1.0
C      1  0.4011390000000  0.4982780000000  0.5740570000000 1.0
C      1  0.4854690000000  0.4982720000000  0.3772690000000 1.0
C      1  0.6137270000000  0.4982690000000  0.5486950000000 1.0
C      1  0.5990900000000  0.5019420000000  0.5740500000000 1.0
C      1  0.5147460000000  0.5019430000000  0.3772680000000 1.0
C      1  0.3865000000000  0.5019510000000  0.5487030000000 1.0
C      1  0.5163790000000  0.4224340000000  0.5579140000000 1.0
C      1  0.4418250000000  0.4224360000000  0.4851450000000 1.0
C      1  0.5421220000000  0.4224320000000  0.4569640000000 1.0
C      1  0.4838490000000  0.5777860000000  0.5579130000000 1.0
C      1  0.5583980000000  0.5777820000000  0.4851390000000 1.0
C      1  0.4580990000000  0.5777860000000  0.4569650000000 1.0
C      1  0.5626420000000  0.4633320000000  0.4288060000000 1.0
C      1  0.5305070000000  0.4633350000000  0.5897620000000 1.0
C      1  0.4071820000000  0.4633390000000  0.4814540000000 1.0
C      1  0.4375770000000  0.5368850000000  0.4288090000000 1.0
C      1  0.4697230000000  0.5368860000000  0.5897630000000 1.0
C      1  0.5930400000000  0.5368790000000  0.4814470000000 1.0
C      1  0.5417720000000  0.5001070000000  0.4759530000000 1.0
C      1  0.4584500000000  0.5001110000000  0.4759560000000 1.0
C      1  0.5001140000000  0.5001100000000  0.5481120000000 1.0
C      1  0.5001080000000  0.4115450000000  0.5000080000000 1.0
C      1  0.5001160000000  0.5886730000000  0.5000060000000 1.0
END
