TITL C-862131-2149-192 0.000148359578962455 125000 -481.074243831527 0 0 90 (C3i) n - 1
REM
REM in /home/nfs/bkarasulu/CARBON/AIRSS/Generating-Clusters/TERSOFF/Higher-Symm/FIRE-HFTN
REM
REM
REM
REM
REM
REM ./C.cell (b20cbc046b6831c77cfcea5457e17084)
REM AIRSS Version 0.9.1 bugfix July 2018 build 013d7b7c2542+ Fri, 06 Jul 2018 19:26:36 +0100
REM compiler GCC version 9.2.1 20190827 (Red Hat 9.2.1-1)
REM options -cpp -mtune=generic -march=x86-64 -g -O0 -fpre-include=/usr/include/finclude/math-vector-fortran.h
REM seed 1451001910 1605191325 -177613200 473845666 262815009 -681172526 1409407165 1671893785 1326424164 -1898329009 891483042 166391757 1009600208 -202838681 399929848 -2028371893 -1989231909 1206762154 -1913889283 -1532987864 285660494 2070835713 1339722408 1026689192 -151079722 1661587059 1974895790 725549503 -1536325171 891065513 -1682428506 1449839929 -1359297028
REM
CELL 1.54180   50.00000   50.00000   50.00000   90.00000   90.00000   90.00000
LATT -1
SFAC C  
C      1  0.5731170000000  0.4958430000000  0.4541280000000 1.0
C      1  0.5329580000000  0.4346010000000  0.5458720000000 1.0
C      1  0.4598420000000  0.4387580000000  0.4541280000000 1.0
C      1  0.4268830000000  0.5041570000000  0.5458720000000 1.0
C      1  0.4670420000000  0.5653990000000  0.4541280000000 1.0
C      1  0.5401580000000  0.5612420000000  0.5458720000000 1.0
C      1  0.5433120000000  0.4932380000000  0.5708030000000 1.0
C      1  0.5157990000000  0.4591100000000  0.4291970000000 1.0
C      1  0.4724880000000  0.4658720000000  0.5708030000000 1.0
C      1  0.4566880000000  0.5067620000000  0.4291970000000 1.0
C      1  0.4842010000000  0.5408900000000  0.5708030000000 1.0
C      1  0.5275120000000  0.5341280000000  0.4291970000000 1.0
C      1  0.4813300000000  0.5581570000000  0.5389210000000 1.0
C      1  0.5410310000000  0.5452470000000  0.4610790000000 1.0
C      1  0.5597000000000  0.4870900000000  0.5389210000000 1.0
C      1  0.5186700000000  0.4418430000000  0.4610790000000 1.0
C      1  0.4589690000000  0.4547530000000  0.5389210000000 1.0
C      1  0.4403000000000  0.5129100000000  0.4610790000000 1.0
C      1  0.5016200000000  0.4621160000000  0.5132860000000 1.0
C      1  0.4680020000000  0.4796550000000  0.4867140000000 1.0
C      1  0.4663820000000  0.5175390000000  0.5132860000000 1.0
C      1  0.4983800000000  0.5378840000000  0.4867140000000 1.0
C      1  0.5319980000000  0.5203450000000  0.5132860000000 1.0
C      1  0.5336180000000  0.4824610000000  0.4867140000000 1.0
C      1  0.4457110000000  0.5517190000000  0.5419490000000 1.0
C      1  0.5176450000000  0.5728750000000  0.4580510000000 1.0
C      1  0.5719350000000  0.5211560000000  0.5419490000000 1.0
C      1  0.5542890000000  0.4482810000000  0.4580510000000 1.0
C      1  0.4823550000000  0.4271250000000  0.5419490000000 1.0
C      1  0.4280650000000  0.4788440000000  0.4580510000000 1.0
C      1  0.5019470000000  0.4635300000000  0.5678360000000 1.0
C      1  0.4693900000000  0.4800790000000  0.4321650000000 1.0
C      1  0.4674420000000  0.5165490000000  0.5678350000000 1.0
C      1  0.4980530000000  0.5364700000000  0.4321640000000 1.0
C      1  0.5306100000000  0.5199210000000  0.5678350000000 1.0
C      1  0.5325580000000  0.4834510000000  0.4321650000000 1.0
C      1  0.5730710000000  0.5144140000000  0.4917450000000 1.0
C      1  0.5490180000000  0.4439260000000  0.5082550000000 1.0
C      1  0.4759470000000  0.4295120000000  0.4917450000000 1.0
C      1  0.4269290000000  0.4855860000000  0.5082550000000 1.0
C      1  0.4509820000000  0.5560740000000  0.4917450000000 1.0
C      1  0.5240530000000  0.5704880000000  0.5082550000000 1.0
C      1  0.4869230000000  0.5858940000000  0.4720530000000 1.0
C      1  0.5678480000000  0.5542720000000  0.5279470000000 1.0
C      1  0.5809250000000  0.4683780000000  0.4720530000000 1.0
C      1  0.5130770000000  0.4141060000000  0.5279470000000 1.0
C      1  0.4321520000000  0.4457280000000  0.4720530000000 1.0
C      1  0.4190750000000  0.5316220000000  0.5279470000000 1.0
C      1  0.4468880000000  0.4624930000000  0.4366080000000 1.0
C      1  0.4409620000000  0.5272430000000  0.5633920000000 1.0
C      1  0.4940740000000  0.5647500000000  0.4366080000000 1.0
C      1  0.5531120000000  0.5375070000000  0.5633920000000 1.0
C      1  0.5590380000000  0.4727570000000  0.4366080000000 1.0
C      1  0.5059260000000  0.4352500000000  0.5633920000000 1.0
C      1  0.4981230000000  0.5797030000000  0.5198930000000 1.0
C      1  0.5680870000000  0.5414770000000  0.4801070000000 1.0
C      1  0.5699640000000  0.4617740000000  0.5198930000000 1.0
C      1  0.5018770000000  0.4202970000000  0.4801070000000 1.0
C      1  0.4319130000000  0.4585230000000  0.5198930000000 1.0
C      1  0.4300360000000  0.5382260000000  0.4801070000000 1.0
C      1  0.4852330000000  0.4849210000000  0.4612710000000 1.0
C      1  0.4795570000000  0.5052500000000  0.5387290000000 1.0
C      1  0.4943250000000  0.5203290000000  0.4612710000000 1.0
C      1  0.5147670000000  0.5150790000000  0.5387290000000 1.0
C      1  0.5204430000000  0.4947500000000  0.4612710000000 1.0
C      1  0.5056750000000  0.4796710000000  0.5387290000000 1.0
C      1  0.5261720000000  0.5442610000000  0.4941260000000 1.0
C      1  0.5514170000000  0.4994650000000  0.5058740000000 1.0
C      1  0.5252450000000  0.4552040000000  0.4941260000000 1.0
C      1  0.4738280000000  0.4557390000000  0.5058740000000 1.0
C      1  0.4485830000000  0.5005350000000  0.4941260000000 1.0
C      1  0.4747550000000  0.5447960000000  0.5058740000000 1.0
C      1  0.5125300000000  0.5459470000000  0.5402910000000 1.0
C      1  0.5460560000000  0.5121220000000  0.4597090000000 1.0
C      1  0.5335260000000  0.4661750000000  0.5402910000000 1.0
C      1  0.4874700000000  0.4540530000000  0.4597090000000 1.0
C      1  0.4539440000000  0.4878780000000  0.5402910000000 1.0
C      1  0.4664740000000  0.5338250000000  0.4597090000000 1.0
C      1  0.5718100000000  0.5611150000000  0.5004870000000 1.0
C      1  0.5888320000000  0.4683680000000  0.4995130000000 1.0
C      1  0.5170220000000  0.4072530000000  0.5004870000000 1.0
C      1  0.4281900000000  0.4388850000000  0.4995130000000 1.0
C      1  0.4111680000000  0.5316320000000  0.5004870000000 1.0
C      1  0.4829780000000  0.5927470000000  0.4995130000000 1.0
C      1  0.4750110000000  0.5257900000000  0.4169680000000 1.0
C      1  0.5098400000000  0.5345360000000  0.5830320000000 1.0
C      1  0.5348290000000  0.5087460000000  0.4169680000000 1.0
C      1  0.5249890000000  0.4742100000000  0.5830320000000 1.0
C      1  0.4901600000000  0.4654640000000  0.4169680000000 1.0
C      1  0.4651710000000  0.4912540000000  0.5830320000000 1.0
END
