TITL C-862502-1143-1114 -0.00479515113305344 125000 -844.786887448245 0 0 140 (C5) n - 1
REM
REM in /home/nfs/bkarasulu/CARBON/AIRSS/Generating-Clusters/TERSOFF/Higher-Symm/FIRE-HFTN
REM
REM
REM
REM
REM
REM ./C.cell (b20cbc046b6831c77cfcea5457e17084)
REM AIRSS Version 0.9.1 bugfix July 2018 build 013d7b7c2542+ Fri, 06 Jul 2018 19:26:36 +0100
REM compiler GCC version 9.2.1 20190827 (Red Hat 9.2.1-1)
REM options -cpp -mtune=generic -march=x86-64 -g -O0 -fpre-include=/usr/include/finclude/math-vector-fortran.h
REM seed -1525719173 295741796 1304977066 80711415 -1841024755 -422097885 -194113014 92484157 -1456713635 -465611122 1533107635 1895705515 1900014730 -308644130 -16696201 1719147729 -1285599601 707878261 1822690379 -1920280927 1822854495 627079040 41151881 -1509049786 1051211442 1000973133 336566819 -1935335260 353415800 -1246758194 1225800041 1046690342 -1470084170
REM
CELL 1.54180   50.00000   50.00000   50.00000   90.00000   90.00000   90.00000
LATT -1
SFAC C  
C      1  0.5082210000000  0.4747960000000  0.5698560000000 1.0
C      1  0.5082210000000  0.4257750000000  0.4976160000000 1.0
C      1  0.5082210000000  0.4793310000000  0.4286710000000 1.0
C      1  0.5082210000000  0.5614510000000  0.4583000000000 1.0
C      1  0.5082210000000  0.5586480000000  0.5455570000000 1.0
C      1  0.4687180000000  0.5233910000000  0.6101970000000 1.0
C      1  0.4687180000000  0.4024250000000  0.5562990000000 1.0
C      1  0.4687180000000  0.4163040000000  0.4245970000000 1.0
C      1  0.4687180000000  0.5458490000000  0.3971000000000 1.0
C      1  0.4687180000000  0.6120320000000  0.5118070000000 1.0
C      1  0.5004320000000  0.5766510000000  0.5058770000000 1.0
C      1  0.5004320000000  0.5180980000000  0.5747150000000 1.0
C      1  0.5004320000000  0.4345340000000  0.5403000000000 1.0
C      1  0.5004320000000  0.4414420000000  0.4501910000000 1.0
C      1  0.5004320000000  0.5292750000000  0.4289170000000 1.0
C      1  0.4940390000000  0.5473790000000  0.5672780000000 1.0
C      1  0.4940390000000  0.4506550000000  0.5658500000000 1.0
C      1  0.4940390000000  0.4221250000000  0.4734190000000 1.0
C      1  0.4940390000000  0.5012150000000  0.4177220000000 1.0
C      1  0.4940390000000  0.5786260000000  0.4757300000000 1.0
C      1  0.4612360000000  0.5181800000000  0.3874020000000 1.0
C      1  0.4612360000000  0.6127060000000  0.4824950000000 1.0
C      1  0.4612360000000  0.5514760000000  0.6017800000000 1.0
C      1  0.4612360000000  0.4191080000000  0.5804080000000 1.0
C      1  0.4612360000000  0.3985300000000  0.4479150000000 1.0
C      1  0.5999770000000  0.5161470000000  0.5192900000000 1.0
C      1  0.5999770000000  0.4866430000000  0.5213170000000 1.0
C      1  0.5999770000000  0.4755990000000  0.4938850000000 1.0
C      1  0.5999770000000  0.4982760000000  0.4749030000000 1.0
C      1  0.5999770000000  0.5233360000000  0.4906050000000 1.0
C      1  0.4954710000000  0.5190340000000  0.6216270000000 1.0
C      1  0.4954710000000  0.3902070000000  0.5556870000000 1.0
C      1  0.4954710000000  0.4131100000000  0.4127890000000 1.0
C      1  0.4954710000000  0.5560920000000  0.3904140000000 1.0
C      1  0.4954710000000  0.6215560000000  0.5194830000000 1.0
C      1  0.4660550000000  0.4498970000000  0.5758480000000 1.0
C      1  0.4660550000000  0.4123810000000  0.4757880000000 1.0
C      1  0.4660550000000  0.4959520000000  0.4091880000000 1.0
C      1  0.4660550000000  0.5851170000000  0.4680870000000 1.0
C      1  0.4660550000000  0.5566530000000  0.5710890000000 1.0
C      1  0.5053500000000  0.4811800000000  0.4830230000000 1.0
C      1  0.5053500000000  0.5103300000000  0.4768550000000 1.0
C      1  0.5053500000000  0.5252040000000  0.5026720000000 1.0
C      1  0.5053500000000  0.5052470000000  0.5247960000000 1.0
C      1  0.5053500000000  0.4780390000000  0.5126530000000 1.0
C      1  0.5635530000000  0.4399930000000  0.4174550000000 1.0
C      1  0.5635530000000  0.5599620000000  0.4174220000000 1.0
C      1  0.5635530000000  0.5970660000000  0.5315090000000 1.0
C      1  0.5635530000000  0.5000280000000  0.6020520000000 1.0
C      1  0.5635530000000  0.4029520000000  0.5315620000000 1.0
C      1  0.5580350000000  0.4536550000000  0.5758450000000 1.0
C      1  0.5580350000000  0.4135460000000  0.4793600000000 1.0
C      1  0.5580350000000  0.4929140000000  0.4113990000000 1.0
C      1  0.5580350000000  0.5820750000000  0.4658810000000 1.0
C      1  0.5580350000000  0.5578110000000  0.5675140000000 1.0
C      1  0.4530220000000  0.5652540000000  0.4466220000000 1.0
C      1  0.4530220000000  0.5709300000000  0.5455660000000 1.0
C      1  0.4530220000000  0.4785830000000  0.5815390000000 1.0
C      1  0.4530220000000  0.4158340000000  0.5048280000000 1.0
C      1  0.4530220000000  0.4693990000000  0.4214450000000 1.0
C      1  0.3881800000000  0.4782240000000  0.5137220000000 1.0
C      1  0.3881800000000  0.4802200000000  0.4835300000000 1.0
C      1  0.3881800000000  0.5095520000000  0.4760990000000 1.0
C      1  0.3881800000000  0.5256830000000  0.5016980000000 1.0
C      1  0.3881800000000  0.5063210000000  0.5249510000000 1.0
C      1  0.5516480000000  0.4027050000000  0.4529070000000 1.0
C      1  0.5516480000000  0.5147220000000  0.3929150000000 1.0
C      1  0.5516480000000  0.6063930000000  0.4809100000000 1.0
C      1  0.5516480000000  0.5510330000000  0.5952870000000 1.0
C      1  0.5516480000000  0.4251470000000  0.5779800000000 1.0
C      1  0.5476320000000  0.5529570000000  0.5059230000000 1.0
C      1  0.5476320000000  0.5107310000000  0.5521960000000 1.0
C      1  0.5476320000000  0.4536750000000  0.5263360000000 1.0
C      1  0.5476320000000  0.4606380000000  0.4640810000000 1.0
C      1  0.5476320000000  0.5219980000000  0.4514650000000 1.0
C      1  0.5493680000000  0.4646430000000  0.4068530000000 1.0
C      1  0.5493680000000  0.5776620000000  0.4375890000000 1.0
C      1  0.5493690000000  0.5833550000000  0.5545750000000 1.0
C      1  0.5493690000000  0.4738540000000  0.5961400000000 1.0
C      1  0.5493680000000  0.4004860000000  0.5048430000000 1.0
C      1  0.4051950000000  0.4615740000000  0.4686180000000 1.0
C      1  0.4051950000000  0.5179720000000  0.4537570000000 1.0
C      1  0.4051950000000  0.5495330000000  0.5028020000000 1.0
C      1  0.4051950000000  0.5126420000000  0.5479750000000 1.0
C      1  0.4051950000000  0.4582800000000  0.5268480000000 1.0
C      1  0.4460050000000  0.5247480000000  0.4952460000000 1.0
C      1  0.4460050000000  0.5121680000000  0.5220680000000 1.0
C      1  0.4460050000000  0.4827730000000  0.5183920000000 1.0
C      1  0.4460050000000  0.4771850000000  0.4892990000000 1.0
C      1  0.4460050000000  0.5031270000000  0.4749950000000 1.0
C      1  0.5165590000000  0.4070930000000  0.5432210000000 1.0
C      1  0.5165590000000  0.4301840000000  0.4249960000000 1.0
C      1  0.5165590000000  0.5497590000000  0.4104240000000 1.0
C      1  0.5165590000000  0.6005680000000  0.5196430000000 1.0
C      1  0.5165590000000  0.5123960000000  0.6017160000000 1.0
C      1  0.5917270000000  0.4490790000000  0.4872450000000 1.0
C      1  0.5917270000000  0.4963950000000  0.4476300000000 1.0
C      1  0.5917270000000  0.5486930000000  0.4803880000000 1.0
C      1  0.5917270000000  0.5336990000000  0.5402490000000 1.0
C      1  0.5917270000000  0.4721340000000  0.5444870000000 1.0
C      1  0.4296520000000  0.5543300000000  0.5397280000000 1.0
C      1  0.4296520000000  0.4790050000000  0.5639480000000 1.0
C      1  0.4296520000000  0.4326940000000  0.4997940000000 1.0
C      1  0.4296520000000  0.4793980000000  0.4359250000000 1.0
C      1  0.4296520000000  0.5545730000000  0.4606060000000 1.0
C      1  0.5447750000000  0.5421260000000  0.4016000000000 1.0
C      1  0.5447750000000  0.6066020000000  0.5096570000000 1.0
C      1  0.5447750000000  0.5237570000000  0.6043690000000 1.0
C      1  0.5447750000000  0.4080810000000  0.5548460000000 1.0
C      1  0.5447750000000  0.4194340000000  0.4295280000000 1.0
C      1  0.4319640000000  0.5062530000000  0.4491160000000 1.0
C      1  0.4319640000000  0.5503260000000  0.4902230000000 1.0
C      1  0.4319640000000  0.5248510000000  0.5448420000000 1.0
C      1  0.4319640000000  0.4650320000000  0.5374910000000 1.0
C      1  0.4319640000000  0.4535380000000  0.4783290000000 1.0
C      1  0.5178650000000  0.5511860000000  0.5053850000000 1.0
C      1  0.5178650000000  0.5106960000000  0.5503450000000 1.0
C      1  0.5178650000000  0.4554240000000  0.5257300000000 1.0
C      1  0.5178650000000  0.4617550000000  0.4655570000000 1.0
C      1  0.5178650000000  0.5209390000000  0.4529830000000 1.0
C      1  0.4671850000000  0.4465450000000  0.4366100000000 1.0
C      1  0.4671850000000  0.5437690000000  0.4295720000000 1.0
C      1  0.4671850000000  0.5805060000000  0.5198630000000 1.0
C      1  0.4671850000000  0.5059860000000  0.5827040000000 1.0
C      1  0.4671850000000  0.4231940000000  0.5312500000000 1.0
C      1  0.4520510000000  0.5285880000000  0.5677930000000 1.0
C      1  0.4520510000000  0.4443600000000  0.5481380000000 1.0
C      1  0.4520510000000  0.4370240000000  0.4619580000000 1.0
C      1  0.4520510000000  0.5167190000000  0.4283510000000 1.0
C      1  0.4520510000000  0.5733090000000  0.4937600000000 1.0
C      1  0.5211540000000  0.4049420000000  0.5126120000000 1.0
C      1  0.5211540000000  0.4586300000000  0.4134920000000 1.0
C      1  0.5211540000000  0.5694900000000  0.4339230000000 1.0
C      1  0.5211540000000  0.5843170000000  0.5456700000000 1.0
C      1  0.5211540000000  0.4826200000000  0.5943030000000 1.0
C      1  0.5649330000000  0.5018330000000  0.4380390000000 1.0
C      1  0.5649330000000  0.5594950000000  0.4825960000000 1.0
C      1  0.5649330000000  0.5349370000000  0.5512050000000 1.0
C      1  0.5649330000000  0.4620970000000  0.5490500000000 1.0
C      1  0.5649330000000  0.4416380000000  0.4791100000000 1.0
END
