TITL C-862133-5440-123 -13.7602279355639 125000 -1059.71908143024 0 0 185 (C1) n - 1
REM
REM in /home/nfs/bkarasulu/CARBON/AIRSS/Generating-Clusters/TERSOFF/Higher-Symm/FIRE-HFTN
REM
REM
REM
REM
REM
REM ./C.cell (b20cbc046b6831c77cfcea5457e17084)
REM AIRSS Version 0.9.1 bugfix July 2018 build 013d7b7c2542+ Fri, 06 Jul 2018 19:26:36 +0100
REM compiler GCC version 9.2.1 20190827 (Red Hat 9.2.1-1)
REM options -cpp -mtune=generic -march=x86-64 -g -O0 -fpre-include=/usr/include/finclude/math-vector-fortran.h
REM seed 74181151 1019550724 -2081036224 -980536058 -1875681001 -1874681601 -100297796 1987745319 1897848679 -1217943112 -1809996868 216861126 180599364 339075022 1129056958 813183232 1305898074 575333535 -830866585 -388938746 2056450437 1676476484 -343902987 1926788437 1906955027 363728084 1985134927 1367760346 -1702116161 1561814676 -643483087 -1128916084 805937336
REM
CELL 1.54180   50.00000   50.00000   50.00000   90.00000   90.00000   90.00000
LATT -1
SFAC C  
C      1  0.4358300000000  0.4953290000000  0.4675420000000 1.0
C      1  0.4198720000000  0.4710430000000  0.4696670000000 1.0
C      1  0.4268950000000  0.4537330000000  0.4926030000000 1.0
C      1  0.4136230000000  0.4551160000000  0.5221880000000 1.0
C      1  0.4245180000000  0.4713530000000  0.5449400000000 1.0
C      1  0.4123520000000  0.5008850000000  0.5536140000000 1.0
C      1  0.4241170000000  0.5279650000000  0.5458470000000 1.0
C      1  0.4115480000000  0.5489460000000  0.5224260000000 1.0
C      1  0.4227370000000  0.5549370000000  0.4949170000000 1.0
C      1  0.4101170000000  0.5416480000000  0.4668970000000 1.0
C      1  0.4232950000000  0.5176830000000  0.4530960000000 1.0
C      1  0.5050870000000  0.5230510000000  0.3967300000000 1.0
C      1  0.5031410000000  0.4666220000000  0.4159550000000 1.0
C      1  0.5056640000000  0.4178510000000  0.4391940000000 1.0
C      1  0.5045660000000  0.3975170000000  0.4909270000000 1.0
C      1  0.5025100000000  0.4075280000000  0.5464250000000 1.0
C      1  0.4992940000000  0.4552630000000  0.5826930000000 1.0
C      1  0.5024760000000  0.5072920000000  0.6022340000000 1.0
C      1  0.4969350000000  0.5584300000000  0.5744910000000 1.0
C      1  0.5032470000000  0.5955800000000  0.5341700000000 1.0
C      1  0.4986600000000  0.5902750000000  0.4764210000000 1.0
C      1  0.5014080000000  0.5704330000000  0.4243000000000 1.0
C      1  0.4615560000000  0.3984300000000  0.4612120000000 1.0
C      1  0.4591620000000  0.3903620000000  0.5210140000000 1.0
C      1  0.4606600000000  0.4168370000000  0.5810860000000 1.0
C      1  0.4599780000000  0.4789340000000  0.6109460000000 1.0
C      1  0.4597530000000  0.5407590000000  0.6100680000000 1.0
C      1  0.4596870000000  0.5939470000000  0.5632330000000 1.0
C      1  0.4609300000000  0.6147980000000  0.5084420000000 1.0
C      1  0.4578490000000  0.5950530000000  0.4408680000000 1.0
C      1  0.4593490000000  0.5463480000000  0.3998670000000 1.0
C      1  0.4639280000000  0.4882700000000  0.3859170000000 1.0
C      1  0.4615960000000  0.4343730000000  0.4167830000000 1.0
C      1  0.6028380000000  0.4364780000000  0.4438580000000 1.0
C      1  0.6000440000000  0.4182650000000  0.4868950000000 1.0
C      1  0.5817060000000  0.4427680000000  0.5223520000000 1.0
C      1  0.5971050000000  0.4542640000000  0.5653380000000 1.0
C      1  0.5962700000000  0.4993150000000  0.5774890000000 1.0
C      1  0.5766090000000  0.5286990000000  0.5461050000000 1.0
C      1  0.5941940000000  0.5700130000000  0.5331030000000 1.0
C      1  0.6001850000000  0.5833060000000  0.4887180000000 1.0
C      1  0.5955640000000  0.5586570000000  0.4494680000000 1.0
C      1  0.5778770000000  0.5150560000000  0.4474050000000 1.0
C      1  0.5976470000000  0.4786530000000  0.4250740000000 1.0
C      1  0.6033180000000  0.5104220000000  0.4643380000000 1.0
C      1  0.6157440000000  0.4843520000000  0.4502850000000 1.0
C      1  0.6191850000000  0.4554470000000  0.4615280000000 1.0
C      1  0.6173730000000  0.4447740000000  0.4903810000000 1.0
C      1  0.6051140000000  0.4601860000000  0.5149420000000 1.0
C      1  0.6147230000000  0.4692870000000  0.5434400000000 1.0
C      1  0.6127160000000  0.4987300000000  0.5508140000000 1.0
C      1  0.6005840000000  0.5185510000000  0.5286340000000 1.0
C      1  0.6122570000000  0.5475990000000  0.5213190000000 1.0
C      1  0.6165900000000  0.5573100000000  0.4925520000000 1.0
C      1  0.6141650000000  0.5404380000000  0.4669520000000 1.0
C      1  0.5531120000000  0.5236990000000  0.5897060000000 1.0
C      1  0.5501970000000  0.5695590000000  0.5590270000000 1.0
C      1  0.5570780000000  0.5984520000000  0.5137650000000 1.0
C      1  0.5569830000000  0.5903120000000  0.4592000000000 1.0
C      1  0.5534140000000  0.5509140000000  0.4218510000000 1.0
C      1  0.5551760000000  0.4987420000000  0.4054640000000 1.0
C      1  0.5594870000000  0.4459930000000  0.4175320000000 1.0
C      1  0.5602600000000  0.4085370000000  0.4558100000000 1.0
C      1  0.5570220000000  0.4014360000000  0.5099970000000 1.0
C      1  0.5535180000000  0.4265280000000  0.5605720000000 1.0
C      1  0.5571720000000  0.4701090000000  0.5938130000000 1.0
C      1  0.4199510000000  0.4566150000000  0.5745680000000 1.0
C      1  0.4172840000000  0.4870490000000  0.5831760000000 1.0
C      1  0.4196080000000  0.5499830000000  0.5709500000000 1.0
C      1  0.4173780000000  0.5693960000000  0.5463690000000 1.0
C      1  0.4189870000000  0.5867390000000  0.4861330000000 1.0
C      1  0.4133050000000  0.5735300000000  0.4584590000000 1.0
C      1  0.4253930000000  0.5119450000000  0.4235320000000 1.0
C      1  0.4230030000000  0.4811160000000  0.4183480000000 1.0
C      1  0.4223730000000  0.4598260000000  0.4416020000000 1.0
C      1  0.4204220000000  0.4205520000000  0.4875890000000 1.0
C      1  0.4178380000000  0.4226170000000  0.5192820000000 1.0
C      1  0.5304650000000  0.4288660000000  0.4556320000000 1.0
C      1  0.5293740000000  0.4154590000000  0.5016420000000 1.0
C      1  0.5243390000000  0.4311030000000  0.5455680000000 1.0
C      1  0.5283080000000  0.4696280000000  0.5722520000000 1.0
C      1  0.5246110000000  0.5131820000000  0.5800160000000 1.0
C      1  0.5210500000000  0.5537160000000  0.5545520000000 1.0
C      1  0.5276880000000  0.5796560000000  0.5192250000000 1.0
C      1  0.5285930000000  0.5736860000000  0.4719340000000 1.0
C      1  0.5237370000000  0.5506290000000  0.4349350000000 1.0
C      1  0.5260040000000  0.5064730000000  0.4169290000000 1.0
C      1  0.5321580000000  0.4644260000000  0.4321990000000 1.0
C      1  0.4657530000000  0.4597990000000  0.5726610000000 1.0
C      1  0.4605730000000  0.5112340000000  0.5802290000000 1.0
C      1  0.4650170000000  0.5505970000000  0.5662940000000 1.0
C      1  0.4616160000000  0.5753720000000  0.5228960000000 1.0
C      1  0.4650070000000  0.5805610000000  0.4813710000000 1.0
C      1  0.4471680000000  0.5496210000000  0.4399120000000 1.0
C      1  0.4773660000000  0.5147170000000  0.4271330000000 1.0
C      1  0.4708210000000  0.4733820000000  0.4304020000000 1.0
C      1  0.4667150000000  0.4400940000000  0.4602630000000 1.0
C      1  0.4644140000000  0.4262150000000  0.4998290000000 1.0
C      1  0.4616210000000  0.4315990000000  0.5417940000000 1.0
C      1  0.4597110000000  0.5375770000000  0.4627680000000 1.0
C      1  0.4779260000000  0.5148060000000  0.4570510000000 1.0
C      1  0.4651650000000  0.4878300000000  0.4599670000000 1.0
C      1  0.4735430000000  0.4641680000000  0.4762860000000 1.0
C      1  0.4580850000000  0.4555420000000  0.5002910000000 1.0
C      1  0.4666580000000  0.4569500000000  0.5286590000000 1.0
C      1  0.4567650000000  0.4768130000000  0.5478270000000 1.0
C      1  0.4666770000000  0.5046900000000  0.5521610000000 1.0
C      1  0.4564100000000  0.5314600000000  0.5419830000000 1.0
C      1  0.4666720000000  0.5460600000000  0.5172660000000 1.0
C      1  0.4552070000000  0.5514740000000  0.4889580000000 1.0
C      1  0.5254250000000  0.3771240000000  0.4819830000000 1.0
C      1  0.5247180000000  0.3874420000000  0.5503230000000 1.0
C      1  0.5194080000000  0.4358800000000  0.5976480000000 1.0
C      1  0.5243910000000  0.5019330000000  0.6224140000000 1.0
C      1  0.5192110000000  0.5631570000000  0.5965770000000 1.0
C      1  0.5237750000000  0.6130360000000  0.5478410000000 1.0
C      1  0.5189570000000  0.6144550000000  0.4812460000000 1.0
C      1  0.5237160000000  0.5893270000000  0.4160120000000 1.0
C      1  0.5285820000000  0.5320060000000  0.3802610000000 1.0
C      1  0.5216420000000  0.4636730000000  0.3902480000000 1.0
C      1  0.5258300000000  0.4050120000000  0.4204650000000 1.0
C      1  0.5206390000000  0.5075470000000  0.5514010000000 1.0
C      1  0.5186040000000  0.5318380000000  0.5332840000000 1.0
C      1  0.5256220000000  0.5515090000000  0.5113210000000 1.0
C      1  0.5305460000000  0.5450500000000  0.4824220000000 1.0
C      1  0.5187870000000  0.5320310000000  0.4575340000000 1.0
C      1  0.5218580000000  0.5048750000000  0.4461670000000 1.0
C      1  0.5342860000000  0.4797990000000  0.4598430000000 1.0
C      1  0.5278510000000  0.4526040000000  0.4726450000000 1.0
C      1  0.5280070000000  0.4448160000000  0.5010440000000 1.0
C      1  0.5206610000000  0.4552150000000  0.5281590000000 1.0
C      1  0.5297000000000  0.4798840000000  0.5434300000000 1.0
C      1  0.4904510000000  0.4025650000000  0.4620880000000 1.0
C      1  0.4881680000000  0.3966080000000  0.5194460000000 1.0
C      1  0.4887740000000  0.4222470000000  0.5723640000000 1.0
C      1  0.4879000000000  0.4799540000000  0.6020720000000 1.0
C      1  0.4879100000000  0.5355080000000  0.6008090000000 1.0
C      1  0.4874620000000  0.5854340000000  0.5595330000000 1.0
C      1  0.4885260000000  0.6040610000000  0.5082410000000 1.0
C      1  0.4858560000000  0.5868120000000  0.4454820000000 1.0
C      1  0.4885770000000  0.5488290000000  0.4042470000000 1.0
C      1  0.4921360000000  0.4932490000000  0.3942100000000 1.0
C      1  0.4904710000000  0.4374950000000  0.4209850000000 1.0
C      1  0.5465050000000  0.5557060000000  0.5889590000000 1.0
C      1  0.5501000000000  0.6002030000000  0.5481010000000 1.0
C      1  0.5474430000000  0.6089730000000  0.4846390000000 1.0
C      1  0.5499180000000  0.5825640000000  0.4271860000000 1.0
C      1  0.5530430000000  0.5309560000000  0.3961280000000 1.0
C      1  0.5500000000000  0.4688640000000  0.3944700000000 1.0
C      1  0.5534470000000  0.4146820000000  0.4235360000000 1.0
C      1  0.5527140000000  0.3876970000000  0.4804890000000 1.0
C      1  0.5509380000000  0.3979330000000  0.5428990000000 1.0
C      1  0.5477230000000  0.4370320000000  0.5901600000000 1.0
C      1  0.5504250000000  0.4984900000000  0.6097050000000 1.0
C      1  0.4505800000000  0.4753840000000  0.4088500000000 1.0
C      1  0.4444980000000  0.4390590000000  0.4401800000000 1.0
C      1  0.4477630000000  0.4080640000000  0.4846780000000 1.0
C      1  0.4424130000000  0.4117750000000  0.5325600000000 1.0
C      1  0.4446500000000  0.4422600000000  0.5850490000000 1.0
C      1  0.4415630000000  0.4966840000000  0.5968540000000 1.0
C      1  0.4442870000000  0.5543000000000  0.5877400000000 1.0
C      1  0.4416330000000  0.5856040000000  0.5419190000000 1.0
C      1  0.4447150000000  0.6020090000000  0.4868900000000 1.0
C      1  0.4360260000000  0.5757340000000  0.4395450000000 1.0
C      1  0.4521800000000  0.5197420000000  0.4109790000000 1.0
C      1  0.5763580000000  0.4974000000000  0.4255590000000 1.0
C      1  0.5885810000000  0.4512560000000  0.4233950000000 1.0
C      1  0.5894180000000  0.4161220000000  0.4598530000000 1.0
C      1  0.5802570000000  0.4190550000000  0.5077240000000 1.0
C      1  0.5769920000000  0.4405400000000  0.5497810000000 1.0
C      1  0.5864290000000  0.4727620000000  0.5850550000000 1.0
C      1  0.5752810000000  0.5178380000000  0.5718140000000 1.0
C      1  0.5726830000000  0.5563520000000  0.5457010000000 1.0
C      1  0.5858930000000  0.5895450000000  0.5133870000000 1.0
C      1  0.5862910000000  0.5826630000000  0.4629150000000 1.0
C      1  0.5744730000000  0.5419920000000  0.4400740000000 1.0
C      1  0.4390830000000  0.5062320000000  0.5121350000000 1.0
C      1  0.5415670000000  0.5037850000000  0.5084750000000 1.0
C      1  0.4903230000000  0.5058170000000  0.5097010000000 1.0
C      1  0.4641560000000  0.4971000000000  0.5009220000000 1.0
C      1  0.3878050000000  0.5076580000000  0.5121850000000 1.0
C      1  0.5153770000000  0.4971230000000  0.4981060000000 1.0
C      1  0.4131120000000  0.4952160000000  0.5056640000000 1.0
C      1  0.5927010000000  0.5035190000000  0.5043820000000 1.0
C      1  0.5660620000000  0.5032240000000  0.4930670000000 1.0
END
