TITL C-862134-6730-948 -0.0875108527536371 125000 -169.94457940425 0 0 31 (C1) n - 1
REM
REM in /home/nfs/bkarasulu/CARBON/AIRSS/Generating-Clusters/TERSOFF/Higher-Symm/FIRE-HFTN
REM
REM
REM
REM
REM
REM ./C.cell (b20cbc046b6831c77cfcea5457e17084)
REM AIRSS Version 0.9.1 bugfix July 2018 build 013d7b7c2542+ Fri, 06 Jul 2018 19:26:36 +0100
REM compiler GCC version 9.2.1 20190827 (Red Hat 9.2.1-1)
REM options -cpp -mtune=generic -march=x86-64 -g -O0 -fpre-include=/usr/include/finclude/math-vector-fortran.h
REM seed -492195371 -442449170 1457689292 1228757095 -2146027340 7528713 -1263529240 1380768260 991363157 1855130141 -266357958 -1031973768 1434033561 1468927725 -541216768 -656735939 -1572720874 109740740 874788842 1331460848 -604524467 -1461513610 -634515947 -455997717 -461221848 -1786981065 1482447697 -18991219 -356389058 -779606743 706407299 -2086120527 1768101919
REM
CELL 1.54180   50.00000   50.00000   50.00000   90.00000   90.00000   90.00000
LATT -1
SFAC C  
C      1  0.5133090000000  0.4405460000000  0.5007140000000 1.0
C      1  0.4793250000000  0.4610280000000  0.5294120000000 1.0
C      1  0.4962050000000  0.4828570000000  0.5356320000000 1.0
C      1  0.4923710000000  0.4548250000000  0.4816190000000 1.0
C      1  0.5273570000000  0.5292210000000  0.4592950000000 1.0
C      1  0.5081550000000  0.5562390000000  0.4993160000000 1.0
C      1  0.4889680000000  0.5277500000000  0.5579110000000 1.0
C      1  0.4699030000000  0.4595060000000  0.5026720000000 1.0
C      1  0.4788480000000  0.5494140000000  0.5395420000000 1.0
C      1  0.4791220000000  0.5188940000000  0.5023290000000 1.0
C      1  0.5281500000000  0.5213970000000  0.5283310000000 1.0
C      1  0.4579910000000  0.4705360000000  0.4472160000000 1.0
C      1  0.4624810000000  0.4986930000000  0.4549110000000 1.0
C      1  0.5434290000000  0.4640340000000  0.4791660000000 1.0
C      1  0.4794270000000  0.5484680000000  0.5083550000000 1.0
C      1  0.5202890000000  0.4802070000000  0.5535250000000 1.0
C      1  0.5436770000000  0.4734000000000  0.5315840000000 1.0
C      1  0.4582470000000  0.5044350000000  0.4845500000000 1.0
C      1  0.5156650000000  0.5534440000000  0.4711020000000 1.0
C      1  0.4859360000000  0.5094610000000  0.4426350000000 1.0
C      1  0.5219480000000  0.4963800000000  0.4951700000000 1.0
C      1  0.5166160000000  0.4789220000000  0.4713620000000 1.0
C      1  0.4497650000000  0.4790560000000  0.4960030000000 1.0
C      1  0.4579920000000  0.5640030000000  0.4953750000000 1.0
C      1  0.5017590000000  0.5042910000000  0.5150210000000 1.0
C      1  0.4755930000000  0.4495540000000  0.4570410000000 1.0
C      1  0.5155920000000  0.5143740000000  0.5554700000000 1.0
C      1  0.5285230000000  0.5485320000000  0.5184270000000 1.0
C      1  0.5122860000000  0.5048290000000  0.4532170000000 1.0
C      1  0.5509220000000  0.5019290000000  0.5250640000000 1.0
C      1  0.5401470000000  0.4537760000000  0.5080320000000 1.0
END
