TITL C-862130-1496-543 17.8717529704999 125000 -818.387139060111 0 0 143 (C1) n - 1
REM
REM in /home/nfs/bkarasulu/CARBON/AIRSS/Generating-Clusters/TERSOFF/Higher-Symm/FIRE-HFTN
REM
REM
REM
REM
REM
REM ./C.cell (b20cbc046b6831c77cfcea5457e17084)
REM AIRSS Version 0.9.1 bugfix July 2018 build 013d7b7c2542+ Fri, 06 Jul 2018 19:26:36 +0100
REM compiler GCC version 9.2.1 20190827 (Red Hat 9.2.1-1)
REM options -cpp -mtune=generic -march=x86-64 -g -O0 -fpre-include=/usr/include/finclude/math-vector-fortran.h
REM seed -1544918973 63453280 1703575654 1308494930 1659426957 509477407 1022938021 429808797 1397729370 -2138696282 -1912447802 -1907831082 1791935465 -492976340 -1323324866 -402353594 1057934617 1689342084 1639766366 -115467807 -1925430399 181756846 -1346444778 350642730 -1166613948 992114655 -1210012109 1734512329 1008077266 -861490768 414658274 -2078228976 -455410881
REM
CELL 1.54180   50.00000   50.00000   50.00000   90.00000   90.00000   90.00000
LATT -1
SFAC C  
C      1  0.4343010000000  0.5325600000000  0.4555040000000 1.0
C      1  0.5520580000000  0.4361120000000  0.5506610000000 1.0
C      1  0.4615810000000  0.4846010000000  0.4649090000000 1.0
C      1  0.4278930000000  0.4094210000000  0.4894430000000 1.0
C      1  0.5677900000000  0.5250070000000  0.5306930000000 1.0
C      1  0.5400290000000  0.5807280000000  0.4574060000000 1.0
C      1  0.4310530000000  0.5014800000000  0.5001890000000 1.0
C      1  0.4005240000000  0.5285270000000  0.5316630000000 1.0
C      1  0.4534150000000  0.4840390000000  0.5409520000000 1.0
C      1  0.4683070000000  0.5090000000000  0.4019380000000 1.0
C      1  0.5889890000000  0.4629360000000  0.5266830000000 1.0
C      1  0.5357950000000  0.4603140000000  0.5463230000000 1.0
C      1  0.4856810000000  0.5892720000000  0.4399220000000 1.0
C      1  0.5809570000000  0.5087450000000  0.5706470000000 1.0
C      1  0.5707080000000  0.5008250000000  0.5140800000000 1.0
C      1  0.5028760000000  0.4049000000000  0.4595120000000 1.0
C      1  0.5769720000000  0.4542670000000  0.5004280000000 1.0
C      1  0.4250890000000  0.4340450000000  0.5115850000000 1.0
C      1  0.4233990000000  0.5962330000000  0.5251230000000 1.0
C      1  0.3885360000000  0.5035120000000  0.4669330000000 1.0
C      1  0.4527290000000  0.5013310000000  0.5186160000000 1.0
C      1  0.5283020000000  0.4674000000000  0.5189240000000 1.0
C      1  0.5065810000000  0.5033650000000  0.6016420000000 1.0
C      1  0.5181390000000  0.4283300000000  0.4756540000000 1.0
C      1  0.4746130000000  0.4608250000000  0.4235460000000 1.0
C      1  0.5639560000000  0.5656560000000  0.4530820000000 1.0
C      1  0.4429720000000  0.5270010000000  0.3993360000000 1.0
C      1  0.4236260000000  0.5081000000000  0.4115740000000 1.0
C      1  0.4776690000000  0.3973310000000  0.4734450000000 1.0
C      1  0.4144700000000  0.5505740000000  0.4673770000000 1.0
C      1  0.5334330000000  0.5043540000000  0.4588070000000 1.0
C      1  0.5764650000000  0.5640260000000  0.5721360000000 1.0
C      1  0.4600420000000  0.4788600000000  0.4058380000000 1.0
C      1  0.5023890000000  0.4950060000000  0.5679090000000 1.0
C      1  0.5909990000000  0.4998850000000  0.4248800000000 1.0
C      1  0.4638720000000  0.4941010000000  0.5983540000000 1.0
C      1  0.5608950000000  0.4292540000000  0.4989690000000 1.0
C      1  0.5787490000000  0.4532320000000  0.4515920000000 1.0
C      1  0.5869340000000  0.5378300000000  0.5826830000000 1.0
C      1  0.5166370000000  0.5223320000000  0.4156530000000 1.0
C      1  0.4764100000000  0.4424690000000  0.5527190000000 1.0
C      1  0.5221660000000  0.4812200000000  0.6155010000000 1.0
C      1  0.5314580000000  0.4228700000000  0.5712930000000 1.0
C      1  0.3899770000000  0.5325520000000  0.4730900000000 1.0
C      1  0.5152620000000  0.4337990000000  0.4180850000000 1.0
C      1  0.4828820000000  0.4572040000000  0.5278120000000 1.0
C      1  0.4570280000000  0.5594780000000  0.4987820000000 1.0
C      1  0.4942890000000  0.5821560000000  0.5221490000000 1.0
C      1  0.5212790000000  0.3811910000000  0.4593030000000 1.0
C      1  0.4147000000000  0.4488470000000  0.5370740000000 1.0
C      1  0.4630950000000  0.6117490000000  0.4964460000000 1.0
C      1  0.5266920000000  0.4753860000000  0.5689180000000 1.0
C      1  0.4403610000000  0.5376000000000  0.5671260000000 1.0
C      1  0.4677950000000  0.5679260000000  0.4209400000000 1.0
C      1  0.4549560000000  0.4284850000000  0.5152610000000 1.0
C      1  0.6024290000000  0.5080760000000  0.5473470000000 1.0
C      1  0.5618110000000  0.5009390000000  0.4684830000000 1.0
C      1  0.5249190000000  0.5517440000000  0.4188800000000 1.0
C      1  0.4668750000000  0.5686870000000  0.5277510000000 1.0
C      1  0.4987740000000  0.4139810000000  0.4311630000000 1.0
C      1  0.6044230000000  0.4883000000000  0.4744140000000 1.0
C      1  0.5724990000000  0.4789420000000  0.4145010000000 1.0
C      1  0.5969950000000  0.5096590000000  0.4960840000000 1.0
C      1  0.6072820000000  0.5326290000000  0.5136350000000 1.0
C      1  0.5536940000000  0.5044210000000  0.5872690000000 1.0
C      1  0.4956540000000  0.4666370000000  0.4835130000000 1.0
C      1  0.4903590000000  0.5466840000000  0.5687270000000 1.0
C      1  0.4654690000000  0.5497180000000  0.5533850000000 1.0
C      1  0.5326790000000  0.4522820000000  0.4335050000000 1.0
C      1  0.4159090000000  0.4919810000000  0.5684970000000 1.0
C      1  0.5367810000000  0.5617640000000  0.5410380000000 1.0
C      1  0.4122730000000  0.4880290000000  0.4558950000000 1.0
C      1  0.4689760000000  0.4644320000000  0.5988630000000 1.0
C      1  0.6109940000000  0.4961740000000  0.4466510000000 1.0
C      1  0.4687700000000  0.4606510000000  0.4518380000000 1.0
C      1  0.5837990000000  0.5511280000000  0.5247740000000 1.0
C      1  0.4189900000000  0.4503240000000  0.4860710000000 1.0
C      1  0.4681410000000  0.4380470000000  0.4697580000000 1.0
C      1  0.5277530000000  0.5349180000000  0.5385950000000 1.0
C      1  0.5161360000000  0.5705000000000  0.4429230000000 1.0
C      1  0.5423430000000  0.5317280000000  0.4893870000000 1.0
C      1  0.5389400000000  0.5980850000000  0.4815780000000 1.0
C      1  0.4522300000000  0.5968650000000  0.5210600000000 1.0
C      1  0.4422160000000  0.5563310000000  0.4091050000000 1.0
C      1  0.5474250000000  0.4838930000000  0.5039480000000 1.0
C      1  0.4487880000000  0.4133110000000  0.4651030000000 1.0
C      1  0.6068680000000  0.4856190000000  0.5290660000000 1.0
C      1  0.5810730000000  0.5231960000000  0.4734920000000 1.0
C      1  0.4144320000000  0.5217060000000  0.5560140000000 1.0
C      1  0.5470240000000  0.4237050000000  0.4731430000000 1.0
C      1  0.5298640000000  0.5209230000000  0.5131230000000 1.0
C      1  0.4300570000000  0.4777730000000  0.4101830000000 1.0
C      1  0.4735030000000  0.5977120000000  0.4699560000000 1.0
C      1  0.4760110000000  0.4839310000000  0.5594720000000 1.0
C      1  0.5170230000000  0.5837430000000  0.5404080000000 1.0
C      1  0.5204560000000  0.3989090000000  0.5576060000000 1.0
C      1  0.4951000000000  0.5638520000000  0.5917550000000 1.0
C      1  0.4879460000000  0.5218910000000  0.4195050000000 1.0
C      1  0.5617590000000  0.6021860000000  0.5008440000000 1.0
C      1  0.4942340000000  0.5532050000000  0.4596600000000 1.0
C      1  0.5599670000000  0.5985070000000  0.5306490000000 1.0
C      1  0.4866820000000  0.4488820000000  0.5798740000000 1.0
C      1  0.5434480000000  0.4766370000000  0.5941680000000 1.0
C      1  0.4267510000000  0.5615490000000  0.4925820000000 1.0
C      1  0.4167710000000  0.5680900000000  0.4179800000000 1.0
C      1  0.4399850000000  0.5074810000000  0.5861190000000 1.0
C      1  0.5770120000000  0.4548340000000  0.5522450000000 1.0
C      1  0.4221520000000  0.5108960000000  0.4404680000000 1.0
C      1  0.5015660000000  0.4780890000000  0.5266800000000 1.0
C      1  0.4276040000000  0.4417800000000  0.4586370000000 1.0
C      1  0.5165870000000  0.4378950000000  0.5058610000000 1.0
C      1  0.4050290000000  0.5117010000000  0.5083380000000 1.0
C      1  0.4798130000000  0.5446670000000  0.4347440000000 1.0
C      1  0.3929610000000  0.5561700000000  0.5275350000000 1.0
C      1  0.4792200000000  0.5075490000000  0.4657910000000 1.0
C      1  0.5499820000000  0.4185240000000  0.5248780000000 1.0
C      1  0.4650950000000  0.4019700000000  0.5206930000000 1.0
C      1  0.5310550000000  0.5019590000000  0.4307470000000 1.0
C      1  0.4282910000000  0.4724320000000  0.5499980000000 1.0
C      1  0.4604990000000  0.5300830000000  0.4690480000000 1.0
C      1  0.4345480000000  0.4880320000000  0.4752520000000 1.0
C      1  0.4743860000000  0.4470640000000  0.4999940000000 1.0
C      1  0.5290140000000  0.5224560000000  0.5874460000000 1.0
C      1  0.4830320000000  0.3898450000000  0.5015630000000 1.0
C      1  0.5084740000000  0.5070750000000  0.4761390000000 1.0
C      1  0.5111460000000  0.5262090000000  0.5612130000000 1.0
C      1  0.5113680000000  0.3830160000000  0.5087600000000 1.0
C      1  0.5339130000000  0.6079020000000  0.5417000000000 1.0
C      1  0.4936960000000  0.5059190000000  0.5282960000000 1.0
C      1  0.4179170000000  0.4635220000000  0.4366480000000 1.0
C      1  0.5141560000000  0.4554040000000  0.4612970000000 1.0
C      1  0.4084500000000  0.5706650000000  0.4459680000000 1.0
C      1  0.5431840000000  0.4776500000000  0.4202800000000 1.0
C      1  0.5813600000000  0.5651070000000  0.4986980000000 1.0
C      1  0.5278960000000  0.3969720000000  0.5291380000000 1.0
C      1  0.5672030000000  0.5687570000000  0.5438840000000 1.0
C      1  0.5796750000000  0.4706930000000  0.4747830000000 1.0
C      1  0.5805700000000  0.4747320000000  0.5746150000000 1.0
C      1  0.4096470000000  0.5741600000000  0.5125520000000 1.0
C      1  0.5767990000000  0.5516990000000  0.4740560000000 1.0
C      1  0.5557170000000  0.4371580000000  0.4478720000000 1.0
C      1  0.4762240000000  0.5691100000000  0.4778060000000 1.0
C      1  0.5137020000000  0.4396950000000  0.5879300000000 1.0
END
