TITL C-862501-1041-805 -0.00567156145206473 125000 -1011.99626858532 0 0 167 (C1) n - 1
REM
REM in /home/nfs/bkarasulu/CARBON/AIRSS/Generating-Clusters/TERSOFF/Higher-Symm/FIRE-HFTN
REM
REM
REM
REM
REM
REM ./C.cell (b20cbc046b6831c77cfcea5457e17084)
REM AIRSS Version 0.9.1 bugfix July 2018 build 013d7b7c2542+ Fri, 06 Jul 2018 19:26:36 +0100
REM compiler GCC version 9.2.1 20190827 (Red Hat 9.2.1-1)
REM options -cpp -mtune=generic -march=x86-64 -g -O0 -fpre-include=/usr/include/finclude/math-vector-fortran.h
REM seed 1315789608 -1868147535 -1483632443 1017627159 322449695 -978862988 1354332161 -1657097498 1092495785 -1138929206 -1207676795 1383270353 1060931196 -54055167 -761667040 856192635 2133213711 1176290678 75820771 -1891389913 591590037 1480946922 -482971738 1177279332 -437302418 -1914538167 2061482719 168555557 2055760772 -469041984 -1450339707 -7808217 1341170850
REM
CELL 1.54180   50.00000   50.00000   50.00000   90.00000   90.00000   90.00000
LATT -1
SFAC C  
C      1  0.4881270000000  0.4654550000000  0.5121070000000 1.0
C      1  0.4642180000000  0.5062560000000  0.4884000000000 1.0
C      1  0.5096950000000  0.4935160000000  0.4732740000000 1.0
C      1  0.5086160000000  0.4682020000000  0.4926020000000 1.0
C      1  0.5098460000000  0.5333990000000  0.5121800000000 1.0
C      1  0.4963330000000  0.5356870000000  0.4862310000000 1.0
C      1  0.5408560000000  0.5228210000000  0.5107380000000 1.0
C      1  0.5305160000000  0.4930370000000  0.5001860000000 1.0
C      1  0.4626810000000  0.4842540000000  0.5063860000000 1.0
C      1  0.4817820000000  0.4908220000000  0.5313300000000 1.0
C      1  0.4876790000000  0.5120100000000  0.4733200000000 1.0
C      1  0.5441800000000  0.5129940000000  0.5407450000000 1.0
C      1  0.5161400000000  0.3981500000000  0.5315890000000 1.0
C      1  0.3977860000000  0.5319900000000  0.5143660000000 1.0
C      1  0.5315610000000  0.5156770000000  0.3998880000000 1.0
C      1  0.4837390000000  0.3986480000000  0.4676010000000 1.0
C      1  0.4838700000000  0.6011440000000  0.5321670000000 1.0
C      1  0.5158560000000  0.6011400000000  0.4679320000000 1.0
C      1  0.6023950000000  0.5319340000000  0.4833940000000 1.0
C      1  0.6018950000000  0.4671870000000  0.5143610000000 1.0
C      1  0.3966830000000  0.4670090000000  0.4834580000000 1.0
C      1  0.4694940000000  0.5153790000000  0.5973450000000 1.0
C      1  0.4680580000000  0.4839030000000  0.3999680000000 1.0
C      1  0.5332790000000  0.4834910000000  0.5994310000000 1.0
C      1  0.5127150000000  0.5574500000000  0.5827040000000 1.0
C      1  0.5578000000000  0.5836210000000  0.5133680000000 1.0
C      1  0.5860000000000  0.5130200000000  0.5579580000000 1.0
C      1  0.4880540000000  0.5567290000000  0.4173090000000 1.0
C      1  0.4875280000000  0.4422850000000  0.5822430000000 1.0
C      1  0.5121040000000  0.4436740000000  0.4187490000000 1.0
C      1  0.4418430000000  0.5837770000000  0.4862060000000 1.0
C      1  0.4410670000000  0.4148890000000  0.5120350000000 1.0
C      1  0.5580780000000  0.4155910000000  0.4872620000000 1.0
C      1  0.4146580000000  0.5123710000000  0.4409000000000 1.0
C      1  0.4153190000000  0.4868310000000  0.5569490000000 1.0
C      1  0.5821100000000  0.4871210000000  0.4434270000000 1.0
C      1  0.5729790000000  0.4648440000000  0.5697710000000 1.0
C      1  0.4653470000000  0.5691370000000  0.5707940000000 1.0
C      1  0.5710950000000  0.5727740000000  0.4650980000000 1.0
C      1  0.4265230000000  0.4642640000000  0.4282940000000 1.0
C      1  0.4296760000000  0.5338850000000  0.5680020000000 1.0
C      1  0.5733110000000  0.5354280000000  0.4291520000000 1.0
C      1  0.5355900000000  0.5707650000000  0.4280780000000 1.0
C      1  0.5358160000000  0.4284900000000  0.5726010000000 1.0
C      1  0.4641170000000  0.4291670000000  0.4271130000000 1.0
C      1  0.4288330000000  0.5721680000000  0.5341270000000 1.0
C      1  0.4276290000000  0.4264540000000  0.4639920000000 1.0
C      1  0.5716020000000  0.4272980000000  0.5347900000000 1.0
C      1  0.4205920000000  0.5772640000000  0.5064400000000 1.0
C      1  0.5768550000000  0.5073090000000  0.4217700000000 1.0
C      1  0.5076980000000  0.4208580000000  0.5765030000000 1.0
C      1  0.5788530000000  0.5768360000000  0.4929160000000 1.0
C      1  0.5796990000000  0.4218260000000  0.5072330000000 1.0
C      1  0.4197570000000  0.4218530000000  0.4918790000000 1.0
C      1  0.4231220000000  0.5072530000000  0.5774160000000 1.0
C      1  0.4217140000000  0.4920280000000  0.4198810000000 1.0
C      1  0.5784320000000  0.4923470000000  0.5784030000000 1.0
C      1  0.4920810000000  0.4218570000000  0.4232790000000 1.0
C      1  0.4923660000000  0.5781560000000  0.5765260000000 1.0
C      1  0.5079570000000  0.5784750000000  0.4229670000000 1.0
C      1  0.5471720000000  0.4122360000000  0.4377530000000 1.0
C      1  0.4115030000000  0.4368970000000  0.5473690000000 1.0
C      1  0.4381240000000  0.5471060000000  0.4116320000000 1.0
C      1  0.4522090000000  0.4117870000000  0.5616010000000 1.0
C      1  0.4524720000000  0.5874540000000  0.4368560000000 1.0
C      1  0.5480120000000  0.5882480000000  0.5628880000000 1.0
C      1  0.5876770000000  0.4370500000000  0.4520930000000 1.0
C      1  0.5885680000000  0.5628180000000  0.5481480000000 1.0
C      1  0.4118350000000  0.5623990000000  0.4510540000000 1.0
C      1  0.5625560000000  0.5475940000000  0.5878160000000 1.0
C      1  0.5617040000000  0.4524400000000  0.4128260000000 1.0
C      1  0.4378240000000  0.4521130000000  0.5869530000000 1.0
C      1  0.5300310000000  0.5619430000000  0.4777430000000 1.0
C      1  0.5631170000000  0.4777820000000  0.5278940000000 1.0
C      1  0.4793020000000  0.5276720000000  0.5559080000000 1.0
C      1  0.4688040000000  0.5625940000000  0.5214390000000 1.0
C      1  0.4683510000000  0.4367280000000  0.4763740000000 1.0
C      1  0.5316820000000  0.4363730000000  0.5237980000000 1.0
C      1  0.4352680000000  0.4756940000000  0.4693700000000 1.0
C      1  0.4368130000000  0.5226020000000  0.5267110000000 1.0
C      1  0.5632840000000  0.5240910000000  0.4702550000000 1.0
C      1  0.5247520000000  0.5299450000000  0.4387940000000 1.0
C      1  0.5238940000000  0.4694400000000  0.5609550000000 1.0
C      1  0.4750960000000  0.4702100000000  0.4391470000000 1.0
C      1  0.5821350000000  0.5415520000000  0.5665130000000 1.0
C      1  0.5413160000000  0.5664340000000  0.5815140000000 1.0
C      1  0.5667510000000  0.5818080000000  0.5417240000000 1.0
C      1  0.4182870000000  0.5410110000000  0.4326160000000 1.0
C      1  0.4182460000000  0.4583100000000  0.5656840000000 1.0
C      1  0.5804910000000  0.4587520000000  0.4344270000000 1.0
C      1  0.4594110000000  0.5654230000000  0.4186180000000 1.0
C      1  0.4589380000000  0.4336640000000  0.5801420000000 1.0
C      1  0.5404070000000  0.4345290000000  0.4197900000000 1.0
C      1  0.4335560000000  0.5812730000000  0.4577100000000 1.0
C      1  0.4330050000000  0.4177130000000  0.5407270000000 1.0
C      1  0.5662420000000  0.4179550000000  0.4586920000000 1.0
C      1  0.3915960000000  0.5582690000000  0.4707070000000 1.0
C      1  0.5574970000000  0.4721090000000  0.3926900000000 1.0
C      1  0.4721310000000  0.3918550000000  0.5571370000000 1.0
C      1  0.6082500000000  0.5578430000000  0.5280060000000 1.0
C      1  0.6083680000000  0.4407120000000  0.4712570000000 1.0
C      1  0.3912640000000  0.4412950000000  0.5277330000000 1.0
C      1  0.4429080000000  0.4721980000000  0.6065450000000 1.0
C      1  0.4425470000000  0.5273870000000  0.3916170000000 1.0
C      1  0.5580680000000  0.5274560000000  0.6074680000000 1.0
C      1  0.5273700000000  0.3921620000000  0.4417670000000 1.0
C      1  0.5277920000000  0.6079330000000  0.5580970000000 1.0
C      1  0.4722060000000  0.6075510000000  0.4414680000000 1.0
C      1  0.5424280000000  0.5804840000000  0.4564440000000 1.0
C      1  0.5809410000000  0.4559380000000  0.5413940000000 1.0
C      1  0.4585570000000  0.5398860000000  0.5757000000000 1.0
C      1  0.4574730000000  0.5803200000000  0.5434070000000 1.0
C      1  0.4563650000000  0.4185240000000  0.4549840000000 1.0
C      1  0.5434900000000  0.4177650000000  0.5446730000000 1.0
C      1  0.4171700000000  0.4545890000000  0.4564790000000 1.0
C      1  0.4192790000000  0.5438040000000  0.5407370000000 1.0
C      1  0.5817690000000  0.5446960000000  0.4573690000000 1.0
C      1  0.5449590000000  0.5426200000000  0.4196600000000 1.0
C      1  0.5447500000000  0.4573850000000  0.5798430000000 1.0
C      1  0.4552690000000  0.4576420000000  0.4196300000000 1.0
C      1  0.5274890000000  0.5769910000000  0.5061720000000 1.0
C      1  0.5829050000000  0.5053090000000  0.5265360000000 1.0
C      1  0.5065080000000  0.5268280000000  0.5733090000000 1.0
C      1  0.4716130000000  0.5773810000000  0.4945990000000 1.0
C      1  0.4709270000000  0.4215410000000  0.5039230000000 1.0
C      1  0.5287330000000  0.4234970000000  0.4957130000000 1.0
C      1  0.4206200000000  0.5041150000000  0.4706910000000 1.0
C      1  0.4205910000000  0.4945380000000  0.5265470000000 1.0
C      1  0.5749940000000  0.4955860000000  0.4731510000000 1.0
C      1  0.4961970000000  0.5274490000000  0.4264290000000 1.0
C      1  0.4954620000000  0.4718520000000  0.5744810000000 1.0
C      1  0.5039100000000  0.4733230000000  0.4275480000000 1.0
C      1  0.4784770000000  0.5181060000000  0.4468490000000 1.0
C      1  0.5184820000000  0.4449400000000  0.4798980000000 1.0
C      1  0.4374090000000  0.4748640000000  0.5138120000000 1.0
C      1  0.5349940000000  0.5269510000000  0.5633620000000 1.0
C      1  0.5206400000000  0.4851440000000  0.4481240000000 1.0
C      1  0.4753770000000  0.4842470000000  0.5576590000000 1.0
C      1  0.4823380000000  0.4401840000000  0.5224110000000 1.0
C      1  0.4861220000000  0.5599820000000  0.4768950000000 1.0
C      1  0.5148080000000  0.5586050000000  0.5254290000000 1.0
C      1  0.5544920000000  0.4799550000000  0.4868610000000 1.0
C      1  0.5699790000000  0.5285180000000  0.5114680000000 1.0
C      1  0.4410380000000  0.5206130000000  0.4822240000000 1.0
C      1  0.4996490000000  0.3991630000000  0.5573450000000 1.0
C      1  0.3987480000000  0.5581530000000  0.4982390000000 1.0
C      1  0.5575910000000  0.4995220000000  0.4000910000000 1.0
C      1  0.4999350000000  0.3996180000000  0.4417750000000 1.0
C      1  0.5002830000000  0.6003430000000  0.5579780000000 1.0
C      1  0.4997110000000  0.6003250000000  0.4418260000000 1.0
C      1  0.6005860000000  0.5576670000000  0.5006350000000 1.0
C      1  0.6015430000000  0.4408550000000  0.4988300000000 1.0
C      1  0.3981980000000  0.4411630000000  0.5001430000000 1.0
C      1  0.4431020000000  0.4994730000000  0.5986510000000 1.0
C      1  0.4420140000000  0.4999620000000  0.3989560000000 1.0
C      1  0.5587770000000  0.5000720000000  0.5998600000000 1.0
C      1  0.4001900000000  0.4996790000000  0.4984560000000 1.0
C      1  0.4997600000000  0.4999080000000  0.4062010000000 1.0
C      1  0.5004230000000  0.4026710000000  0.4993800000000 1.0
C      1  0.5988710000000  0.4987660000000  0.4971410000000 1.0
C      1  0.5015040000000  0.4991920000000  0.5934830000000 1.0
C      1  0.4998970000000  0.5976210000000  0.5000700000000 1.0
C      1  0.4672090000000  0.5321640000000  0.5272470000000 1.0
C      1  0.5340470000000  0.5321800000000  0.4682340000000 1.0
C      1  0.5330380000000  0.4660560000000  0.5318520000000 1.0
C      1  0.4655420000000  0.4670040000000  0.4682380000000 1.0
C      1  0.5062280000000  0.5042560000000  0.5250860000000 1.0
END
