TITL C-862131-2149-1120 0.000117296636646289 125000 -321.448975686554 0 0 60 (Ci) n - 1
REM
REM in /home/nfs/bkarasulu/CARBON/AIRSS/Generating-Clusters/TERSOFF/Higher-Symm/FIRE-HFTN
REM
REM
REM
REM
REM
REM ./C.cell (b20cbc046b6831c77cfcea5457e17084)
REM AIRSS Version 0.9.1 bugfix July 2018 build 013d7b7c2542+ Fri, 06 Jul 2018 19:26:36 +0100
REM compiler GCC version 9.2.1 20190827 (Red Hat 9.2.1-1)
REM options -cpp -mtune=generic -march=x86-64 -g -O0 -fpre-include=/usr/include/finclude/math-vector-fortran.h
REM seed -1550073649 1420248172 -1361623553 -2044879361 2018423196 571950429 1341428645 1856119218 272183034 -18463297 -1489702198 -11500800 39611302 -114919016 -2015092989 237351475 -1454230524 -1352976513 1871266124 1945053660 1689953163 1284918371 -970540265 383789430 419653515 833002188 -1064360632 791494324 57694861 -441303543 1412574443 678341989 -646689285
REM
CELL 1.54180   50.00000   50.00000   50.00000   90.00000   90.00000   90.00000
LATT -1
SFAC C  
C      1  0.5022020000000  0.4920030000000  0.4604620000000 1.0
C      1  0.4977980000000  0.5079970000000  0.5395380000000 1.0
C      1  0.5477200000000  0.5389730000000  0.5036520000000 1.0
C      1  0.4522800000000  0.4610270000000  0.4963480000000 1.0
C      1  0.4760370000000  0.4635710000000  0.4361930000000 1.0
C      1  0.5239630000000  0.5364290000000  0.5638070000000 1.0
C      1  0.4736070000000  0.5209590000000  0.4361340000000 1.0
C      1  0.5263930000000  0.4790410000000  0.5638660000000 1.0
C      1  0.4706070000000  0.4244240000000  0.5094510000000 1.0
C      1  0.5293930000000  0.5755760000000  0.4905490000000 1.0
C      1  0.5109580000000  0.5616510000000  0.5444640000000 1.0
C      1  0.4890420000000  0.4383490000000  0.4555360000000 1.0
C      1  0.4782290000000  0.5519690000000  0.5327610000000 1.0
C      1  0.5217710000000  0.4480310000000  0.4672390000000 1.0
C      1  0.5008480000000  0.5681870000000  0.4899940000000 1.0
C      1  0.4991520000000  0.4318130000000  0.5100060000000 1.0
C      1  0.4336820000000  0.5000740000000  0.4962770000000 1.0
C      1  0.5663180000000  0.4999260000000  0.5037230000000 1.0
C      1  0.5515120000000  0.4934830000000  0.4763450000000 1.0
C      1  0.4484880000000  0.5065170000000  0.5236550000000 1.0
C      1  0.5200770000000  0.4841770000000  0.5025610000000 1.0
C      1  0.4799230000000  0.5158230000000  0.4974390000000 1.0
C      1  0.5067520000000  0.4389330000000  0.5376170000000 1.0
C      1  0.4932480000000  0.5610670000000  0.4623830000000 1.0
C      1  0.4691870000000  0.4842890000000  0.5121800000000 1.0
C      1  0.5308130000000  0.5157110000000  0.4878200000000 1.0
C      1  0.4861550000000  0.5037940000000  0.5673780000000 1.0
C      1  0.5138450000000  0.4962060000000  0.4326220000000 1.0
C      1  0.4576870000000  0.5320980000000  0.4835500000000 1.0
C      1  0.5423130000000  0.4679020000000  0.5164500000000 1.0
C      1  0.5380820000000  0.4282870000000  0.4841990000000 1.0
C      1  0.4619180000000  0.5717130000000  0.5158010000000 1.0
C      1  0.5025650000000  0.5153910000000  0.4763560000000 1.0
C      1  0.4974350000000  0.4846090000000  0.5236440000000 1.0
C      1  0.4820800000000  0.5876060000000  0.5021340000000 1.0
C      1  0.5179200000000  0.4123940000000  0.4978660000000 1.0
C      1  0.5348280000000  0.5636370000000  0.5188780000000 1.0
C      1  0.4651720000000  0.4363630000000  0.4811220000000 1.0
C      1  0.5160000000000  0.5060680000000  0.5773150000000 1.0
C      1  0.4840000000000  0.4939320000000  0.4226850000000 1.0
C      1  0.4501260000000  0.5203630000000  0.4551160000000 1.0
C      1  0.5498740000000  0.4796370000000  0.5448840000000 1.0
C      1  0.4695400000000  0.4786440000000  0.5648910000000 1.0
C      1  0.5304600000000  0.5213560000000  0.4351090000000 1.0
C      1  0.5405890000000  0.4706780000000  0.4581140000000 1.0
C      1  0.4594110000000  0.5293220000000  0.5418860000000 1.0
C      1  0.5421450000000  0.5618950000000  0.4669340000000 1.0
C      1  0.4578550000000  0.4381050000000  0.5330660000000 1.0
C      1  0.4947200000000  0.5339430000000  0.4538470000000 1.0
C      1  0.5052800000000  0.4660570000000  0.5461530000000 1.0
C      1  0.4763990000000  0.4768170000000  0.4658590000000 1.0
C      1  0.5236010000000  0.5231830000000  0.5341410000000 1.0
C      1  0.4623280000000  0.4669580000000  0.5384640000000 1.0
C      1  0.5376720000000  0.5330420000000  0.4615360000000 1.0
C      1  0.4484070000000  0.4934880000000  0.4699990000000 1.0
C      1  0.5515930000000  0.5065120000000  0.5300010000000 1.0
C      1  0.5001020000000  0.4612210000000  0.4888650000000 1.0
C      1  0.4998980000000  0.5387790000000  0.5111350000000 1.0
C      1  0.5537400000000  0.4440530000000  0.5039360000000 1.0
C      1  0.4462600000000  0.5559470000000  0.4960640000000 1.0
END
