TITL C-862130-1496-1362 -30.4104640435961 125000 -431.269308216592 0 0 90 (C1) n - 1
REM
REM in /home/nfs/bkarasulu/CARBON/AIRSS/Generating-Clusters/TERSOFF/Higher-Symm/FIRE-HFTN
REM
REM
REM
REM
REM
REM ./C.cell (b20cbc046b6831c77cfcea5457e17084)
REM AIRSS Version 0.9.1 bugfix July 2018 build 013d7b7c2542+ Fri, 06 Jul 2018 19:26:36 +0100
REM compiler GCC version 9.2.1 20190827 (Red Hat 9.2.1-1)
REM options -cpp -mtune=generic -march=x86-64 -g -O0 -fpre-include=/usr/include/finclude/math-vector-fortran.h
REM seed 354027687 1919566622 1202850303 937329504 -343181869 -1375886303 -2033260800 942722524 -1326147215 -1201243329 704875350 -1544282576 893202105 -200370059 -380514353 -875309116 -209388525 -1977363217 -715604495 -1636654134 611164896 489373480 -1675850826 426982460 1653496136 -789242012 1673219921 848287772 523310507 523178744 615838468 2054661771 1815569106
REM
CELL 1.54180   50.00000   50.00000   50.00000   90.00000   90.00000   90.00000
LATT -1
SFAC C  
C      1  0.5291220000000  0.5634980000000  0.5241890000000 1.0
C      1  0.5037760000000  0.5731700000000  0.5388490000000 1.0
C      1  0.4757950000000  0.5631980000000  0.5308460000000 1.0
C      1  0.4599640000000  0.5633230000000  0.4983880000000 1.0
C      1  0.4764870000000  0.5629980000000  0.4669130000000 1.0
C      1  0.5122530000000  0.5640110000000  0.4624980000000 1.0
C      1  0.5366840000000  0.5630320000000  0.4889070000000 1.0
C      1  0.5055730000000  0.4858530000000  0.5294890000000 1.0
C      1  0.4800780000000  0.4745440000000  0.5196290000000 1.0
C      1  0.4638030000000  0.4913580000000  0.4992430000000 1.0
C      1  0.4745410000000  0.4963790000000  0.4694220000000 1.0
C      1  0.5053650000000  0.4872790000000  0.4755550000000 1.0
C      1  0.5345880000000  0.4922190000000  0.4879980000000 1.0
C      1  0.5285290000000  0.4750080000000  0.5128670000000 1.0
C      1  0.4334240000000  0.5326050000000  0.5316270000000 1.0
C      1  0.4343900000000  0.5313840000000  0.4665870000000 1.0
C      1  0.4811930000000  0.5312850000000  0.4258540000000 1.0
C      1  0.5472520000000  0.5323670000000  0.4397620000000 1.0
C      1  0.5777680000000  0.5325740000000  0.4992880000000 1.0
C      1  0.5483190000000  0.5314500000000  0.5604370000000 1.0
C      1  0.4850950000000  0.5313560000000  0.5722730000000 1.0
C      1  0.4497750000000  0.5058170000000  0.4371000000000 1.0
C      1  0.5154720000000  0.5073090000000  0.4287260000000 1.0
C      1  0.5675080000000  0.5077450000000  0.4670490000000 1.0
C      1  0.5653700000000  0.5074800000000  0.5305410000000 1.0
C      1  0.5187950000000  0.5068300000000  0.5772940000000 1.0
C      1  0.4547070000000  0.5068200000000  0.5569780000000 1.0
C      1  0.4243510000000  0.5072830000000  0.4993980000000 1.0
C      1  0.5337770000000  0.4061180000000  0.5169590000000 1.0
C      1  0.5084450000000  0.4024380000000  0.5354490000000 1.0
C      1  0.4777410000000  0.4065750000000  0.5293930000000 1.0
C      1  0.4644250000000  0.3946870000000  0.5042210000000 1.0
C      1  0.4785330000000  0.3941320000000  0.4762940000000 1.0
C      1  0.5092320000000  0.3945710000000  0.4695600000000 1.0
C      1  0.5340790000000  0.3942290000000  0.4887240000000 1.0
C      1  0.5210940000000  0.5782650000000  0.4383650000000 1.0
C      1  0.5612400000000  0.5781240000000  0.4825230000000 1.0
C      1  0.5523010000000  0.5777570000000  0.5368940000000 1.0
C      1  0.5063900000000  0.5921630000000  0.5607530000000 1.0
C      1  0.4554990000000  0.5777450000000  0.5476770000000 1.0
C      1  0.4352080000000  0.5795010000000  0.4980960000000 1.0
C      1  0.4619640000000  0.5778260000000  0.4459700000000 1.0
C      1  0.4624380000000  0.4528390000000  0.4534220000000 1.0
C      1  0.5125410000000  0.4540930000000  0.4453460000000 1.0
C      1  0.5536440000000  0.4538700000000  0.4753860000000 1.0
C      1  0.5615380000000  0.4550230000000  0.5294030000000 1.0
C      1  0.5134470000000  0.4533340000000  0.5546630000000 1.0
C      1  0.4592470000000  0.4553730000000  0.5506480000000 1.0
C      1  0.4406610000000  0.4530050000000  0.4997660000000 1.0
C      1  0.4395900000000  0.4671260000000  0.5277640000000 1.0
C      1  0.4430610000000  0.4666520000000  0.4723810000000 1.0
C      1  0.4859230000000  0.4675550000000  0.4410780000000 1.0
C      1  0.5375590000000  0.4681790000000  0.4537240000000 1.0
C      1  0.5676150000000  0.4673080000000  0.4996550000000 1.0
C      1  0.5417980000000  0.4667970000000  0.5518410000000 1.0
C      1  0.4864890000000  0.4674670000000  0.5623150000000 1.0
C      1  0.5691490000000  0.5403780000000  0.4658890000000 1.0
C      1  0.5688710000000  0.5394460000000  0.5323000000000 1.0
C      1  0.5181630000000  0.5402510000000  0.5736140000000 1.0
C      1  0.4516730000000  0.5384930000000  0.5620940000000 1.0
C      1  0.4219640000000  0.5396490000000  0.4984640000000 1.0
C      1  0.4499630000000  0.5385560000000  0.4371550000000 1.0
C      1  0.5161660000000  0.5395170000000  0.4229270000000 1.0
C      1  0.5747910000000  0.4969010000000  0.4984870000000 1.0
C      1  0.5451630000000  0.4963440000000  0.5581790000000 1.0
C      1  0.4863350000000  0.4965460000000  0.5704370000000 1.0
C      1  0.4351840000000  0.4970300000000  0.5293740000000 1.0
C      1  0.4328500000000  0.4953340000000  0.4672310000000 1.0
C      1  0.4832140000000  0.4954010000000  0.4285720000000 1.0
C      1  0.5423690000000  0.4971290000000  0.4468220000000 1.0
C      1  0.5056480000000  0.5163700000000  0.5388650000000 1.0
C      1  0.4780620000000  0.5309160000000  0.5308860000000 1.0
C      1  0.4613040000000  0.5271780000000  0.5007140000000 1.0
C      1  0.4769300000000  0.5292330000000  0.4675270000000 1.0
C      1  0.5127730000000  0.5321140000000  0.4634340000000 1.0
C      1  0.5375150000000  0.5266830000000  0.4893330000000 1.0
C      1  0.5287440000000  0.5318230000000  0.5233700000000 1.0
C      1  0.5075420000000  0.4360690000000  0.5300550000000 1.0
C      1  0.4726380000000  0.4400510000000  0.5273370000000 1.0
C      1  0.4594330000000  0.4277830000000  0.4981080000000 1.0
C      1  0.4748630000000  0.4257920000000  0.4657140000000 1.0
C      1  0.5101040000000  0.4255330000000  0.4574050000000 1.0
C      1  0.5380450000000  0.4268490000000  0.4803890000000 1.0
C      1  0.5387790000000  0.4402090000000  0.5140240000000 1.0
C      1  0.5203130000000  0.5989000000000  0.5033790000000 1.0
C      1  0.4989530000000  0.5484900000000  0.4991650000000 1.0
C      1  0.4921360000000  0.4603990000000  0.4819900000000 1.0
C      1  0.4979870000000  0.5811130000000  0.4980520000000 1.0
C      1  0.5008940000000  0.4374830000000  0.4965240000000 1.0
C      1  0.4997270000000  0.5130350000000  0.4981590000000 1.0
END
