TITL C-862130-1496-725 -0.00107593413233743 125000 -250.294735280788 0 0 48 (D2) n - 1
REM
REM in /home/nfs/bkarasulu/CARBON/AIRSS/Generating-Clusters/TERSOFF/Higher-Symm/FIRE-HFTN
REM
REM
REM
REM
REM
REM ./C.cell (b20cbc046b6831c77cfcea5457e17084)
REM AIRSS Version 0.9.1 bugfix July 2018 build 013d7b7c2542+ Fri, 06 Jul 2018 19:26:36 +0100
REM compiler GCC version 9.2.1 20190827 (Red Hat 9.2.1-1)
REM options -cpp -mtune=generic -march=x86-64 -g -O0 -fpre-include=/usr/include/finclude/math-vector-fortran.h
REM seed 1091844448 -1437315926 114340764 1835178650 1782935597 1842064871 -1894996461 1356422260 -169991712 -1523796696 -1993300820 -1541972759 2073294122 685601343 -1083033498 -1969859704 1471328755 -312307409 -1811531270 -1630326157 1978539027 126073219 -1086984461 937555853 72641009 2103143251 1018672680 997481748 -1214561950 -567760353 -21669317 -1045507045 702560076
REM
CELL 1.54180   50.00000   50.00000   50.00000   90.00000   90.00000   90.00000
LATT -1
SFAC C  
C      1  0.4984860000000  0.4734070000000  0.5715200000000 1.0
C      1  0.4984860000000  0.5265930000000  0.4284800000000 1.0
C      1  0.5015140000000  0.5265930000000  0.5715200000000 1.0
C      1  0.5015140000000  0.4734070000000  0.4284800000000 1.0
C      1  0.5201490000000  0.5417960000000  0.5548750000000 1.0
C      1  0.5201490000000  0.4582040000000  0.4451250000000 1.0
C      1  0.4798510000000  0.4582040000000  0.5548750000000 1.0
C      1  0.4798510000000  0.5417960000000  0.4451250000000 1.0
C      1  0.5201310000000  0.5418280000000  0.5059610000000 1.0
C      1  0.5201310000000  0.4581720000000  0.4940390000000 1.0
C      1  0.4798690000000  0.4581720000000  0.5059610000000 1.0
C      1  0.4798690000000  0.5418280000000  0.4940390000000 1.0
C      1  0.4991240000000  0.5161620000000  0.5208950000000 1.0
C      1  0.4991240000000  0.4838380000000  0.4791050000000 1.0
C      1  0.5008760000000  0.4838380000000  0.5208950000000 1.0
C      1  0.5008760000000  0.5161620000000  0.4791050000000 1.0
C      1  0.4422140000000  0.5114310000000  0.4823930000000 1.0
C      1  0.4422140000000  0.4885690000000  0.5176070000000 1.0
C      1  0.5577860000000  0.4885690000000  0.4823930000000 1.0
C      1  0.5577860000000  0.5114310000000  0.5176070000000 1.0
C      1  0.5527200000000  0.5192470000000  0.4832950000000 1.0
C      1  0.5527200000000  0.4807530000000  0.5167050000000 1.0
C      1  0.4472800000000  0.4807530000000  0.4832950000000 1.0
C      1  0.4472800000000  0.5192470000000  0.5167050000000 1.0
C      1  0.5273490000000  0.5238400000000  0.4678560000000 1.0
C      1  0.5273490000000  0.4761600000000  0.5321440000000 1.0
C      1  0.4726510000000  0.4761600000000  0.4678560000000 1.0
C      1  0.4726510000000  0.5238400000000  0.5321440000000 1.0
C      1  0.4506310000000  0.4693560000000  0.5430780000000 1.0
C      1  0.4506310000000  0.5306440000000  0.4569220000000 1.0
C      1  0.5493690000000  0.5306440000000  0.5430780000000 1.0
C      1  0.5493690000000  0.4693560000000  0.4569220000000 1.0
C      1  0.4743110000000  0.5236280000000  0.5614040000000 1.0
C      1  0.4743110000000  0.4763720000000  0.4385960000000 1.0
C      1  0.5256890000000  0.4763720000000  0.5614040000000 1.0
C      1  0.5256890000000  0.5236280000000  0.4385960000000 1.0
C      1  0.4854990000000  0.4384500000000  0.4809620000000 1.0
C      1  0.4854990000000  0.5615500000000  0.5190380000000 1.0
C      1  0.5145010000000  0.5615500000000  0.4809620000000 1.0
C      1  0.5145010000000  0.4384500000000  0.5190380000000 1.0
C      1  0.4920030000000  0.4357100000000  0.5392980000000 1.0
C      1  0.4920030000000  0.5642900000000  0.4607020000000 1.0
C      1  0.5079970000000  0.5642900000000  0.5392980000000 1.0
C      1  0.5079970000000  0.4357100000000  0.4607020000000 1.0
C      1  0.4567560000000  0.5506640000000  0.4790270000000 1.0
C      1  0.4567560000000  0.4493360000000  0.5209730000000 1.0
C      1  0.5432440000000  0.4493360000000  0.4790270000000 1.0
C      1  0.5432440000000  0.5506640000000  0.5209730000000 1.0
END
