TITL C-862129-6180-1240 -3.8244897350728 125000 -1162.0582363498 0 0 198 (C1) n - 1
REM
REM in /home/nfs/bkarasulu/CARBON/AIRSS/Generating-Clusters/TERSOFF/Higher-Symm/FIRE-HFTN
REM
REM
REM
REM
REM
REM ./C.cell (b20cbc046b6831c77cfcea5457e17084)
REM AIRSS Version 0.9.1 bugfix July 2018 build 013d7b7c2542+ Fri, 06 Jul 2018 19:26:36 +0100
REM compiler GCC version 9.2.1 20190827 (Red Hat 9.2.1-1)
REM options -cpp -mtune=generic -march=x86-64 -g -O0 -fpre-include=/usr/include/finclude/math-vector-fortran.h
REM seed 695978916 -96607267 -119400592 -975847933 1268698019 2067184967 -2027008971 -1481586429 -560239288 -958889662 -1051683540 1861825985 263555095 4516989 171919600 785592934 2011666351 2042289999 -1858604392 424656069 769961148 272319761 2061252199 -1863723213 -1888164450 -26282931 -1412271884 -2103875163 -2118882779 1541147163 1737868089 -838931333 1590915723
REM
CELL 1.54180   50.00000   50.00000   50.00000   90.00000   90.00000   90.00000
LATT -1
SFAC C  
C      1  0.4410720000000  0.4540240000000  0.4479900000000 1.0
C      1  0.4835990000000  0.4576220000000  0.5790160000000 1.0
C      1  0.5755520000000  0.4550330000000  0.4740880000000 1.0
C      1  0.4775790000000  0.5516870000000  0.5536670000000 1.0
C      1  0.5571680000000  0.5513870000000  0.4927440000000 1.0
C      1  0.4653280000000  0.5516750000000  0.4540500000000 1.0
C      1  0.5392410000000  0.5272060000000  0.5281120000000 1.0
C      1  0.5040440000000  0.5271500000000  0.4517010000000 1.0
C      1  0.4556450000000  0.5270950000000  0.5202310000000 1.0
C      1  0.5951220000000  0.4873100000000  0.4411220000000 1.0
C      1  0.4026600000000  0.4871030000000  0.4476630000000 1.0
C      1  0.5030140000000  0.4878960000000  0.6128680000000 1.0
C      1  0.5241880000000  0.6160160000000  0.4780260000000 1.0
C      1  0.4689780000000  0.6162040000000  0.4901490000000 1.0
C      1  0.5071640000000  0.6160580000000  0.5319490000000 1.0
C      1  0.5728540000000  0.4895040000000  0.4190580000000 1.0
C      1  0.3946590000000  0.4892450000000  0.4777260000000 1.0
C      1  0.5331170000000  0.4895550000000  0.6037800000000 1.0
C      1  0.6180780000000  0.4952760000000  0.5007850000000 1.0
C      1  0.4414540000000  0.4955970000000  0.3973530000000 1.0
C      1  0.4395310000000  0.4968380000000  0.6032390000000 1.0
C      1  0.6186380000000  0.5414630000000  0.5085300000000 1.0
C      1  0.4478560000000  0.5418040000000  0.3930390000000 1.0
C      1  0.4333220000000  0.5430440000000  0.5990870000000 1.0
C      1  0.4790210000000  0.4577040000000  0.5008030000000 1.0
C      1  0.5102010000000  0.4587700000000  0.5175850000000 1.0
C      1  0.5099220000000  0.4585430000000  0.4816560000000 1.0
C      1  0.5681530000000  0.5312990000000  0.5277370000000 1.0
C      1  0.4897060000000  0.5315640000000  0.4266670000000 1.0
C      1  0.4416220000000  0.5319790000000  0.5453930000000 1.0
C      1  0.5340590000000  0.5259690000000  0.4053410000000 1.0
C      1  0.4009420000000  0.5262360000000  0.5179970000000 1.0
C      1  0.5646380000000  0.5254490000000  0.5767850000000 1.0
C      1  0.5483870000000  0.4652200000000  0.5918290000000 1.0
C      1  0.5549810000000  0.4655600000000  0.4111030000000 1.0
C      1  0.3967290000000  0.4653150000000  0.4974480000000 1.0
C      1  0.4747900000000  0.6173740000000  0.5207230000000 1.0
C      1  0.5307030000000  0.6172020000000  0.5116440000000 1.0
C      1  0.4948460000000  0.6173880000000  0.4677270000000 1.0
C      1  0.5279690000000  0.5416670000000  0.4557130000000 1.0
C      1  0.4474520000000  0.5419340000000  0.4976630000000 1.0
C      1  0.5242340000000  0.5417710000000  0.5471620000000 1.0
C      1  0.4158730000000  0.4275750000000  0.5148660000000 1.0
C      1  0.5540510000000  0.4291090000000  0.5673520000000 1.0
C      1  0.5310960000000  0.4300880000000  0.4159370000000 1.0
C      1  0.4586370000000  0.4222820000000  0.3930960000000 1.0
C      1  0.4268290000000  0.4222520000000  0.5899820000000 1.0
C      1  0.6121960000000  0.4216450000000  0.5190860000000 1.0
C      1  0.4113030000000  0.4350810000000  0.4860220000000 1.0
C      1  0.5308550000000  0.4375420000000  0.5850400000000 1.0
C      1  0.5575010000000  0.4375350000000  0.4292000000000 1.0
C      1  0.5622860000000  0.5661350000000  0.4238230000000 1.0
C      1  0.4029430000000  0.5662360000000  0.4842760000000 1.0
C      1  0.5351840000000  0.5661960000000  0.5920960000000 1.0
C      1  0.5506570000000  0.5941440000000  0.5181100000000 1.0
C      1  0.4903550000000  0.5945090000000  0.4469830000000 1.0
C      1  0.4591270000000  0.5944610000000  0.5348570000000 1.0
C      1  0.4392180000000  0.4155540000000  0.5652340000000 1.0
C      1  0.5852760000000  0.4134870000000  0.5225590000000 1.0
C      1  0.4765630000000  0.4135690000000  0.4131210000000 1.0
C      1  0.4338150000000  0.4663710000000  0.4004060000000 1.0
C      1  0.4451290000000  0.4672770000000  0.6082350000000 1.0
C      1  0.6197170000000  0.4658600000000  0.4932110000000 1.0
C      1  0.5062840000000  0.5852470000000  0.5343580000000 1.0
C      1  0.5264570000000  0.5852020000000  0.4775440000000 1.0
C      1  0.4673850000000  0.5854120000000  0.4882860000000 1.0
C      1  0.5773220000000  0.3932600000000  0.5416400000000 1.0
C      1  0.4972220000000  0.3944660000000  0.4072230000000 1.0
C      1  0.4311570000000  0.3933790000000  0.5482650000000 1.0
C      1  0.5891180000000  0.4869340000000  0.5127530000000 1.0
C      1  0.4667570000000  0.4870030000000  0.4162490000000 1.0
C      1  0.4434730000000  0.4890920000000  0.5724020000000 1.0
C      1  0.5575180000000  0.4003450000000  0.5614840000000 1.0
C      1  0.5245130000000  0.4012600000000  0.4132290000000 1.0
C      1  0.4235340000000  0.3996060000000  0.5209690000000 1.0
C      1  0.5532890000000  0.4456830000000  0.4582250000000 1.0
C      1  0.4390640000000  0.4419310000000  0.4743050000000 1.0
C      1  0.5080300000000  0.4469490000000  0.5671700000000 1.0
C      1  0.5116310000000  0.5833620000000  0.5834690000000 1.0
C      1  0.5666060000000  0.5831240000000  0.4486010000000 1.0
C      1  0.4222140000000  0.5832870000000  0.4681240000000 1.0
C      1  0.4270630000000  0.5074060000000  0.5551510000000 1.0
C      1  0.5831080000000  0.5060450000000  0.5354990000000 1.0
C      1  0.4891270000000  0.5064660000000  0.4097120000000 1.0
C      1  0.4299240000000  0.5812810000000  0.5267690000000 1.0
C      1  0.5583990000000  0.5808720000000  0.5473640000000 1.0
C      1  0.5118870000000  0.5810120000000  0.4258070000000 1.0
C      1  0.5235410000000  0.5696310000000  0.4535670000000 1.0
C      1  0.4479860000000  0.5698610000000  0.5026990000000 1.0
C      1  0.5284140000000  0.5696950000000  0.5440160000000 1.0
C      1  0.4327110000000  0.3846820000000  0.4963550000000 1.0
C      1  0.5313180000000  0.3859830000000  0.5645120000000 1.0
C      1  0.5401610000000  0.3858690000000  0.4332100000000 1.0
C      1  0.4084610000000  0.5596090000000  0.5124500000000 1.0
C      1  0.5567280000000  0.5592010000000  0.5731770000000 1.0
C      1  0.5351260000000  0.5593820000000  0.4145390000000 1.0
C      1  0.5653540000000  0.4365120000000  0.5201870000000 1.0
C      1  0.4852040000000  0.4356370000000  0.4320820000000 1.0
C      1  0.4474130000000  0.4402740000000  0.5496390000000 1.0
C      1  0.4804870000000  0.4131190000000  0.4788210000000 1.0
C      1  0.4893810000000  0.4174820000000  0.5333960000000 1.0
C      1  0.5306400000000  0.4140690000000  0.4879840000000 1.0
C      1  0.5966870000000  0.5130170000000  0.4575350000000 1.0
C      1  0.4149150000000  0.5131810000000  0.4374650000000 1.0
C      1  0.4880790000000  0.5137980000000  0.6061750000000 1.0
C      1  0.5774630000000  0.5628210000000  0.5276790000000 1.0
C      1  0.4852450000000  0.5631190000000  0.4189000000000 1.0
C      1  0.4372810000000  0.5634720000000  0.5532550000000 1.0
C      1  0.4583740000000  0.4506260000000  0.3897590000000 1.0
C      1  0.4234850000000  0.4509340000000  0.5921560000000 1.0
C      1  0.6157540000000  0.4501010000000  0.5201690000000 1.0
C      1  0.4410550000000  0.5417710000000  0.4212470000000 1.0
C      1  0.4612710000000  0.5424760000000  0.5912510000000 1.0
C      1  0.5977470000000  0.5415160000000  0.4883610000000 1.0
C      1  0.4588570000000  0.5797290000000  0.4234720000000 1.0
C      1  0.4543440000000  0.5801340000000  0.5740340000000 1.0
C      1  0.5868050000000  0.5794720000000  0.5025810000000 1.0
C      1  0.5887680000000  0.5675690000000  0.4703350000000 1.0
C      1  0.4299540000000  0.5677330000000  0.4381270000000 1.0
C      1  0.4816770000000  0.5682360000000  0.5920320000000 1.0
C      1  0.5675920000000  0.5101780000000  0.4678280000000 1.0
C      1  0.4385410000000  0.5105250000000  0.4573580000000 1.0
C      1  0.4937440000000  0.5106850000000  0.5757680000000 1.0
C      1  0.4662660000000  0.4595890000000  0.4352150000000 1.0
C      1  0.4596770000000  0.4633830000000  0.5638130000000 1.0
C      1  0.5733030000000  0.4601830000000  0.5023770000000 1.0
C      1  0.4981560000000  0.5328990000000  0.5573650000000 1.0
C      1  0.5496950000000  0.5325470000000  0.4732430000000 1.0
C      1  0.4519440000000  0.5329500000000  0.4701500000000 1.0
C      1  0.3927140000000  0.5427730000000  0.4704150000000 1.0
C      1  0.5281390000000  0.5429820000000  0.6081260000000 1.0
C      1  0.5795350000000  0.5428080000000  0.4218040000000 1.0
C      1  0.6095020000000  0.5131100000000  0.5495490000000 1.0
C      1  0.4878990000000  0.5136340000000  0.3798570000000 1.0
C      1  0.4017450000000  0.5150810000000  0.5708380000000 1.0
C      1  0.5157100000000  0.5267600000000  0.3794290000000 1.0
C      1  0.3874500000000  0.5275630000000  0.5466820000000 1.0
C      1  0.5962170000000  0.5260920000000  0.5739430000000 1.0
C      1  0.4805860000000  0.5758100000000  0.5399600000000 1.0
C      1  0.5440940000000  0.5756160000000  0.4969760000000 1.0
C      1  0.4753320000000  0.5759620000000  0.4632390000000 1.0
C      1  0.5480880000000  0.6071220000000  0.5615270000000 1.0
C      1  0.5295340000000  0.6071170000000  0.4278400000000 1.0
C      1  0.4228390000000  0.6073920000000  0.5105740000000 1.0
C      1  0.6252340000000  0.5168250000000  0.5233640000000 1.0
C      1  0.4573230000000  0.5172310000000  0.3798010000000 1.0
C      1  0.4166580000000  0.5187470000000  0.5976330000000 1.0
C      1  0.4602400000000  0.3717400000000  0.4926070000000 1.0
C      1  0.5154710000000  0.3757360000000  0.5409260000000 1.0
C      1  0.5262910000000  0.3741850000000  0.4570940000000 1.0
C      1  0.4613970000000  0.5097410000000  0.6175380000000 1.0
C      1  0.6197530000000  0.5083970000000  0.4748940000000 1.0
C      1  0.4182590000000  0.5087530000000  0.4088920000000 1.0
C      1  0.5631680000000  0.4061370000000  0.4345010000000 1.0
C      1  0.4190230000000  0.4039900000000  0.4766250000000 1.0
C      1  0.5208650000000  0.4063520000000  0.5853850000000 1.0
C      1  0.4038170000000  0.4647790000000  0.5664170000000 1.0
C      1  0.6043770000000  0.4645680000000  0.5490800000000 1.0
C      1  0.4900910000000  0.4647260000000  0.3852150000000 1.0
C      1  0.3949790000000  0.4736190000000  0.5325310000000 1.0
C      1  0.5788560000000  0.4716790000000  0.5736340000000 1.0
C      1  0.5242700000000  0.4728420000000  0.3936810000000 1.0
C      1  0.5272900000000  0.5054870000000  0.5147380000000 1.0
C      1  0.4981990000000  0.5051200000000  0.4682530000000 1.0
C      1  0.4724800000000  0.5047010000000  0.5167160000000 1.0
C      1  0.5267880000000  0.4803520000000  0.5270900000000 1.0
C      1  0.5090350000000  0.4799730000000  0.4622430000000 1.0
C      1  0.4617400000000  0.4796750000000  0.5095270000000 1.0
C      1  0.4639430000000  0.4347650000000  0.4891850000000 1.0
C      1  0.5075090000000  0.4382640000000  0.5391320000000 1.0
C      1  0.5289140000000  0.4376130000000  0.4723710000000 1.0
C      1  0.5645230000000  0.5182560000000  0.4112210000000 1.0
C      1  0.3912640000000  0.5181470000000  0.4887110000000 1.0
C      1  0.5443900000000  0.5181460000000  0.6002880000000 1.0
C      1  0.5480890000000  0.6100910000000  0.4516320000000 1.0
C      1  0.4341540000000  0.6103550000000  0.4826060000000 1.0
C      1  0.5182420000000  0.6102670000000  0.5658190000000 1.0
C      1  0.6009750000000  0.4632410000000  0.4624410000000 1.0
C      1  0.4179690000000  0.4632380000000  0.4326680000000 1.0
C      1  0.4811390000000  0.4642660000000  0.6073420000000 1.0
C      1  0.5165060000000  0.3898360000000  0.4802690000000 1.0
C      1  0.4877610000000  0.3866120000000  0.4951040000000 1.0
C      1  0.4974870000000  0.3923400000000  0.5241140000000 1.0
C      1  0.5102580000000  0.4477390000000  0.4242600000000 1.0
C      1  0.4284380000000  0.4485490000000  0.5296690000000 1.0
C      1  0.5584330000000  0.4475320000000  0.5460080000000 1.0
C      1  0.5425260000000  0.4171130000000  0.5136650000000 1.0
C      1  0.4953410000000  0.4190720000000  0.4552570000000 1.0
C      1  0.4631090000000  0.4248520000000  0.5299860000000 1.0
C      1  0.5468630000000  0.4743980000000  0.5466060000000 1.0
C      1  0.5163130000000  0.4744240000000  0.4348670000000 1.0
C      1  0.4340890000000  0.4745580000000  0.5173050000000 1.0
C      1  0.5949060000000  0.5409580000000  0.4464790000000 1.0
C      1  0.4062810000000  0.5410650000000  0.4447590000000 1.0
C      1  0.4990610000000  0.5416430000000  0.6095230000000 1.0
C      1  0.4161210000000  0.4977450000000  0.5285200000000 1.0
C      1  0.5653660000000  0.4966310000000  0.5580670000000 1.0
C      1  0.5175210000000  0.4971930000000  0.4136550000000 1.0
END
