TITL C-862506-1665-1292 9.70466289654139 125000 -1110.2281797043 0 0 194 (C1) n - 1
REM
REM in /home/nfs/bkarasulu/CARBON/AIRSS/Generating-Clusters/TERSOFF/Higher-Symm/FIRE-HFTN
REM
REM
REM
REM
REM
REM ./C.cell (b20cbc046b6831c77cfcea5457e17084)
REM AIRSS Version 0.9.1 bugfix July 2018 build 013d7b7c2542+ Fri, 06 Jul 2018 19:26:36 +0100
REM compiler GCC version 9.2.1 20190827 (Red Hat 9.2.1-1)
REM options -cpp -mtune=generic -march=x86-64 -g -O0 -fpre-include=/usr/include/finclude/math-vector-fortran.h
REM seed 162357628 880447207 -1298182499 -716634621 933633440 347687030 282354016 -1680201475 517100857 1151388973 -1499183223 -592395938 869102919 148351245 -1272419340 804186185 1781178011 -934871951 -379612000 12936380 -1703963942 356852434 1528118232 1597161170 -1504388785 -146550046 -1567361956 -87248640 -184784878 -1803778069 513568884 1494403954 766734777
REM
CELL 1.54180   50.00000   50.00000   50.00000   90.00000   90.00000   90.00000
LATT -1
SFAC C  
C      1  0.5617660000000  0.4367770000000  0.5712120000000 1.0
C      1  0.5786840000000  0.5389900000000  0.5673300000000 1.0
C      1  0.4854970000000  0.5868970000000  0.5695090000000 1.0
C      1  0.4126650000000  0.5143280000000  0.5710580000000 1.0
C      1  0.4594510000000  0.4211940000000  0.5712550000000 1.0
C      1  0.5865780000000  0.5795440000000  0.4922240000000 1.0
C      1  0.4458960000000  0.6051500000000  0.4915920000000 1.0
C      1  0.3812090000000  0.4835440000000  0.4938560000000 1.0
C      1  0.4795200000000  0.3841900000000  0.4913680000000 1.0
C      1  0.6011050000000  0.4412240000000  0.4894210000000 1.0
C      1  0.4938630000000  0.4566720000000  0.5634390000000 1.0
C      1  0.5390300000000  0.4810480000000  0.5610610000000 1.0
C      1  0.5295880000000  0.5317430000000  0.5602310000000 1.0
C      1  0.4790540000000  0.5381900000000  0.5614890000000 1.0
C      1  0.4570360000000  0.4916210000000  0.5628770000000 1.0
C      1  0.4774250000000  0.4025910000000  0.4199570000000 1.0
C      1  0.5836340000000  0.4450660000000  0.4185370000000 1.0
C      1  0.5796640000000  0.5779380000000  0.4198600000000 1.0
C      1  0.4543550000000  0.5983130000000  0.4182570000000 1.0
C      1  0.3995700000000  0.4953800000000  0.4258630000000 1.0
C      1  0.5396670000000  0.4017580000000  0.4655780000000 1.0
C      1  0.6196330000000  0.4971550000000  0.4627760000000 1.0
C      1  0.5233900000000  0.6050320000000  0.4637090000000 1.0
C      1  0.4068930000000  0.5588760000000  0.4645700000000 1.0
C      1  0.4140000000000  0.4296270000000  0.4643210000000 1.0
C      1  0.5340220000000  0.3879600000000  0.4911350000000 1.0
C      1  0.6168950000000  0.4892630000000  0.4911790000000 1.0
C      1  0.5347070000000  0.6132270000000  0.4896580000000 1.0
C      1  0.4051790000000  0.5716860000000  0.4911820000000 1.0
C      1  0.4020270000000  0.4321100000000  0.4913030000000 1.0
C      1  0.4426960000000  0.5134270000000  0.5257260000000 1.0
C      1  0.4685110000000  0.4506270000000  0.5254800000000 1.0
C      1  0.5361650000000  0.4540380000000  0.5258640000000 1.0
C      1  0.5537960000000  0.5208590000000  0.5238260000000 1.0
C      1  0.4954630000000  0.5565010000000  0.5217100000000 1.0
C      1  0.5200580000000  0.6135340000000  0.5151260000000 1.0
C      1  0.3995060000000  0.5574420000000  0.5167030000000 1.0
C      1  0.4136930000000  0.4212650000000  0.5164900000000 1.0
C      1  0.5476390000000  0.3936860000000  0.5168270000000 1.0
C      1  0.6161290000000  0.5076610000000  0.5144910000000 1.0
C      1  0.3935300000000  0.5232020000000  0.4310800000000 1.0
C      1  0.4486080000000  0.4052770000000  0.4203200000000 1.0
C      1  0.5715530000000  0.4187970000000  0.4198460000000 1.0
C      1  0.6018250000000  0.5593350000000  0.4191000000000 1.0
C      1  0.4806030000000  0.6105080000000  0.4180010000000 1.0
C      1  0.5128430000000  0.5244770000000  0.3685740000000 1.0
C      1  0.4825150000000  0.5172130000000  0.3648650000000 1.0
C      1  0.4827200000000  0.4853820000000  0.3643880000000 1.0
C      1  0.5137450000000  0.4787180000000  0.3683140000000 1.0
C      1  0.5325510000000  0.5019610000000  0.3630400000000 1.0
C      1  0.4926620000000  0.6242210000000  0.4404570000000 1.0
C      1  0.3751640000000  0.5325880000000  0.4513880000000 1.0
C      1  0.4315280000000  0.3970350000000  0.4421860000000 1.0
C      1  0.5746440000000  0.4002760000000  0.4418730000000 1.0
C      1  0.6177250000000  0.5516440000000  0.4420310000000 1.0
C      1  0.5105580000000  0.4329090000000  0.5660470000000 1.0
C      1  0.5667720000000  0.4890400000000  0.5626190000000 1.0
C      1  0.5293070000000  0.5606480000000  0.5620640000000 1.0
C      1  0.4515700000000  0.5472210000000  0.5643870000000 1.0
C      1  0.4397740000000  0.4684040000000  0.5657430000000 1.0
C      1  0.4828440000000  0.5316080000000  0.5315860000000 1.0
C      1  0.4636480000000  0.4936560000000  0.5329980000000 1.0
C      1  0.4937690000000  0.4637790000000  0.5333720000000 1.0
C      1  0.5312110000000  0.4827220000000  0.5316440000000 1.0
C      1  0.5249700000000  0.5248470000000  0.5309000000000 1.0
C      1  0.4377170000000  0.5142780000000  0.4446020000000 1.0
C      1  0.4673130000000  0.4470700000000  0.4481480000000 1.0
C      1  0.5367180000000  0.4596780000000  0.4512370000000 1.0
C      1  0.5811130000000  0.5293520000000  0.4423270000000 1.0
C      1  0.4957160000000  0.5536050000000  0.4510200000000 1.0
C      1  0.5377290000000  0.5727500000000  0.5081190000000 1.0
C      1  0.4402720000000  0.5548400000000  0.5069410000000 1.0
C      1  0.4265220000000  0.4607050000000  0.5099020000000 1.0
C      1  0.5137530000000  0.4205890000000  0.5081150000000 1.0
C      1  0.5771000000000  0.4863020000000  0.5042660000000 1.0
C      1  0.5196150000000  0.5618930000000  0.4342310000000 1.0
C      1  0.4407760000000  0.5400170000000  0.4303650000000 1.0
C      1  0.4444420000000  0.4553290000000  0.4312320000000 1.0
C      1  0.5229910000000  0.4398570000000  0.4349090000000 1.0
C      1  0.5850260000000  0.5052950000000  0.4246690000000 1.0
C      1  0.4451190000000  0.4645390000000  0.5330850000000 1.0
C      1  0.5154840000000  0.4364790000000  0.5336790000000 1.0
C      1  0.5628380000000  0.4945050000000  0.5291970000000 1.0
C      1  0.5225760000000  0.5590180000000  0.5290830000000 1.0
C      1  0.4493950000000  0.5403540000000  0.5318730000000 1.0
C      1  0.4661050000000  0.4239650000000  0.5153420000000 1.0
C      1  0.5602550000000  0.4430580000000  0.5149810000000 1.0
C      1  0.5731170000000  0.5419890000000  0.5186860000000 1.0
C      1  0.4813710000000  0.5796260000000  0.5121820000000 1.0
C      1  0.4155470000000  0.5071380000000  0.5184540000000 1.0
C      1  0.5310090000000  0.5192840000000  0.6201410000000 1.0
C      1  0.4923060000000  0.5355690000000  0.6207850000000 1.0
C      1  0.4648320000000  0.5038330000000  0.6220510000000 1.0
C      1  0.4865530000000  0.4678930000000  0.6223270000000 1.0
C      1  0.5274270000000  0.4774560000000  0.6210910000000 1.0
C      1  0.5592380000000  0.5028400000000  0.3772380000000 1.0
C      1  0.5141880000000  0.5251150000000  0.3984880000000 1.0
C      1  0.4726750000000  0.5209510000000  0.3944430000000 1.0
C      1  0.4721850000000  0.4790990000000  0.3938210000000 1.0
C      1  0.5135670000000  0.4739680000000  0.3979570000000 1.0
C      1  0.4885020000000  0.5256710000000  0.4600190000000 1.0
C      1  0.4601170000000  0.4955730000000  0.4529210000000 1.0
C      1  0.4895540000000  0.4658060000000  0.4558540000000 1.0
C      1  0.5255180000000  0.4874780000000  0.4554150000000 1.0
C      1  0.5569940000000  0.5453310000000  0.4438460000000 1.0
C      1  0.5341240000000  0.4393220000000  0.5837650000000 1.0
C      1  0.5676920000000  0.5137730000000  0.5801790000000 1.0
C      1  0.5070760000000  0.5689420000000  0.5809220000000 1.0
C      1  0.4367620000000  0.5285770000000  0.5828440000000 1.0
C      1  0.4531630000000  0.4482890000000  0.5837610000000 1.0
C      1  0.5460980000000  0.4453710000000  0.4755230000000 1.0
C      1  0.5859170000000  0.5212470000000  0.4695970000000 1.0
C      1  0.4995800000000  0.5720950000000  0.4742980000000 1.0
C      1  0.4257050000000  0.5217830000000  0.4704010000000 1.0
C      1  0.4544740000000  0.4366060000000  0.4730910000000 1.0
C      1  0.4399170000000  0.5905330000000  0.4422520000000 1.0
C      1  0.3982460000000  0.4741280000000  0.4456490000000 1.0
C      1  0.4939310000000  0.3977370000000  0.4433960000000 1.0
C      1  0.5988590000000  0.4574010000000  0.4399940000000 1.0
C      1  0.5658720000000  0.5863400000000  0.4440480000000 1.0
C      1  0.4556780000000  0.5420510000000  0.4053680000000 1.0
C      1  0.4478230000000  0.4657740000000  0.4038420000000 1.0
C      1  0.5140400000000  0.4468610000000  0.4085810000000 1.0
C      1  0.5636330000000  0.4951910000000  0.4059070000000 1.0
C      1  0.5293220000000  0.5454520000000  0.4122820000000 1.0
C      1  0.5218790000000  0.4895300000000  0.5812970000000 1.0
C      1  0.5171530000000  0.5174560000000  0.5805900000000 1.0
C      1  0.4892090000000  0.5216330000000  0.5813310000000 1.0
C      1  0.4763800000000  0.4963450000000  0.5824230000000 1.0
C      1  0.4966630000000  0.4765210000000  0.5825510000000 1.0
C      1  0.5583170000000  0.5124430000000  0.6089390000000 1.0
C      1  0.5070620000000  0.5592660000000  0.6094650000000 1.0
C      1  0.4459920000000  0.5248510000000  0.6113020000000 1.0
C      1  0.4606010000000  0.4558000000000  0.6121270000000 1.0
C      1  0.5295560000000  0.4489250000000  0.6118370000000 1.0
C      1  0.6096770000000  0.5604900000000  0.4965320000000 1.0
C      1  0.4669890000000  0.6228150000000  0.5052150000000 1.0
C      1  0.3722050000000  0.5110210000000  0.5042630000000 1.0
C      1  0.4512670000000  0.3823730000000  0.5037460000000 1.0
C      1  0.5958610000000  0.4158200000000  0.5057200000000 1.0
C      1  0.4454910000000  0.5324200000000  0.4883710000000 1.0
C      1  0.4443350000000  0.4603190000000  0.4866950000000 1.0
C      1  0.5204200000000  0.4418960000000  0.4888740000000 1.0
C      1  0.5679530000000  0.5030880000000  0.4825050000000 1.0
C      1  0.5275440000000  0.5673300000000  0.4817440000000 1.0
C      1  0.4177230000000  0.4522260000000  0.4451360000000 1.0
C      1  0.5190660000000  0.4125250000000  0.4470220000000 1.0
C      1  0.6031040000000  0.4863140000000  0.4404650000000 1.0
C      1  0.5361010000000  0.5858630000000  0.4450670000000 1.0
C      1  0.4285650000000  0.5636560000000  0.4446160000000 1.0
C      1  0.4976270000000  0.6067300000000  0.5499700000000 1.0
C      1  0.3971780000000  0.5332720000000  0.5520890000000 1.0
C      1  0.4371030000000  0.4126890000000  0.5517480000000 1.0
C      1  0.5629120000000  0.4126500000000  0.5524500000000 1.0
C      1  0.6026760000000  0.5317230000000  0.5488260000000 1.0
C      1  0.4416620000000  0.4074200000000  0.5193490000000 1.0
C      1  0.5692480000000  0.4154770000000  0.5209140000000 1.0
C      1  0.6030980000000  0.5363290000000  0.5150020000000 1.0
C      1  0.4898870000000  0.6073400000000  0.5184570000000 1.0
C      1  0.3933560000000  0.5270980000000  0.5199480000000 1.0
C      1  0.5356510000000  0.3894100000000  0.5467500000000 1.0
C      1  0.6164740000000  0.4984900000000  0.5450630000000 1.0
C      1  0.5332030000000  0.6110100000000  0.5444810000000 1.0
C      1  0.4053700000000  0.5681440000000  0.5464360000000 1.0
C      1  0.4063440000000  0.4310130000000  0.5464160000000 1.0
C      1  0.5388380000000  0.5038740000000  0.4759980000000 1.0
C      1  0.5394550000000  0.5448630000000  0.4670920000000 1.0
C      1  0.4732170000000  0.5235780000000  0.4849800000000 1.0
C      1  0.4573270000000  0.4850250000000  0.4799700000000 1.0
C      1  0.5005700000000  0.4616130000000  0.4823630000000 1.0
C      1  0.5655560000000  0.5684370000000  0.5102190000000 1.0
C      1  0.4554430000000  0.5783250000000  0.5009370000000 1.0
C      1  0.4073650000000  0.4818690000000  0.5085830000000 1.0
C      1  0.4876540000000  0.4098970000000  0.5039690000000 1.0
C      1  0.5782750000000  0.4582370000000  0.4994800000000 1.0
C      1  0.6085470000000  0.4705780000000  0.5558970000000 1.0
C      1  0.5586840000000  0.5949570000000  0.5522700000000 1.0
C      1  0.4286180000000  0.5864140000000  0.5554510000000 1.0
C      1  0.3957190000000  0.4589440000000  0.5552070000000 1.0
C      1  0.5058590000000  0.3881520000000  0.5554990000000 1.0
C      1  0.4854990000000  0.3780090000000  0.4635270000000 1.0
C      1  0.6102340000000  0.4409710000000  0.4615740000000 1.0
C      1  0.5815570000000  0.5953890000000  0.4676660000000 1.0
C      1  0.4365770000000  0.6095480000000  0.4643530000000 1.0
C      1  0.3773390000000  0.4744360000000  0.4663520000000 1.0
C      1  0.4910780000000  0.4106250000000  0.5696810000000 1.0
C      1  0.5815820000000  0.4639380000000  0.5679890000000 1.0
C      1  0.5585010000000  0.5672610000000  0.5651200000000 1.0
C      1  0.4541120000000  0.5765020000000  0.5682460000000 1.0
C      1  0.4124660000000  0.4802540000000  0.5692130000000 1.0
C      1  0.4991630000000  0.4993140000000  0.5272270000000 1.0
C      1  0.4945660000000  0.4994590000000  0.4134090000000 1.0
C      1  0.4932050000000  0.4974290000000  0.4427900000000 1.0
C      1  0.5003030000000  0.5007280000000  0.6166630000000 1.0
END
