TITL C-862130-1496-1098 -0.0736923244431553 125000 -981.551986289944 0 0 169 (C5) n - 1
REM
REM in /home/nfs/bkarasulu/CARBON/AIRSS/Generating-Clusters/TERSOFF/Higher-Symm/FIRE-HFTN
REM
REM
REM
REM
REM
REM ./C.cell (b20cbc046b6831c77cfcea5457e17084)
REM AIRSS Version 0.9.1 bugfix July 2018 build 013d7b7c2542+ Fri, 06 Jul 2018 19:26:36 +0100
REM compiler GCC version 9.2.1 20190827 (Red Hat 9.2.1-1)
REM options -cpp -mtune=generic -march=x86-64 -g -O0 -fpre-include=/usr/include/finclude/math-vector-fortran.h
REM seed -285473650 1921428568 673169167 -1505939770 353910098 22514362 1853485610 -1797492233 510007301 -103556980 -239430788 -1744072747 -285110304 -227127971 -948714652 887704092 -2054624677 312128128 1464931121 -1098905186 2043114976 154420942 547410166 329065019 -1307677498 -1977776035 -1127484063 -1485422572 -713186786 693152701 -1318173371 806379759 373493891
REM
CELL 1.54180   50.00000   50.00000   50.00000   90.00000   90.00000   90.00000
LATT -1
SFAC C  
C      1  0.5252220000000  0.4251740000000  0.5771920000000 1.0
C      1  0.5252220000000  0.4036490000000  0.4524930000000 1.0
C      1  0.5252220000000  0.5155940000000  0.3934880000000 1.0
C      1  0.5252210000000  0.6063040000000  0.4817200000000 1.0
C      1  0.5252210000000  0.5504210000000  0.5952560000000 1.0
C      1  0.4731960000000  0.5752830000000  0.5771920000000 1.0
C      1  0.4731960000000  0.5968070000000  0.4524930000000 1.0
C      1  0.4731970000000  0.4848630000000  0.3934880000000 1.0
C      1  0.4731970000000  0.3941530000000  0.4817200000000 1.0
C      1  0.4731960000000  0.4500360000000  0.5952560000000 1.0
C      1  0.5575620000000  0.4664070000000  0.5295360000000 1.0
C      1  0.5575630000000  0.4617150000000  0.4769820000000 1.0
C      1  0.5575620000000  0.5102470000000  0.4562790000000 1.0
C      1  0.5575620000000  0.5449340000000  0.4960380000000 1.0
C      1  0.5575620000000  0.5178400000000  0.5413140000000 1.0
C      1  0.4408560000000  0.5340490000000  0.5295360000000 1.0
C      1  0.4408560000000  0.5387420000000  0.4769820000000 1.0
C      1  0.4408560000000  0.4902100000000  0.4562790000000 1.0
C      1  0.4408560000000  0.4555230000000  0.4960380000000 1.0
C      1  0.4408560000000  0.4826170000000  0.5413130000000 1.0
C      1  0.5956120000000  0.5420660000000  0.4631200000000 1.0
C      1  0.5956120000000  0.5482610000000  0.5284140000000 1.0
C      1  0.5956120000000  0.4880770000000  0.5544820000000 1.0
C      1  0.5956130000000  0.4446870000000  0.5053000000000 1.0
C      1  0.5956130000000  0.4780540000000  0.4488350000000 1.0
C      1  0.4028060000000  0.4583910000000  0.4631200000000 1.0
C      1  0.4028060000000  0.4521960000000  0.5284130000000 1.0
C      1  0.4028060000000  0.5123800000000  0.5544810000000 1.0
C      1  0.4028060000000  0.5557700000000  0.5052990000000 1.0
C      1  0.4028060000000  0.5224030000000  0.4488340000000 1.0
C      1  0.5497090000000  0.6056770000000  0.5003830000000 1.0
C      1  0.5497090000000  0.5324780000000  0.6004260000000 1.0
C      1  0.5497090000000  0.4147120000000  0.5617250000000 1.0
C      1  0.5497100000000  0.4151270000000  0.4377630000000 1.0
C      1  0.5497090000000  0.5331500000000  0.3998520000000 1.0
C      1  0.4487100000000  0.3947800000000  0.5003830000000 1.0
C      1  0.4487090000000  0.4679790000000  0.6004260000000 1.0
C      1  0.4487090000000  0.5857450000000  0.5617240000000 1.0
C      1  0.4487090000000  0.5853300000000  0.4377630000000 1.0
C      1  0.4487100000000  0.4673070000000  0.3998520000000 1.0
C      1  0.4995440000000  0.4616600000000  0.6030580000000 1.0
C      1  0.4995450000000  0.3903250000000  0.4951860000000 1.0
C      1  0.4995450000000  0.4708730000000  0.3940080000000 1.0
C      1  0.4995440000000  0.5919890000000  0.4393480000000 1.0
C      1  0.4995440000000  0.5862960000000  0.5685480000000 1.0
C      1  0.4988730000000  0.5387970000000  0.6030580000000 1.0
C      1  0.4988730000000  0.6101320000000  0.4951860000000 1.0
C      1  0.4988740000000  0.5295840000000  0.3940080000000 1.0
C      1  0.4988750000000  0.4084670000000  0.4393480000000 1.0
C      1  0.4988740000000  0.4141610000000  0.5685480000000 1.0
C      1  0.5132260000000  0.4935220000000  0.5556010000000 1.0
C      1  0.5132270000000  0.4453050000000  0.5108240000000 1.0
C      1  0.5132270000000  0.4729900000000  0.4511300000000 1.0
C      1  0.5132270000000  0.5383180000000  0.4590140000000 1.0
C      1  0.5132260000000  0.5510070000000  0.5235800000000 1.0
C      1  0.4851920000000  0.5069350000000  0.5556010000000 1.0
C      1  0.4851910000000  0.5551520000000  0.5108240000000 1.0
C      1  0.4851920000000  0.5274660000000  0.4511300000000 1.0
C      1  0.4851920000000  0.4621390000000  0.4590140000000 1.0
C      1  0.4851920000000  0.4494500000000  0.5235800000000 1.0
C      1  0.4727880000000  0.5769390000000  0.5282180000000 1.0
C      1  0.4727880000000  0.4971250000000  0.5816970000000 1.0
C      1  0.4727880000000  0.4215990000000  0.5223150000000 1.0
C      1  0.4727880000000  0.4547360000000  0.4321360000000 1.0
C      1  0.4727880000000  0.5507420000000  0.4357840000000 1.0
C      1  0.5256310000000  0.4235180000000  0.5282180000000 1.0
C      1  0.5256300000000  0.5033320000000  0.5816970000000 1.0
C      1  0.5256300000000  0.5788570000000  0.5223150000000 1.0
C      1  0.5256300000000  0.5457210000000  0.4321360000000 1.0
C      1  0.5256310000000  0.4497150000000  0.4357840000000 1.0
C      1  0.4158460000000  0.4623100000000  0.4373100000000 1.0
C      1  0.4158450000000  0.5481610000000  0.4445860000000 1.0
C      1  0.4158450000000  0.5677700000000  0.5284830000000 1.0
C      1  0.4158450000000  0.4940390000000  0.5730580000000 1.0
C      1  0.4158460000000  0.4288610000000  0.5167100000000 1.0
C      1  0.5825730000000  0.5381470000000  0.4373100000000 1.0
C      1  0.5825730000000  0.4522960000000  0.4445860000000 1.0
C      1  0.5825730000000  0.4326870000000  0.5284840000000 1.0
C      1  0.5825730000000  0.5064180000000  0.5730590000000 1.0
C      1  0.5825730000000  0.5715960000000  0.5167110000000 1.0
C      1  0.4427270000000  0.5521650000000  0.4303230000000 1.0
C      1  0.4427270000000  0.5825720000000  0.5278840000000 1.0
C      1  0.4427270000000  0.4991830000000  0.5869510000000 1.0
C      1  0.4427270000000  0.4172380000000  0.5258950000000 1.0
C      1  0.4427270000000  0.4499830000000  0.4290940000000 1.0
C      1  0.5556920000000  0.4482920000000  0.4303230000000 1.0
C      1  0.5556920000000  0.4178840000000  0.5278850000000 1.0
C      1  0.5556910000000  0.5012740000000  0.5869520000000 1.0
C      1  0.5556910000000  0.5832190000000  0.5258960000000 1.0
C      1  0.5556910000000  0.5504740000000  0.4290940000000 1.0
C      1  0.5083830000000  0.5525010000000  0.4101820000000 1.0
C      1  0.5083830000000  0.6018310000000  0.5219790000000 1.0
C      1  0.5083830000000  0.5107500000000  0.6034430000000 1.0
C      1  0.5083840000000  0.4051280000000  0.5419930000000 1.0
C      1  0.5083840000000  0.4309320000000  0.4225520000000 1.0
C      1  0.4900350000000  0.4479560000000  0.4101820000000 1.0
C      1  0.4900350000000  0.3986250000000  0.5219790000000 1.0
C      1  0.4900350000000  0.4897070000000  0.6034430000000 1.0
C      1  0.4900340000000  0.5953280000000  0.5419930000000 1.0
C      1  0.4900350000000  0.5695250000000  0.4225510000000 1.0
C      1  0.5258110000000  0.4860880000000  0.3980670000000 1.0
C      1  0.5258110000000  0.5928320000000  0.4550730000000 1.0
C      1  0.5258110000000  0.5716010000000  0.5742080000000 1.0
C      1  0.5258110000000  0.4517360000000  0.5908320000000 1.0
C      1  0.5258120000000  0.3988860000000  0.4819700000000 1.0
C      1  0.4726080000000  0.5143690000000  0.3980660000000 1.0
C      1  0.4726080000000  0.4076250000000  0.4550730000000 1.0
C      1  0.4726070000000  0.4288560000000  0.5742080000000 1.0
C      1  0.4726070000000  0.5487210000000  0.5908310000000 1.0
C      1  0.4726070000000  0.6015710000000  0.4819700000000 1.0
C      1  0.5308100000000  0.5057790000000  0.5352180000000 1.0
C      1  0.5308100000000  0.4684780000000  0.5161820000000 1.0
C      1  0.5308100000000  0.4750550000000  0.4748240000000 1.0
C      1  0.5308100000000  0.5164210000000  0.4682990000000 1.0
C      1  0.5308100000000  0.5354100000000  0.5056250000000 1.0
C      1  0.4676080000000  0.4946780000000  0.5352180000000 1.0
C      1  0.4676080000000  0.5319790000000  0.5161820000000 1.0
C      1  0.4676080000000  0.5254020000000  0.4748240000000 1.0
C      1  0.4676080000000  0.4840350000000  0.4682990000000 1.0
C      1  0.4676080000000  0.4650470000000  0.5056250000000 1.0
C      1  0.3817660000000  0.4679540000000  0.5153200000000 1.0
C      1  0.3817660000000  0.4757130000000  0.4740600000000 1.0
C      1  0.3817660000000  0.5173500000000  0.4686890000000 1.0
C      1  0.3817660000000  0.5353250000000  0.5066290000000 1.0
C      1  0.3817660000000  0.5047970000000  0.5354490000000 1.0
C      1  0.6166520000000  0.5325030000000  0.5153200000000 1.0
C      1  0.6166520000000  0.5247440000000  0.4740610000000 1.0
C      1  0.6166520000000  0.4831060000000  0.4686900000000 1.0
C      1  0.6166520000000  0.4651310000000  0.5066300000000 1.0
C      1  0.6166520000000  0.4956600000000  0.5354490000000 1.0
C      1  0.4493490000000  0.5319250000000  0.5805390000000 1.0
C      1  0.4493500000000  0.4334540000000  0.5550540000000 1.0
C      1  0.4493500000000  0.4272630000000  0.4535270000000 1.0
C      1  0.4493500000000  0.5219070000000  0.4162650000000 1.0
C      1  0.4493490000000  0.5865920000000  0.4947630000000 1.0
C      1  0.5490690000000  0.4685320000000  0.5805390000000 1.0
C      1  0.5490680000000  0.5670020000000  0.5550540000000 1.0
C      1  0.5490690000000  0.5731940000000  0.4535280000000 1.0
C      1  0.5490690000000  0.4785500000000  0.4162660000000 1.0
C      1  0.5490690000000  0.4138650000000  0.4947630000000 1.0
C      1  0.4196940000000  0.4947710000000  0.4755780000000 1.0
C      1  0.4196940000000  0.5217970000000  0.4872830000000 1.0
C      1  0.4196930000000  0.5190160000000  0.5166040000000 1.0
C      1  0.4196940000000  0.4902710000000  0.5230190000000 1.0
C      1  0.4196940000000  0.4752860000000  0.4976640000000 1.0
C      1  0.5787250000000  0.5056860000000  0.4755780000000 1.0
C      1  0.5787250000000  0.4786600000000  0.4872840000000 1.0
C      1  0.5787250000000  0.4814410000000  0.5166040000000 1.0
C      1  0.5787250000000  0.5101860000000  0.5230200000000 1.0
C      1  0.5787250000000  0.5251700000000  0.4976640000000 1.0
C      1  0.4370340000000  0.4983500000000  0.4286290000000 1.0
C      1  0.4370340000000  0.5675540000000  0.4761790000000 1.0
C      1  0.4370340000000  0.5437160000000  0.5566900000000 1.0
C      1  0.4370340000000  0.4597800000000  0.5588980000000 1.0
C      1  0.4370340000000  0.4317420000000  0.4797520000000 1.0
C      1  0.5613850000000  0.5021070000000  0.4286290000000 1.0
C      1  0.5613850000000  0.4329030000000  0.4761790000000 1.0
C      1  0.5613840000000  0.4567410000000  0.5566900000000 1.0
C      1  0.5613840000000  0.5406770000000  0.5588980000000 1.0
C      1  0.5613840000000  0.5687150000000  0.4797520000000 1.0
C      1  0.4992090000000  0.5002280000000  0.4370490000000 1.0
C      1  0.4992090000000  0.5601260000000  0.4805680000000 1.0
C      1  0.4992090000000  0.4632100000000  0.5509820000000 1.0
C      1  0.4992100000000  0.4403310000000  0.4805680000000 1.0
C      1  0.4992090000000  0.5372470000000  0.5509820000000 1.0
C      1  0.3859980000000  0.5002280000000  0.5000290000000 1.0
C      1  0.6124200000000  0.5002290000000  0.5000300000000 1.0
C      1  0.4738270000000  0.5002280000000  0.5000300000000 1.0
C      1  0.5245920000000  0.5002290000000  0.5000300000000 1.0
END
