TITL C-862128-1543-1067 9.03618090922162 125000 -713.895357433068 0 0 125 (C1) n - 1
REM
REM in /home/nfs/bkarasulu/CARBON/AIRSS/Generating-Clusters/TERSOFF/Higher-Symm/FIRE-HFTN
REM
REM
REM
REM
REM
REM ./C.cell (b20cbc046b6831c77cfcea5457e17084)
REM AIRSS Version 0.9.1 bugfix July 2018 build 013d7b7c2542+ Fri, 06 Jul 2018 19:26:36 +0100
REM compiler GCC version 9.2.1 20190827 (Red Hat 9.2.1-1)
REM options -cpp -mtune=generic -march=x86-64 -g -O0 -fpre-include=/usr/include/finclude/math-vector-fortran.h
REM seed 129431684 -1702561990 -1165959768 584453550 2117179966 -1887977436 1649255938 -716040986 -544747199 1754476017 -2016677480 9892953 1489121890 -1197708185 -392251178 1686939096 -1488446786 183720488 -1218010784 1660552005 1171158745 112096934 1442812125 -207797934 -815397514 683110617 -370884251 859106172 -139972896 -504132970 1837159062 2018302272 457301592
REM
CELL 1.54180   50.00000   50.00000   50.00000   90.00000   90.00000   90.00000
LATT -1
SFAC C  
C      1  0.5203380000000  0.3998260000000  0.4663420000000 1.0
C      1  0.5467110000000  0.4057130000000  0.5104590000000 1.0
C      1  0.5037920000000  0.4038030000000  0.5404090000000 1.0
C      1  0.4594200000000  0.4106140000000  0.5136260000000 1.0
C      1  0.4691630000000  0.4065850000000  0.4628700000000 1.0
C      1  0.4775320000000  0.5970040000000  0.4617250000000 1.0
C      1  0.4574160000000  0.5965240000000  0.5100040000000 1.0
C      1  0.4967910000000  0.5959180000000  0.5448550000000 1.0
C      1  0.5408570000000  0.5986690000000  0.5159070000000 1.0
C      1  0.5300870000000  0.5962610000000  0.4643520000000 1.0
C      1  0.4932280000000  0.4811940000000  0.4431060000000 1.0
C      1  0.5516500000000  0.4953460000000  0.4632610000000 1.0
C      1  0.5379240000000  0.4773850000000  0.5334040000000 1.0
C      1  0.4789350000000  0.4969920000000  0.5633740000000 1.0
C      1  0.4511910000000  0.4784440000000  0.4986370000000 1.0
C      1  0.4973660000000  0.5227160000000  0.4386890000000 1.0
C      1  0.4384550000000  0.5151940000000  0.4827960000000 1.0
C      1  0.4612260000000  0.5329950000000  0.5514540000000 1.0
C      1  0.5399180000000  0.5160330000000  0.5496630000000 1.0
C      1  0.5598550000000  0.5320710000000  0.4815770000000 1.0
C      1  0.4532540000000  0.4691620000000  0.5452270000000 1.0
C      1  0.4537820000000  0.4619800000000  0.4601120000000 1.0
C      1  0.5185760000000  0.4612670000000  0.4698830000000 1.0
C      1  0.5615220000000  0.4677460000000  0.4933710000000 1.0
C      1  0.5003640000000  0.4610400000000  0.5407660000000 1.0
C      1  0.5381530000000  0.5414070000000  0.5162900000000 1.0
C      1  0.5206010000000  0.5401550000000  0.4690190000000 1.0
C      1  0.4742180000000  0.5391450000000  0.4695940000000 1.0
C      1  0.4611110000000  0.5383620000000  0.5094350000000 1.0
C      1  0.5026340000000  0.5389330000000  0.5385530000000 1.0
C      1  0.4870460000000  0.4020150000000  0.5881470000000 1.0
C      1  0.4286490000000  0.4008370000000  0.5530070000000 1.0
C      1  0.4663420000000  0.4029620000000  0.4123100000000 1.0
C      1  0.5328590000000  0.4078860000000  0.4180410000000 1.0
C      1  0.5975250000000  0.4042680000000  0.5099210000000 1.0
C      1  0.4975720000000  0.5901070000000  0.5954500000000 1.0
C      1  0.5876180000000  0.5960210000000  0.5364550000000 1.0
C      1  0.5694160000000  0.5868050000000  0.4333260000000 1.0
C      1  0.4459780000000  0.5921340000000  0.4219380000000 1.0
C      1  0.4066890000000  0.5920060000000  0.5082340000000 1.0
C      1  0.4020430000000  0.5117260000000  0.5215530000000 1.0
C      1  0.4483140000000  0.5130010000000  0.4157990000000 1.0
C      1  0.5644820000000  0.5091000000000  0.4257510000000 1.0
C      1  0.5921890000000  0.5130730000000  0.5401080000000 1.0
C      1  0.4928620000000  0.5111040000000  0.6003110000000 1.0
C      1  0.5999910000000  0.4875180000000  0.5281420000000 1.0
C      1  0.5540060000000  0.4820070000000  0.4192680000000 1.0
C      1  0.4379900000000  0.4858640000000  0.4186800000000 1.0
C      1  0.4031250000000  0.4867190000000  0.5368610000000 1.0
C      1  0.5032440000000  0.4829800000000  0.5989610000000 1.0
C      1  0.4614310000000  0.5152700000000  0.6013150000000 1.0
C      1  0.3945400000000  0.5103040000000  0.4919820000000 1.0
C      1  0.4736260000000  0.5171680000000  0.3983030000000 1.0
C      1  0.5906770000000  0.5118110000000  0.4423770000000 1.0
C      1  0.5803100000000  0.5126220000000  0.5683150000000 1.0
C      1  0.5336960000000  0.4779180000000  0.5997220000000 1.0
C      1  0.6109990000000  0.4876990000000  0.4998560000000 1.0
C      1  0.5318850000000  0.4795930000000  0.3982970000000 1.0
C      1  0.4134680000000  0.4798480000000  0.4371430000000 1.0
C      1  0.4097070000000  0.4881810000000  0.5665610000000 1.0
C      1  0.5392050000000  0.3906870000000  0.4865120000000 1.0
C      1  0.5326450000000  0.4000210000000  0.5356800000000 1.0
C      1  0.4838280000000  0.3953910000000  0.5206760000000 1.0
C      1  0.4518220000000  0.4130440000000  0.4855530000000 1.0
C      1  0.4928300000000  0.3899640000000  0.4665190000000 1.0
C      1  0.4651350000000  0.6100010000000  0.4850250000000 1.0
C      1  0.4702000000000  0.6046180000000  0.5353480000000 1.0
C      1  0.5211330000000  0.6096430000000  0.5351120000000 1.0
C      1  0.5414520000000  0.6093840000000  0.4882770000000 1.0
C      1  0.5044350000000  0.6056410000000  0.4530260000000 1.0
C      1  0.4179330000000  0.5345440000000  0.5330000000000 1.0
C      1  0.4392140000000  0.5326710000000  0.4366330000000 1.0
C      1  0.5431650000000  0.5305250000000  0.4251010000000 1.0
C      1  0.5867030000000  0.5352920000000  0.5203960000000 1.0
C      1  0.5114470000000  0.5310840000000  0.5869300000000 1.0
C      1  0.5833680000000  0.4643780000000  0.5371830000000 1.0
C      1  0.5590330000000  0.4606690000000  0.4407640000000 1.0
C      1  0.4586940000000  0.4646180000000  0.4132550000000 1.0
C      1  0.4120560000000  0.4629150000000  0.5207040000000 1.0
C      1  0.4838730000000  0.4626240000000  0.5869910000000 1.0
C      1  0.4668340000000  0.5113480000000  0.4778170000000 1.0
C      1  0.5071160000000  0.5134350000000  0.4661540000000 1.0
C      1  0.5393770000000  0.5168250000000  0.4983490000000 1.0
C      1  0.5145810000000  0.5122260000000  0.5349920000000 1.0
C      1  0.4690080000000  0.5164860000000  0.5275220000000 1.0
C      1  0.5246680000000  0.4901730000000  0.4694380000000 1.0
C      1  0.4732510000000  0.4844290000000  0.4634190000000 1.0
C      1  0.4606070000000  0.4877260000000  0.5236100000000 1.0
C      1  0.4975260000000  0.4901150000000  0.5434560000000 1.0
C      1  0.5433050000000  0.4872000000000  0.5069460000000 1.0
C      1  0.4984110000000  0.5785140000000  0.5688130000000 1.0
C      1  0.4329160000000  0.5797320000000  0.5107460000000 1.0
C      1  0.4609420000000  0.5800460000000  0.4437280000000 1.0
C      1  0.5466410000000  0.5773660000000  0.4486860000000 1.0
C      1  0.5640130000000  0.5826630000000  0.5260140000000 1.0
C      1  0.4951790000000  0.4171710000000  0.5647590000000 1.0
C      1  0.5729880000000  0.4199060000000  0.5109720000000 1.0
C      1  0.5294500000000  0.4177830000000  0.4451580000000 1.0
C      1  0.4631480000000  0.4183400000000  0.4367320000000 1.0
C      1  0.4404860000000  0.4200850000000  0.5346760000000 1.0
C      1  0.5739550000000  0.4754230000000  0.4670350000000 1.0
C      1  0.5582280000000  0.4728150000000  0.5531240000000 1.0
C      1  0.4577160000000  0.4779840000000  0.5738200000000 1.0
C      1  0.4233990000000  0.4717970000000  0.4928920000000 1.0
C      1  0.4872810000000  0.4761300000000  0.4157290000000 1.0
C      1  0.4203150000000  0.5207660000000  0.4594200000000 1.0
C      1  0.4338010000000  0.5294920000000  0.5603050000000 1.0
C      1  0.5399090000000  0.5206190000000  0.5790850000000 1.0
C      1  0.5874110000000  0.5278810000000  0.4893790000000 1.0
C      1  0.5145630000000  0.5219160000000  0.4156010000000 1.0
C      1  0.5747280000000  0.4493260000000  0.5125140000000 1.0
C      1  0.4950090000000  0.4458900000000  0.5648280000000 1.0
C      1  0.4335750000000  0.4488270000000  0.5371640000000 1.0
C      1  0.4539010000000  0.4458260000000  0.4360220000000 1.0
C      1  0.5350640000000  0.4455610000000  0.4514160000000 1.0
C      1  0.4354230000000  0.5508340000000  0.5140170000000 1.0
C      1  0.5008460000000  0.5497410000000  0.5653300000000 1.0
C      1  0.5626240000000  0.5534520000000  0.5252680000000 1.0
C      1  0.5395720000000  0.5492060000000  0.4490440000000 1.0
C      1  0.4598490000000  0.5512440000000  0.4481600000000 1.0
C      1  0.4358600000000  0.5029780000000  0.5790920000000 1.0
C      1  0.5034120000000  0.4969160000000  0.3982510000000 1.0
C      1  0.5959320000000  0.5003120000000  0.4744180000000 1.0
C      1  0.4084180000000  0.4891140000000  0.4694630000000 1.0
C      1  0.5562480000000  0.4908660000000  0.5790540000000 1.0
END
