TITL C-862128-1543-752 -0.00575891570138593 125000 -653.46242254133 0 0 119 (C5) n - 1
REM
REM in /home/nfs/bkarasulu/CARBON/AIRSS/Generating-Clusters/TERSOFF/Higher-Symm/FIRE-HFTN
REM
REM
REM
REM
REM
REM ./C.cell (b20cbc046b6831c77cfcea5457e17084)
REM AIRSS Version 0.9.1 bugfix July 2018 build 013d7b7c2542+ Fri, 06 Jul 2018 19:26:36 +0100
REM compiler GCC version 9.2.1 20190827 (Red Hat 9.2.1-1)
REM options -cpp -mtune=generic -march=x86-64 -g -O0 -fpre-include=/usr/include/finclude/math-vector-fortran.h
REM seed 1475780727 -1088065872 205764800 651429945 -193269050 -1880198780 -1981542299 650720495 -996519115 -394155417 -526542975 1607836382 402266006 -362985131 -1977003411 1330530503 -1196298775 529300943 -1541090661 -618170906 -179913496 -774864720 376823319 -351751000 -1724259256 422030480 -822197541 2019997548 118007449 -964245108 -231205212 -718487178 -2119293930
REM
CELL 1.54180   50.00000   50.00000   50.00000   90.00000   90.00000   90.00000
LATT -1
SFAC C  
C      1  0.4752620000000  0.5146300000000  0.5813310000000 1.0
C      1  0.5703950000000  0.5146300000000  0.5484190000000 1.0
C      1  0.5684910000000  0.5146300000000  0.4477730000000 1.0
C      1  0.4721820000000  0.5146300000000  0.4184810000000 1.0
C      1  0.4145630000000  0.5146300000000  0.5010250000000 1.0
C      1  0.5686270000000  0.5144510000000  0.4185520000000 1.0
C      1  0.4444340000000  0.5144510000000  0.4093230000000 1.0
C      1  0.3972780000000  0.5144510000000  0.5245850000000 1.0
C      1  0.4923280000000  0.5144510000000  0.6050510000000 1.0
C      1  0.5982270000000  0.5144510000000  0.5395190000000 1.0
C      1  0.4761410000000  0.4624070000000  0.4288840000000 1.0
C      1  0.4256810000000  0.4624070000000  0.5004750000000 1.0
C      1  0.4781740000000  0.4624070000000  0.5705880000000 1.0
C      1  0.5610770000000  0.4624070000000  0.5423300000000 1.0
C      1  0.5598210000000  0.4624070000000  0.4547520000000 1.0
C      1  0.4923110000000  0.5835660000000  0.4645660000000 1.0
C      1  0.4646120000000  0.5835660000000  0.4961220000000 1.0
C      1  0.4860650000000  0.5835660000000  0.5322170000000 1.0
C      1  0.5270220000000  0.5835660000000  0.5229680000000 1.0
C      1  0.5308830000000  0.5835660000000  0.4811570000000 1.0
C      1  0.4909670000000  0.4360430000000  0.5567600000000 1.0
C      1  0.5518790000000  0.4360430000000  0.5258900000000 1.0
C      1  0.5413430000000  0.4360430000000  0.4584200000000 1.0
C      1  0.4739190000000  0.4360430000000  0.4475910000000 1.0
C      1  0.4427850000000  0.4360430000000  0.5083690000000 1.0
C      1  0.4659650000000  0.4322520000000  0.4890310000000 1.0
C      1  0.4797390000000  0.4322520000000  0.5287390000000 1.0
C      1  0.5217590000000  0.4322520000000  0.5279100000000 1.0
C      1  0.5339560000000  0.4322520000000  0.4876900000000 1.0
C      1  0.4994740000000  0.4322520000000  0.4636610000000 1.0
C      1  0.4320210000000  0.5402490000000  0.4897590000000 1.0
C      1  0.4699420000000  0.5402490000000  0.5612470000000 1.0
C      1  0.5496490000000  0.5402490000000  0.5472720000000 1.0
C      1  0.5609890000000  0.5402490000000  0.4671480000000 1.0
C      1  0.4882910000000  0.5402490000000  0.4316030000000 1.0
C      1  0.5037960000000  0.4804050000000  0.5547250000000 1.0
C      1  0.5539080000000  0.4804060000000  0.5130600000000 1.0
C      1  0.5297680000000  0.4804060000000  0.4525260000000 1.0
C      1  0.4647370000000  0.4804050000000  0.4567780000000 1.0
C      1  0.4486850000000  0.4804050000000  0.5199410000000 1.0
C      1  0.5198110000000  0.4289350000000  0.5590540000000 1.0
C      1  0.5629740000000  0.4289350000000  0.4991660000000 1.0
C      1  0.5193560000000  0.4289350000000  0.4396100000000 1.0
C      1  0.4492350000000  0.4289350000000  0.4626890000000 1.0
C      1  0.4495170000000  0.4289350000000  0.5365100000000 1.0
C      1  0.4494650000000  0.5596190000000  0.5073990000000 1.0
C      1  0.4921090000000  0.5596190000000  0.5501080000000 1.0
C      1  0.5459050000000  0.5596190000000  0.5227480000000 1.0
C      1  0.5365090000000  0.5596190000000  0.4631300000000 1.0
C      1  0.4769050000000  0.5596190000000  0.4536440000000 1.0
C      1  0.4469160000000  0.4485440000000  0.5591610000000 1.0
C      1  0.5405500000000  0.4485440000000  0.5685270000000 1.0
C      1  0.5783920000000  0.4485440000000  0.4823700000000 1.0
C      1  0.5081460000000  0.4485440000000  0.4197560000000 1.0
C      1  0.4268890000000  0.4485440000000  0.4672150000000 1.0
C      1  0.3844660000000  0.4902320000000  0.5357880000000 1.0
C      1  0.4990230000000  0.4902320000000  0.6206980000000 1.0
C      1  0.6151770000000  0.4902320000000  0.5379860000000 1.0
C      1  0.5724070000000  0.4902320000000  0.4019580000000 1.0
C      1  0.4298210000000  0.4902320000000  0.4005990000000 1.0
C      1  0.4400830000000  0.4954670000000  0.5508270000000 1.0
C      1  0.5305120000000  0.4954680000000  0.5724500000000 1.0
C      1  0.5790210000000  0.4954680000000  0.4931290000000 1.0
C      1  0.5185730000000  0.4954680000000  0.4224820000000 1.0
C      1  0.4327040000000  0.4954670000000  0.4581420000000 1.0
C      1  0.5526420000000  0.5151520000000  0.4883600000000 1.0
C      1  0.5058850000000  0.5151520000000  0.4460970000000 1.0
C      1  0.4512420000000  0.5151520000000  0.4775050000000 1.0
C      1  0.4642270000000  0.5151520000000  0.5391800000000 1.0
C      1  0.5268960000000  0.5151520000000  0.5458880000000 1.0
C      1  0.5355490000000  0.5467140000000  0.5738040000000 1.0
C      1  0.5818650000000  0.5467140000000  0.4887570000000 1.0
C      1  0.5152940000000  0.5467140000000  0.4184270000000 1.0
C      1  0.4278340000000  0.5467140000000  0.4600060000000 1.0
C      1  0.4403520000000  0.5467140000000  0.5560350000000 1.0
C      1  0.5320760000000  0.4696120000000  0.5875520000000 1.0
C      1  0.5938680000000  0.4696120000000  0.4963080000000 1.0
C      1  0.5261840000000  0.4696120000000  0.4093450000000 1.0
C      1  0.4225620000000  0.4696120000000  0.4468430000000 1.0
C      1  0.4262030000000  0.4696120000000  0.5569810000000 1.0
C      1  0.4229040000000  0.5216670000000  0.4454400000000 1.0
C      1  0.4249750000000  0.5216670000000  0.5562220000000 1.0
C      1  0.5309750000000  0.5216670000000  0.5884860000000 1.0
C      1  0.5944160000000  0.5216670000000  0.4976440000000 1.0
C      1  0.5276240000000  0.5216670000000  0.4092370000000 1.0
C      1  0.4621200000000  0.4899400000000  0.5726520000000 1.0
C      1  0.5580800000000  0.4899400000000  0.5582360000000 1.0
C      1  0.5740220000000  0.4899400000000  0.4625180000000 1.0
C      1  0.4879150000000  0.4899400000000  0.4177780000000 1.0
C      1  0.4187560000000  0.4899400000000  0.4858450000000 1.0
C      1  0.5180970000000  0.5398900000000  0.4794870000000 1.0
C      1  0.4867720000000  0.5398900000000  0.4762090000000 1.0
C      1  0.4739740000000  0.5398900000000  0.5049880000000 1.0
C      1  0.4973900000000  0.5398900000000  0.5260530000000 1.0
C      1  0.5246600000000  0.5398900000000  0.5102920000000 1.0
C      1  0.6102970000000  0.4675030000000  0.5200700000000 1.0
C      1  0.5538600000000  0.4675030000000  0.4010630000000 1.0
C      1  0.4232380000000  0.4675030000000  0.4179620000000 1.0
C      1  0.3989450000000  0.4675030000000  0.5474140000000 1.0
C      1  0.5145540000000  0.4675030000000  0.6105200000000 1.0
C      1  0.4650700000000  0.5077030000000  0.5059360000000 1.0
C      1  0.4955400000000  0.5077030000000  0.5348140000000 1.0
C      1  0.5324200000000  0.5077030000000  0.5147600000000 1.0
C      1  0.5247440000000  0.5077030000000  0.4734870000000 1.0
C      1  0.4831190000000  0.5077030000000  0.4680330000000 1.0
C      1  0.5072720000000  0.4633650000000  0.4646420000000 1.0
C      1  0.4693080000000  0.4633650000000  0.4819170000000 1.0
C      1  0.4740070000000  0.4633650000000  0.5233610000000 1.0
C      1  0.5148740000000  0.4633650000000  0.5317000000000 1.0
C      1  0.5354330000000  0.4633650000000  0.4954090000000 1.0
C      1  0.5714100000000  0.5643710000000  0.5089450000000 1.0
C      1  0.5312630000000  0.5643710000000  0.4346090000000 1.0
C      1  0.4481580000000  0.5643710000000  0.4498200000000 1.0
C      1  0.4369440000000  0.5643710000000  0.5335570000000 1.0
C      1  0.5131180000000  0.5643710000000  0.5700990000000 1.0
C      1  0.5001790000000  0.4245130000000  0.4994060000000 1.0
C      1  0.5001790000000  0.5010020000000  0.4994060000000 1.0
C      1  0.5001790000000  0.5881840000000  0.4994060000000 1.0
C      1  0.5001790000000  0.4703980000000  0.4994060000000 1.0
END
