TITL C-862500-986-614 -24.5236318275973 125000 -641.71660399745 0 0 112 (C1) n - 1
REM
REM in /home/nfs/bkarasulu/CARBON/AIRSS/Generating-Clusters/TERSOFF/Higher-Symm/FIRE-HFTN
REM
REM
REM
REM
REM
REM ./C.cell (b20cbc046b6831c77cfcea5457e17084)
REM AIRSS Version 0.9.1 bugfix July 2018 build 013d7b7c2542+ Fri, 06 Jul 2018 19:26:36 +0100
REM compiler GCC version 9.2.1 20190827 (Red Hat 9.2.1-1)
REM options -cpp -mtune=generic -march=x86-64 -g -O0 -fpre-include=/usr/include/finclude/math-vector-fortran.h
REM seed -97738691 -510447136 298249138 -2069550276 15874870 -1757268544 1396287456 266589080 620972649 -865512333 -1196756059 -1367617208 1632180802 1629433456 -992115728 165060800 -1120363816 24145690 713144986 1291702062 -285095021 -161319315 -598653822 -13690229 55823255 -1083571560 -1474083079 26198059 37383206 -728636007 -1845507268 1214816869 292337588
REM
CELL 1.54180   50.00000   50.00000   50.00000   90.00000   90.00000   90.00000
LATT -1
SFAC C  
C      1  0.5920940000000  0.5539040000000  0.5060270000000 1.0
C      1  0.4191340000000  0.5593920000000  0.5284870000000 1.0
C      1  0.5312790000000  0.4312080000000  0.4841970000000 1.0
C      1  0.5223050000000  0.4925490000000  0.4188520000000 1.0
C      1  0.4541130000000  0.4357760000000  0.5800980000000 1.0
C      1  0.5615020000000  0.4723920000000  0.5576090000000 1.0
C      1  0.5394410000000  0.5171320000000  0.4221740000000 1.0
C      1  0.4717310000000  0.4579220000000  0.5750370000000 1.0
C      1  0.5028160000000  0.4462150000000  0.4907660000000 1.0
C      1  0.4644760000000  0.5503710000000  0.5910180000000 1.0
C      1  0.4194820000000  0.5536630000000  0.4585780000000 1.0
C      1  0.4649060000000  0.5282280000000  0.5450580000000 1.0
C      1  0.4766890000000  0.4140290000000  0.5226330000000 1.0
C      1  0.4412770000000  0.4745920000000  0.4266590000000 1.0
C      1  0.5813720000000  0.5256900000000  0.4580240000000 1.0
C      1  0.5270030000000  0.5731410000000  0.4584600000000 1.0
C      1  0.4791980000000  0.5578550000000  0.4493190000000 1.0
C      1  0.4424730000000  0.5710190000000  0.5149990000000 1.0
C      1  0.4994840000000  0.5477450000000  0.4305190000000 1.0
C      1  0.4871610000000  0.5311470000000  0.4107310000000 1.0
C      1  0.5732040000000  0.5066410000000  0.5060010000000 1.0
C      1  0.5372350000000  0.5073240000000  0.4727670000000 1.0
C      1  0.4401710000000  0.4637550000000  0.5197570000000 1.0
C      1  0.4993690000000  0.5650120000000  0.5615690000000 1.0
C      1  0.4596960000000  0.5892040000000  0.5298410000000 1.0
C      1  0.5072950000000  0.5227220000000  0.5857390000000 1.0
C      1  0.5426580000000  0.5141870000000  0.5013090000000 1.0
C      1  0.5821470000000  0.5305680000000  0.4898030000000 1.0
C      1  0.5556500000000  0.4567920000000  0.5326040000000 1.0
C      1  0.5437350000000  0.4283150000000  0.5341480000000 1.0
C      1  0.4890140000000  0.4645470000000  0.4429720000000 1.0
C      1  0.5105710000000  0.4200060000000  0.4468320000000 1.0
C      1  0.5394360000000  0.5380600000000  0.5475300000000 1.0
C      1  0.4943670000000  0.3906770000000  0.4869290000000 1.0
C      1  0.5324510000000  0.4695110000000  0.5189440000000 1.0
C      1  0.4886160000000  0.4669210000000  0.4732250000000 1.0
C      1  0.4980040000000  0.4556030000000  0.5573380000000 1.0
C      1  0.4333580000000  0.5768490000000  0.4448370000000 1.0
C      1  0.4908950000000  0.4391250000000  0.5168830000000 1.0
C      1  0.4721600000000  0.4885900000000  0.4865680000000 1.0
C      1  0.4550290000000  0.5121960000000  0.4437400000000 1.0
C      1  0.5649530000000  0.5476170000000  0.4418140000000 1.0
C      1  0.4444670000000  0.5240230000000  0.4969290000000 1.0
C      1  0.4289380000000  0.4464760000000  0.4994810000000 1.0
C      1  0.4946820000000  0.5343430000000  0.5421110000000 1.0
C      1  0.5426060000000  0.4718600000000  0.5801200000000 1.0
C      1  0.4959740000000  0.4960160000000  0.5850290000000 1.0
C      1  0.5740130000000  0.4539220000000  0.4428260000000 1.0
C      1  0.4569060000000  0.4044180000000  0.5040310000000 1.0
C      1  0.4591070000000  0.4090050000000  0.5707110000000 1.0
C      1  0.4728470000000  0.5469160000000  0.4761050000000 1.0
C      1  0.4913960000000  0.5562760000000  0.5213170000000 1.0
C      1  0.4627360000000  0.5161250000000  0.4723350000000 1.0
C      1  0.5264560000000  0.4975080000000  0.5196460000000 1.0
C      1  0.4209020000000  0.4751800000000  0.4466770000000 1.0
C      1  0.4747580000000  0.5080720000000  0.4224520000000 1.0
C      1  0.4954200000000  0.4897950000000  0.4294580000000 1.0
C      1  0.5494330000000  0.5782210000000  0.5645770000000 1.0
C      1  0.5339380000000  0.5270910000000  0.5742250000000 1.0
C      1  0.5708340000000  0.4758730000000  0.4625370000000 1.0
C      1  0.5602290000000  0.4578870000000  0.4182580000000 1.0
C      1  0.5035980000000  0.5057810000000  0.5361430000000 1.0
C      1  0.5135550000000  0.4725850000000  0.5774890000000 1.0
C      1  0.4890500000000  0.4117350000000  0.4664720000000 1.0
C      1  0.4390590000000  0.4277060000000  0.4582720000000 1.0
C      1  0.5790400000000  0.4552450000000  0.5122590000000 1.0
C      1  0.4180570000000  0.4486870000000  0.4589790000000 1.0
C      1  0.5100650000000  0.5990060000000  0.4489460000000 1.0
C      1  0.4639190000000  0.4572140000000  0.4292640000000 1.0
C      1  0.5591200000000  0.5608820000000  0.5426520000000 1.0
C      1  0.4135870000000  0.5306910000000  0.5309030000000 1.0
C      1  0.5521590000000  0.5857550000000  0.4690460000000 1.0
C      1  0.5324460000000  0.4638580000000  0.4181370000000 1.0
C      1  0.5616250000000  0.4232680000000  0.4788190000000 1.0
C      1  0.4335140000000  0.4912940000000  0.5606310000000 1.0
C      1  0.4949600000000  0.5530320000000  0.4937470000000 1.0
C      1  0.5874130000000  0.5424770000000  0.5375390000000 1.0
C      1  0.5797720000000  0.4290590000000  0.5003220000000 1.0
C      1  0.5116760000000  0.3943390000000  0.5103190000000 1.0
C      1  0.4593700000000  0.4853490000000  0.5135500000000 1.0
C      1  0.5313380000000  0.5468210000000  0.4365420000000 1.0
C      1  0.4805450000000  0.6023460000000  0.4444110000000 1.0
C      1  0.5111470000000  0.4468620000000  0.4339200000000 1.0
C      1  0.4121940000000  0.4978440000000  0.4909110000000 1.0
C      1  0.5567850000000  0.5913530000000  0.4970700000000 1.0
C      1  0.4182120000000  0.5165620000000  0.5571140000000 1.0
C      1  0.6038870000000  0.5003700000000  0.4704720000000 1.0
C      1  0.5307940000000  0.4160380000000  0.5105290000000 1.0
C      1  0.4509270000000  0.5128900000000  0.5237000000000 1.0
C      1  0.4860960000000  0.4844800000000  0.5459070000000 1.0
C      1  0.4920080000000  0.5445180000000  0.5974800000000 1.0
C      1  0.4628720000000  0.5794040000000  0.4413970000000 1.0
C      1  0.5809190000000  0.4941070000000  0.5558130000000 1.0
C      1  0.4658060000000  0.4301760000000  0.4706550000000 1.0
C      1  0.4628570000000  0.4899530000000  0.5722230000000 1.0
C      1  0.5598060000000  0.5019990000000  0.4556220000000 1.0
C      1  0.3999360000000  0.5173420000000  0.5085370000000 1.0
C      1  0.5725580000000  0.4274920000000  0.4531030000000 1.0
C      1  0.5823850000000  0.5131400000000  0.5338990000000 1.0
C      1  0.5705340000000  0.5737070000000  0.5151520000000 1.0
C      1  0.4149350000000  0.5001610000000  0.4615330000000 1.0
C      1  0.5232820000000  0.5735790000000  0.5765140000000 1.0
C      1  0.4774860000000  0.4023870000000  0.5493100000000 1.0
C      1  0.5409420000000  0.5438420000000  0.4997290000000 1.0
C      1  0.4511010000000  0.5405220000000  0.5674650000000 1.0
C      1  0.4323080000000  0.4178980000000  0.4985480000000 1.0
C      1  0.4488340000000  0.5644740000000  0.4865700000000 1.0
C      1  0.4147580000000  0.5267220000000  0.4468480000000 1.0
C      1  0.4264370000000  0.4683490000000  0.5445470000000 1.0
C      1  0.5208270000000  0.5573450000000  0.4841230000000 1.0
C      1  0.4874850000000  0.5828190000000  0.5352850000000 1.0
C      1  0.5844210000000  0.4793420000000  0.4923660000000 1.0
END
