TITL C-862127-1500-152 14.9708316009313 125000 -1089.74880109114 0 0 186 (C1) n - 1
REM
REM in /home/nfs/bkarasulu/CARBON/AIRSS/Generating-Clusters/TERSOFF/Higher-Symm/FIRE-HFTN
REM
REM
REM
REM
REM
REM ./C.cell (b20cbc046b6831c77cfcea5457e17084)
REM AIRSS Version 0.9.1 bugfix July 2018 build 013d7b7c2542+ Fri, 06 Jul 2018 19:26:36 +0100
REM compiler GCC version 9.2.1 20190827 (Red Hat 9.2.1-1)
REM options -cpp -mtune=generic -march=x86-64 -g -O0 -fpre-include=/usr/include/finclude/math-vector-fortran.h
REM seed -1553206386 1954636706 -1228863007 999922109 1620228014 1163579304 54315765 1177652971 -1963601225 -1870961292 -1070134140 114444403 278317414 612652691 -1228619297 547456410 1732406409 -2116453025 -1235219498 -1262883997 -2011161521 819545922 242756234 2097369193 350864086 -372494485 1291405266 -981029849 629778193 -529064604 -1735879397 -1858048183 -872827526
REM
CELL 1.54180   50.00000   50.00000   50.00000   90.00000   90.00000   90.00000
LATT -1
SFAC C  
C      1  0.4311780000000  0.4612960000000  0.4991770000000 1.0
C      1  0.6171540000000  0.5471050000000  0.4761640000000 1.0
C      1  0.5147770000000  0.5138990000000  0.4929630000000 1.0
C      1  0.5284780000000  0.4556660000000  0.5558390000000 1.0
C      1  0.6032170000000  0.5250560000000  0.5187870000000 1.0
C      1  0.4543030000000  0.4755450000000  0.4495390000000 1.0
C      1  0.4554120000000  0.4321180000000  0.4795940000000 1.0
C      1  0.3969780000000  0.5283840000000  0.4988190000000 1.0
C      1  0.5468450000000  0.3940300000000  0.5350760000000 1.0
C      1  0.5836040000000  0.5333060000000  0.4550090000000 1.0
C      1  0.5923260000000  0.4119500000000  0.4783610000000 1.0
C      1  0.3983300000000  0.4309200000000  0.4741530000000 1.0
C      1  0.4749130000000  0.4066410000000  0.5531870000000 1.0
C      1  0.6070710000000  0.5856700000000  0.5084830000000 1.0
C      1  0.4292450000000  0.4170220000000  0.5391910000000 1.0
C      1  0.4170770000000  0.4341440000000  0.4964500000000 1.0
C      1  0.5603020000000  0.5776210000000  0.4444060000000 1.0
C      1  0.5569080000000  0.5234530000000  0.5868730000000 1.0
C      1  0.4915870000000  0.5548670000000  0.3914090000000 1.0
C      1  0.6042180000000  0.5946750000000  0.4610520000000 1.0
C      1  0.5266540000000  0.3922460000000  0.4672160000000 1.0
C      1  0.5561480000000  0.4931900000000  0.4804500000000 1.0
C      1  0.4892100000000  0.5767500000000  0.4108410000000 1.0
C      1  0.4105040000000  0.4674780000000  0.5663890000000 1.0
C      1  0.4807970000000  0.4337200000000  0.5129230000000 1.0
C      1  0.5074520000000  0.5604050000000  0.5165920000000 1.0
C      1  0.4260870000000  0.4960040000000  0.5991820000000 1.0
C      1  0.4898610000000  0.6113820000000  0.5621900000000 1.0
C      1  0.4294250000000  0.5615130000000  0.5170510000000 1.0
C      1  0.4368240000000  0.4801330000000  0.5746930000000 1.0
C      1  0.4817050000000  0.4844900000000  0.4450160000000 1.0
C      1  0.5928460000000  0.4988140000000  0.5194130000000 1.0
C      1  0.4646870000000  0.4904290000000  0.4000640000000 1.0
C      1  0.5400780000000  0.5009560000000  0.6180910000000 1.0
C      1  0.4350660000000  0.4948580000000  0.4617230000000 1.0
C      1  0.4021830000000  0.4631600000000  0.5390660000000 1.0
C      1  0.5305770000000  0.4797970000000  0.5720270000000 1.0
C      1  0.5115070000000  0.6304550000000  0.5196440000000 1.0
C      1  0.5446460000000  0.4639730000000  0.3760980000000 1.0
C      1  0.4892900000000  0.4224040000000  0.6132300000000 1.0
C      1  0.5656080000000  0.4959140000000  0.5312100000000 1.0
C      1  0.4239530000000  0.5718830000000  0.5573700000000 1.0
C      1  0.5314930000000  0.4118150000000  0.4880710000000 1.0
C      1  0.5756910000000  0.4842490000000  0.5581010000000 1.0
C      1  0.4576140000000  0.4432320000000  0.4525060000000 1.0
C      1  0.4855030000000  0.4383510000000  0.4393830000000 1.0
C      1  0.5068650000000  0.5277990000000  0.4443560000000 1.0
C      1  0.3875100000000  0.5446250000000  0.4737590000000 1.0
C      1  0.4390460000000  0.4975620000000  0.5308380000000 1.0
C      1  0.5100790000000  0.5496490000000  0.5717040000000 1.0
C      1  0.4578340000000  0.4534290000000  0.5423590000000 1.0
C      1  0.5186870000000  0.5884840000000  0.5128550000000 1.0
C      1  0.4965690000000  0.3963290000000  0.5381880000000 1.0
C      1  0.3740900000000  0.4878310000000  0.4763430000000 1.0
C      1  0.5548790000000  0.5257140000000  0.4201910000000 1.0
C      1  0.5191520000000  0.5452290000000  0.3895880000000 1.0
C      1  0.5204870000000  0.4542910000000  0.3891770000000 1.0
C      1  0.5731950000000  0.4992690000000  0.5833790000000 1.0
C      1  0.4720730000000  0.5066790000000  0.6201810000000 1.0
C      1  0.4360740000000  0.4293680000000  0.5690030000000 1.0
C      1  0.5061510000000  0.4579180000000  0.4799290000000 1.0
C      1  0.6005320000000  0.4682730000000  0.5501110000000 1.0
C      1  0.4773150000000  0.5212120000000  0.5451220000000 1.0
C      1  0.5488080000000  0.4769360000000  0.5115810000000 1.0
C      1  0.4991700000000  0.4616270000000  0.4521950000000 1.0
C      1  0.5429940000000  0.4379480000000  0.4824830000000 1.0
C      1  0.4554740000000  0.5719440000000  0.5182410000000 1.0
C      1  0.5965070000000  0.5391180000000  0.4945480000000 1.0
C      1  0.5662660000000  0.4539890000000  0.5305110000000 1.0
C      1  0.4387410000000  0.5764000000000  0.4721160000000 1.0
C      1  0.4249590000000  0.5369090000000  0.5028380000000 1.0
C      1  0.5199950000000  0.4435350000000  0.4160290000000 1.0
C      1  0.4350200000000  0.4071260000000  0.5064260000000 1.0
C      1  0.5251300000000  0.5168010000000  0.3919180000000 1.0
C      1  0.4996550000000  0.4314000000000  0.5845870000000 1.0
C      1  0.3986900000000  0.5436380000000  0.4446340000000 1.0
C      1  0.5198480000000  0.5876580000000  0.4614510000000 1.0
C      1  0.4077390000000  0.4369800000000  0.5262410000000 1.0
C      1  0.5099810000000  0.4354820000000  0.5152270000000 1.0
C      1  0.4146280000000  0.4878030000000  0.4029510000000 1.0
C      1  0.5134500000000  0.5064110000000  0.4635600000000 1.0
C      1  0.5752870000000  0.5598080000000  0.5425060000000 1.0
C      1  0.4516090000000  0.5768730000000  0.5668770000000 1.0
C      1  0.4375720000000  0.5457930000000  0.4789670000000 1.0
C      1  0.4770830000000  0.4801690000000  0.6328330000000 1.0
C      1  0.5647980000000  0.4758940000000  0.4556030000000 1.0
C      1  0.5382700000000  0.5626950000000  0.4571360000000 1.0
C      1  0.4131460000000  0.5454130000000  0.5521870000000 1.0
C      1  0.4718370000000  0.3995300000000  0.6052980000000 1.0
C      1  0.5465570000000  0.5486790000000  0.4840760000000 1.0
C      1  0.5305920000000  0.5988190000000  0.4871100000000 1.0
C      1  0.5977660000000  0.5408580000000  0.5429210000000 1.0
C      1  0.5478190000000  0.5481680000000  0.5445880000000 1.0
C      1  0.4447150000000  0.5152680000000  0.6120730000000 1.0
C      1  0.4764700000000  0.5698490000000  0.4379730000000 1.0
C      1  0.4610670000000  0.4252730000000  0.5355020000000 1.0
C      1  0.4758070000000  0.6083850000000  0.4719180000000 1.0
C      1  0.4863540000000  0.4965570000000  0.4196690000000 1.0
C      1  0.5467910000000  0.4364230000000  0.4283110000000 1.0
C      1  0.4531990000000  0.5999330000000  0.4870540000000 1.0
C      1  0.4468570000000  0.5069490000000  0.5582410000000 1.0
C      1  0.6253670000000  0.5298900000000  0.4521870000000 1.0
C      1  0.6176000000000  0.5779460000000  0.4807650000000 1.0
C      1  0.5227850000000  0.4054460000000  0.5465490000000 1.0
C      1  0.5623550000000  0.5239370000000  0.4738520000000 1.0
C      1  0.4782290000000  0.4542230000000  0.5881590000000 1.0
C      1  0.6108320000000  0.5048760000000  0.4404440000000 1.0
C      1  0.4940910000000  0.4719970000000  0.5018930000000 1.0
C      1  0.5257260000000  0.6019090000000  0.4359080000000 1.0
C      1  0.4109570000000  0.4411340000000  0.4257600000000 1.0
C      1  0.5743650000000  0.4114610000000  0.5691710000000 1.0
C      1  0.6108350000000  0.4548300000000  0.4984490000000 1.0
C      1  0.4228260000000  0.5235520000000  0.5676590000000 1.0
C      1  0.4421180000000  0.5438290000000  0.6058650000000 1.0
C      1  0.5230890000000  0.5047320000000  0.5590910000000 1.0
C      1  0.4947070000000  0.5251860000000  0.6140500000000 1.0
C      1  0.5788010000000  0.5776920000000  0.5180610000000 1.0
C      1  0.4976940000000  0.6459390000000  0.4993590000000 1.0
C      1  0.4811030000000  0.5403420000000  0.4431070000000 1.0
C      1  0.4745070000000  0.4538530000000  0.6188720000000 1.0
C      1  0.4233390000000  0.4599640000000  0.4069040000000 1.0
C      1  0.5182020000000  0.5884000000000  0.4115080000000 1.0
C      1  0.4375230000000  0.5063070000000  0.4000140000000 1.0
C      1  0.5358670000000  0.5317520000000  0.5675290000000 1.0
C      1  0.4952330000000  0.5481090000000  0.5466830000000 1.0
C      1  0.5978930000000  0.4824000000000  0.4560500000000 1.0
C      1  0.4444940000000  0.5169860000000  0.5107720000000 1.0
C      1  0.4649020000000  0.4014210000000  0.4914530000000 1.0
C      1  0.4426500000000  0.4702380000000  0.5245230000000 1.0
C      1  0.5307780000000  0.5413240000000  0.4356310000000 1.0
C      1  0.5024570000000  0.4139000000000  0.4266590000000 1.0
C      1  0.5791610000000  0.5398740000000  0.4263360000000 1.0
C      1  0.4587100000000  0.6012330000000  0.5200930000000 1.0
C      1  0.5007120000000  0.3951190000000  0.4521110000000 1.0
C      1  0.5341830000000  0.4782940000000  0.6009050000000 1.0
C      1  0.5971510000000  0.4289860000000  0.5015940000000 1.0
C      1  0.6102960000000  0.4743280000000  0.5212700000000 1.0
C      1  0.5736030000000  0.5574220000000  0.4965350000000 1.0
C      1  0.4396650000000  0.5255570000000  0.4575550000000 1.0
C      1  0.3968620000000  0.4486490000000  0.4507960000000 1.0
C      1  0.5727710000000  0.4059840000000  0.5401890000000 1.0
C      1  0.5254070000000  0.4284500000000  0.5684300000000 1.0
C      1  0.5074260000000  0.3690190000000  0.4964520000000 1.0
C      1  0.4529150000000  0.4618650000000  0.4013660000000 1.0
C      1  0.3860490000000  0.5096610000000  0.5459860000000 1.0
C      1  0.5353000000000  0.4925760000000  0.4432000000000 1.0
C      1  0.4909850000000  0.5475550000000  0.5942110000000 1.0
C      1  0.4772810000000  0.5547180000000  0.5093210000000 1.0
C      1  0.3797030000000  0.4725050000000  0.4520120000000 1.0
C      1  0.4868570000000  0.6350530000000  0.4747530000000 1.0
C      1  0.5593380000000  0.6067370000000  0.4837170000000 1.0
C      1  0.5752620000000  0.5970420000000  0.4600320000000 1.0
C      1  0.5621220000000  0.4846870000000  0.3867940000000 1.0
C      1  0.4203230000000  0.4842560000000  0.4849410000000 1.0
C      1  0.4351390000000  0.5339870000000  0.4075730000000 1.0
C      1  0.5509120000000  0.4216700000000  0.5831770000000 1.0
C      1  0.3909190000000  0.5369060000000  0.5313720000000 1.0
C      1  0.5009240000000  0.5039210000000  0.5401950000000 1.0
C      1  0.3898180000000  0.4870320000000  0.5261550000000 1.0
C      1  0.5781630000000  0.4290480000000  0.5231170000000 1.0
C      1  0.5532080000000  0.5114110000000  0.3933300000000 1.0
C      1  0.6159420000000  0.4645910000000  0.4713380000000 1.0
C      1  0.4704390000000  0.5274400000000  0.5162870000000 1.0
C      1  0.5670750000000  0.5673800000000  0.4175810000000 1.0
C      1  0.5055160000000  0.6312510000000  0.5480250000000 1.0
C      1  0.5392860000000  0.5684560000000  0.4001290000000 1.0
C      1  0.4291250000000  0.5434100000000  0.4347260000000 1.0
C      1  0.5710540000000  0.4163690000000  0.4590150000000 1.0
C      1  0.5574610000000  0.4455400000000  0.4558950000000 1.0
C      1  0.4623350000000  0.5591490000000  0.5907350000000 1.0
C      1  0.4452770000000  0.5701650000000  0.4426370000000 1.0
C      1  0.3948770000000  0.4966190000000  0.4959430000000 1.0
C      1  0.5048770000000  0.4957770000000  0.5125250000000 1.0
C      1  0.4744960000000  0.3893870000000  0.4646500000000 1.0
C      1  0.5246430000000  0.4581590000000  0.5271720000000 1.0
C      1  0.3992690000000  0.5069050000000  0.5793920000000 1.0
C      1  0.5150530000000  0.4996890000000  0.4142740000000 1.0
C      1  0.5206870000000  0.5209180000000  0.6265190000000 1.0
C      1  0.4906790000000  0.3890830000000  0.5094170000000 1.0
C      1  0.5511200000000  0.3940980000000  0.4494900000000 1.0
C      1  0.5378630000000  0.4067420000000  0.4254070000000 1.0
C      1  0.5243500000000  0.5402870000000  0.5007210000000 1.0
C      1  0.4543230000000  0.4558990000000  0.5719230000000 1.0
C      1  0.4675950000000  0.5966990000000  0.5508200000000 1.0
C      1  0.4903580000000  0.5872330000000  0.4589080000000 1.0
C      1  0.4632860000000  0.3939580000000  0.5774840000000 1.0
END
