TITL C-862500-986-315 0.00113552796721265 125000 -1066.7209373687 0 0 183 (Cs) n - 1
REM
REM in /home/nfs/bkarasulu/CARBON/AIRSS/Generating-Clusters/TERSOFF/Higher-Symm/FIRE-HFTN
REM
REM
REM
REM
REM
REM ./C.cell (b20cbc046b6831c77cfcea5457e17084)
REM AIRSS Version 0.9.1 bugfix July 2018 build 013d7b7c2542+ Fri, 06 Jul 2018 19:26:36 +0100
REM compiler GCC version 9.2.1 20190827 (Red Hat 9.2.1-1)
REM options -cpp -mtune=generic -march=x86-64 -g -O0 -fpre-include=/usr/include/finclude/math-vector-fortran.h
REM seed 74931839 -389175974 -1957904731 1888934326 1502748128 1429714932 -1723315999 1452341756 1775937839 -914736615 -830434334 222979481 219454679 1299134324 -1981235243 1215627463 927917774 -1105433638 -377768289 397951864 -587036947 520446797 -768029014 -413655276 -1792292208 -1967739299 1525584913 -1829578714 1496955949 -394690679 787909091 374468272 -287570811
REM
CELL 1.54180   50.00000   50.00000   50.00000   90.00000   90.00000   90.00000
LATT -1
SFAC C  
C      1  0.4648480000000  0.4342490000000  0.4985820000000 1.0
C      1  0.5141070000000  0.4391480000000  0.5271930000000 1.0
C      1  0.5152230000000  0.4369240000000  0.4706030000000 1.0
C      1  0.5306040000000  0.4391470000000  0.4986240000000 1.0
C      1  0.4821490000000  0.4369240000000  0.5278800000000 1.0
C      1  0.4811990000000  0.4342490000000  0.4702640000000 1.0
C      1  0.6190010000000  0.5075900000000  0.5478840000000 1.0
C      1  0.4802530000000  0.5090460000000  0.3721240000000 1.0
C      1  0.3973490000000  0.5089850000000  0.5781670000000 1.0
C      1  0.3793770000000  0.5090470000000  0.5468220000000 1.0
C      1  0.5163830000000  0.5089850000000  0.3720200000000 1.0
C      1  0.6009610000000  0.5075910000000  0.5791270000000 1.0
C      1  0.5349700000000  0.4198130000000  0.4377900000000 1.0
C      1  0.4257300000000  0.4191230000000  0.4981650000000 1.0
C      1  0.5343500000000  0.4204710000000  0.5589000000000 1.0
C      1  0.4612830000000  0.4191230000000  0.4365940000000 1.0
C      1  0.5681840000000  0.4204700000000  0.5003060000000 1.0
C      1  0.4636020000000  0.4198130000000  0.5613860000000 1.0
C      1  0.5183730000000  0.5919780000000  0.4698470000000 1.0
C      1  0.4653640000000  0.5892670000000  0.4996260000000 1.0
C      1  0.5169420000000  0.5947920000000  0.5306820000000 1.0
C      1  0.4823620000000  0.5892670000000  0.4701880000000 1.0
C      1  0.5350430000000  0.5947920000000  0.4993350000000 1.0
C      1  0.4830700000000  0.5919780000000  0.5309860000000 1.0
C      1  0.4354150000000  0.5891490000000  0.4978300000000 1.0
C      1  0.5310160000000  0.5916730000000  0.5582610000000 1.0
C      1  0.5344000000000  0.5909230000000  0.4440550000000 1.0
C      1  0.5659640000000  0.5916730000000  0.4977370000000 1.0
C      1  0.4687430000000  0.5909230000000  0.5577600000000 1.0
C      1  0.4658350000000  0.5891490000000  0.4451480000000 1.0
C      1  0.5775740000000  0.4414230000000  0.4202410000000 1.0
C      1  0.3891070000000  0.4412440000000  0.4704750000000 1.0
C      1  0.5292960000000  0.4407140000000  0.6068040000000 1.0
C      1  0.4189930000000  0.4412440000000  0.4187180000000 1.0
C      1  0.6071460000000  0.4407130000000  0.4719810000000 1.0
C      1  0.4697010000000  0.4414240000000  0.6070580000000 1.0
C      1  0.5573990000000  0.5390740000000  0.5020480000000 1.0
C      1  0.4791320000000  0.5318210000000  0.4581480000000 1.0
C      1  0.4784030000000  0.5361450000000  0.5457340000000 1.0
C      1  0.4533210000000  0.5318210000000  0.5028480000000 1.0
C      1  0.5288130000000  0.5361450000000  0.4584330000000 1.0
C      1  0.5304680000000  0.5390740000000  0.5486890000000 1.0
C      1  0.5764630000000  0.4835410000000  0.4801030000000 1.0
C      1  0.4439360000000  0.4798960000000  0.4420720000000 1.0
C      1  0.4765790000000  0.4835230000000  0.5767950000000 1.0
C      1  0.4218030000000  0.4798960000000  0.4804020000000 1.0
C      1  0.5548020000000  0.4835230000000  0.4413260000000 1.0
C      1  0.5209920000000  0.4835420000000  0.5761700000000 1.0
C      1  0.4385020000000  0.5457670000000  0.4323470000000 1.0
C      1  0.4709680000000  0.5491720000000  0.5928420000000 1.0
C      1  0.5984500000000  0.5512120000000  0.4763730000000 1.0
C      1  0.5658960000000  0.5491720000000  0.4284430000000 1.0
C      1  0.5287520000000  0.5512120000000  0.5970770000000 1.0
C      1  0.4106640000000  0.5457670000000  0.4805570000000 1.0
C      1  0.5251290000000  0.4878500000000  0.4119700000000 1.0
C      1  0.4102480000000  0.4876990000000  0.5199830000000 1.0
C      1  0.5611770000000  0.4888140000000  0.5653430000000 1.0
C      1  0.4724400000000  0.4876990000000  0.4122780000000 1.0
C      1  0.5871750000000  0.4888140000000  0.5203190000000 1.0
C      1  0.4363210000000  0.4878510000000  0.5657700000000 1.0
C      1  0.5816210000000  0.5162510000000  0.5308630000000 1.0
C      1  0.4848580000000  0.5152430000000  0.4133770000000 1.0
C      1  0.4314680000000  0.5153520000000  0.5545720000000 1.0
C      1  0.4174080000000  0.5152440000000  0.5301890000000 1.0
C      1  0.5130040000000  0.5153510000000  0.4133650000000 1.0
C      1  0.5675320000000  0.5162520000000  0.5552620000000 1.0
C      1  0.4833210000000  0.5766400000000  0.5814470000000 1.0
C      1  0.5787780000000  0.5773430000000  0.4723140000000 1.0
C      1  0.4390380000000  0.5734230000000  0.4464200000000 1.0
C      1  0.5154030000000  0.5773430000000  0.5820680000000 1.0
C      1  0.4231210000000  0.5734230000000  0.4739860000000 1.0
C      1  0.5622020000000  0.5766400000000  0.4448390000000 1.0
C      1  0.4427330000000  0.4645140000000  0.5486080000000 1.0
C      1  0.5677710000000  0.4665920000000  0.5222840000000 1.0
C      1  0.4842880000000  0.4638520000000  0.4255050000000 1.0
C      1  0.5531790000000  0.4665920000000  0.5475560000000 1.0
C      1  0.4276270000000  0.4638520000000  0.5236320000000 1.0
C      1  0.5134700000000  0.4645140000000  0.4261030000000 1.0
C      1  0.6065760000000  0.4850360000000  0.4965470000000 1.0
C      1  0.4419090000000  0.4848360000000  0.4078350000000 1.0
C      1  0.4475010000000  0.4852950000000  0.5944000000000 1.0
C      1  0.3911380000000  0.4848360000000  0.4957610000000 1.0
C      1  0.5555140000000  0.4852950000000  0.4073410000000 1.0
C      1  0.5502870000000  0.4850360000000  0.5940300000000 1.0
C      1  0.5189330000000  0.5621100000000  0.5289530000000 1.0
C      1  0.5185330000000  0.5601610000000  0.4752540000000 1.0
C      1  0.4722160000000  0.5575310000000  0.5017580000000 1.0
C      1  0.4878330000000  0.5601620000000  0.5284210000000 1.0
C      1  0.4876330000000  0.5575310000000  0.4750580000000 1.0
C      1  0.5345410000000  0.5621100000000  0.5019240000000 1.0
C      1  0.5221650000000  0.5316730000000  0.5757900000000 1.0
C      1  0.5537030000000  0.5297720000000  0.4462840000000 1.0
C      1  0.4312170000000  0.5257220000000  0.4845070000000 1.0
C      1  0.4803240000000  0.5297730000000  0.5733640000000 1.0
C      1  0.4521970000000  0.5257220000000  0.4481730000000 1.0
C      1  0.5767210000000  0.5316730000000  0.4813090000000 1.0
C      1  0.5216690000000  0.5202300000000  0.5287280000000 1.0
C      1  0.5207850000000  0.5184650000000  0.4797540000000 1.0
C      1  0.4785310000000  0.5160650000000  0.5038470000000 1.0
C      1  0.4928560000000  0.5184650000000  0.5281230000000 1.0
C      1  0.4926000000000  0.5160650000000  0.4794830000000 1.0
C      1  0.5357130000000  0.5202300000000  0.5044060000000 1.0
C      1  0.4412790000000  0.5400190000000  0.5994480000000 1.0
C      1  0.6165660000000  0.5396350000000  0.5004000000000 1.0
C      1  0.4404720000000  0.5392650000000  0.4013260000000 1.0
C      1  0.5586180000000  0.5396350000000  0.6007560000000 1.0
C      1  0.3847830000000  0.5392650000000  0.4977710000000 1.0
C      1  0.5567750000000  0.5400180000000  0.3994280000000 1.0
C      1  0.6061380000000  0.4456800000000  0.4216920000000 1.0
C      1  0.3761730000000  0.4465640000000  0.4450970000000 1.0
C      1  0.5139210000000  0.4448630000000  0.6310220000000 1.0
C      1  0.3905480000000  0.4465640000000  0.4202020000000 1.0
C      1  0.6204340000000  0.4448620000000  0.4465590000000 1.0
C      1  0.4852370000000  0.4456810000000  0.6310710000000 1.0
C      1  0.5493950000000  0.5106820000000  0.3864820000000 1.0
C      1  0.3761290000000  0.5103590000000  0.5109170000000 1.0
C      1  0.5717140000000  0.5099110000000  0.6000400000000 1.0
C      1  0.4475320000000  0.5103590000000  0.3872600000000 1.0
C      1  0.6224930000000  0.5099110000000  0.5121000000000 1.0
C      1  0.4263770000000  0.5106830000000  0.5995280000000 1.0
C      1  0.4908170000000  0.4044980000000  0.5317270000000 1.0
C      1  0.5402240000000  0.4081870000000  0.5032220000000 1.0
C      1  0.4913590000000  0.4026010000000  0.4767740000000 1.0
C      1  0.5228990000000  0.4081870000000  0.5332270000000 1.0
C      1  0.4755640000000  0.4026010000000  0.5041270000000 1.0
C      1  0.5228880000000  0.4044980000000  0.4761870000000 1.0
C      1  0.4217720000000  0.5900550000000  0.5239760000000 1.0
C      1  0.5606490000000  0.5910270000000  0.5559110000000 1.0
C      1  0.5176980000000  0.5908810000000  0.4197750000000 1.0
C      1  0.5787420000000  0.5910270000000  0.5245770000000 1.0
C      1  0.4393660000000  0.5908810000000  0.5554320000000 1.0
C      1  0.4816590000000  0.5900540000000  0.4202620000000 1.0
C      1  0.5134110000000  0.5655030000000  0.4017740000000 1.0
C      1  0.4063880000000  0.5651480000000  0.5356590000000 1.0
C      1  0.5782290000000  0.5657330000000  0.5622190000000 1.0
C      1  0.4840870000000  0.5651480000000  0.4010980000000 1.0
C      1  0.5929940000000  0.5657330000000  0.5366490000000 1.0
C      1  0.4216320000000  0.5655040000000  0.5607180000000 1.0
C      1  0.5099890000000  0.4805750000000  0.5222560000000 1.0
C      1  0.5102520000000  0.4785030000000  0.4731030000000 1.0
C      1  0.4675480000000  0.4761050000000  0.4976430000000 1.0
C      1  0.4818300000000  0.4785040000000  0.5223250000000 1.0
C      1  0.4817360000000  0.4761050000000  0.4730730000000 1.0
C      1  0.5242690000000  0.4805750000000  0.4975260000000 1.0
C      1  0.4365740000000  0.4557830000000  0.3995290000000 1.0
C      1  0.4439330000000  0.4557900000000  0.6023040000000 1.0
C      1  0.6155540000000  0.4557560000000  0.4962910000000 1.0
C      1  0.5605760000000  0.4557900000000  0.4003000000000 1.0
C      1  0.5545530000000  0.4557570000000  0.6019340000000 1.0
C      1  0.3812770000000  0.4557830000000  0.4952930000000 1.0
C      1  0.5156750000000  0.4274220000000  0.5831070000000 1.0
C      1  0.5638740000000  0.4278350000000  0.4433890000000 1.0
C      1  0.4157840000000  0.4273910000000  0.4703330000000 1.0
C      1  0.4829010000000  0.4278360000000  0.5836200000000 1.0
C      1  0.4322060000000  0.4273910000000  0.4418920000000 1.0
C      1  0.5798130000000  0.4274220000000  0.4720300000000 1.0
C      1  0.5792410000000  0.4361980000000  0.5249020000000 1.0
C      1  0.4803670000000  0.4332330000000  0.4149950000000 1.0
C      1  0.4354790000000  0.4338630000000  0.5565160000000 1.0
C      1  0.4165640000000  0.4332330000000  0.5254910000000 1.0
C      1  0.5166930000000  0.4338630000000  0.4158670000000 1.0
C      1  0.5611800000000  0.4361990000000  0.5561820000000 1.0
C      1  0.4033550000000  0.5404670000000  0.5215700000000 1.0
C      1  0.5676300000000  0.5411030000000  0.5722370000000 1.0
C      1  0.5274590000000  0.5408970000000  0.4056580000000 1.0
C      1  0.5963710000000  0.5411020000000  0.5224620000000 1.0
C      1  0.4320190000000  0.5408970000000  0.5709430000000 1.0
C      1  0.4703680000000  0.5404670000000  0.4055150000000 1.0
C      1  0.5518380000000  0.4670290000000  0.4968140000000 1.0
C      1  0.4688180000000  0.4614360000000  0.4508730000000 1.0
C      1  0.4723600000000  0.4645960000000  0.5473040000000 1.0
C      1  0.4418640000000  0.4614360000000  0.4975530000000 1.0
C      1  0.5271520000000  0.4645960000000  0.4524150000000 1.0
C      1  0.5231540000000  0.4670290000000  0.5464890000000 1.0
C      1  0.5723350000000  0.4414010000000  0.5833970000000 1.0
C      1  0.5359750000000  0.4407800000000  0.3933720000000 1.0
C      1  0.3875220000000  0.4407790000000  0.5200950000000 1.0
C      1  0.4256350000000  0.4407800000000  0.5844610000000 1.0
C      1  0.4611760000000  0.4407790000000  0.3925400000000 1.0
C      1  0.6083890000000  0.4414010000000  0.5209580000000 1.0
C      1  0.4997660000000  0.5058260000000  0.5809210000000 1.0
C      1  0.4343490000000  0.5022380000000  0.4620910000000 1.0
C      1  0.5699680000000  0.5058250000000  0.4593450000000 1.0
END
