TITL C-862502-1143-100 -0.0310263176038375 125000 -302.482710470454 0 0 57 (C1) n - 1
REM
REM in /home/nfs/bkarasulu/CARBON/AIRSS/Generating-Clusters/TERSOFF/Higher-Symm/FIRE-HFTN
REM
REM
REM
REM
REM
REM ./C.cell (b20cbc046b6831c77cfcea5457e17084)
REM AIRSS Version 0.9.1 bugfix July 2018 build 013d7b7c2542+ Fri, 06 Jul 2018 19:26:36 +0100
REM compiler GCC version 9.2.1 20190827 (Red Hat 9.2.1-1)
REM options -cpp -mtune=generic -march=x86-64 -g -O0 -fpre-include=/usr/include/finclude/math-vector-fortran.h
REM seed -1141458703 -114267309 986128305 1875359127 -263465701 53076138 1272930230 1235725939 -1262514417 13315288 -2103043308 -1876842313 5697198 -1181468576 -308892034 -911198000 -1765129866 2066823915 918191105 -1369009624 1134216058 1054195799 1502334888 -1730150280 60872437 1164872543 369709983 -1501346599 -1187271437 292948124 -1623707378 -1143839262 2105240956
REM
CELL 1.54180   50.00000   50.00000   50.00000   90.00000   90.00000   90.00000
LATT -1
SFAC C  
C      1  0.4891370000000  0.5198910000000  0.5517130000000 1.0
C      1  0.4763240000000  0.5169270000000  0.4772930000000 1.0
C      1  0.5714170000000  0.4461930000000  0.5116610000000 1.0
C      1  0.5349560000000  0.5175770000000  0.4649380000000 1.0
C      1  0.4650960000000  0.4404760000000  0.4789830000000 1.0
C      1  0.4380430000000  0.5124780000000  0.5506130000000 1.0
C      1  0.5102270000000  0.5558420000000  0.5466420000000 1.0
C      1  0.4824550000000  0.5279260000000  0.5245220000000 1.0
C      1  0.4758420000000  0.5416730000000  0.4335400000000 1.0
C      1  0.4618860000000  0.5108040000000  0.5043680000000 1.0
C      1  0.5045910000000  0.4974200000000  0.4687030000000 1.0
C      1  0.5146000000000  0.5711520000000  0.5077930000000 1.0
C      1  0.5305610000000  0.5107670000000  0.5372950000000 1.0
C      1  0.5344110000000  0.4841150000000  0.4951020000000 1.0
C      1  0.4950300000000  0.4617590000000  0.5181080000000 1.0
C      1  0.5793750000000  0.4849450000000  0.4780580000000 1.0
C      1  0.5405830000000  0.5531220000000  0.5065880000000 1.0
C      1  0.4509600000000  0.5396190000000  0.5563680000000 1.0
C      1  0.4769770000000  0.4548150000000  0.4517150000000 1.0
C      1  0.4938670000000  0.5393200000000  0.4857620000000 1.0
C      1  0.4196140000000  0.5150940000000  0.5280010000000 1.0
C      1  0.5884910000000  0.4665830000000  0.4990960000000 1.0
C      1  0.5128340000000  0.4430530000000  0.4743840000000 1.0
C      1  0.4613270000000  0.4556070000000  0.4272630000000 1.0
C      1  0.5002520000000  0.5272360000000  0.4251280000000 1.0
C      1  0.4344250000000  0.5249410000000  0.5049040000000 1.0
C      1  0.4979990000000  0.4325110000000  0.5268540000000 1.0
C      1  0.5092090000000  0.4986220000000  0.5549520000000 1.0
C      1  0.5684830000000  0.4438550000000  0.5404880000000 1.0
C      1  0.4556160000000  0.4813230000000  0.5176760000000 1.0
C      1  0.5204540000000  0.5315400000000  0.4923950000000 1.0
C      1  0.4906680000000  0.4250990000000  0.4795340000000 1.0
C      1  0.4616500000000  0.5371770000000  0.4589140000000 1.0
C      1  0.5593330000000  0.5398920000000  0.4796020000000 1.0
C      1  0.5429280000000  0.4376970000000  0.5535500000000 1.0
C      1  0.4525040000000  0.5623920000000  0.4776520000000 1.0
C      1  0.4538220000000  0.4519600000000  0.5059580000000 1.0
C      1  0.5403530000000  0.4648880000000  0.4515380000000 1.0
C      1  0.4974650000000  0.5890940000000  0.4718610000000 1.0
C      1  0.5269510000000  0.5298520000000  0.4377290000000 1.0
C      1  0.5256890000000  0.5071160000000  0.5087680000000 1.0
C      1  0.4841760000000  0.4769600000000  0.4872560000000 1.0
C      1  0.4824790000000  0.5661650000000  0.4812140000000 1.0
C      1  0.5346290000000  0.5411210000000  0.5374210000000 1.0
C      1  0.5446010000000  0.4347970000000  0.4655370000000 1.0
C      1  0.4878850000000  0.5607490000000  0.5240740000000 1.0
C      1  0.5224470000000  0.4584820000000  0.5008530000000 1.0
C      1  0.4556920000000  0.5596630000000  0.5306630000000 1.0
C      1  0.4886910000000  0.4787290000000  0.5434160000000 1.0
C      1  0.4570270000000  0.4859630000000  0.5481360000000 1.0
C      1  0.5066560000000  0.4679930000000  0.4530010000000 1.0
C      1  0.4753090000000  0.5342810000000  0.5734910000000 1.0
C      1  0.4546500000000  0.4810180000000  0.4757030000000 1.0
C      1  0.5473300000000  0.4386090000000  0.4978090000000 1.0
C      1  0.5212370000000  0.4215800000000  0.5414730000000 1.0
C      1  0.5508660000000  0.4875090000000  0.4696860000000 1.0
C      1  0.4399240000000  0.5540290000000  0.5042530000000 1.0
END
