TITL C-862504-1170-54 -0.000122651379939956 125000 -362.413348403112 0 0 70 (C2) n - 1
REM
REM in /home/nfs/bkarasulu/CARBON/AIRSS/Generating-Clusters/TERSOFF/Higher-Symm/FIRE-HFTN
REM
REM
REM
REM
REM
REM ./C.cell (b20cbc046b6831c77cfcea5457e17084)
REM AIRSS Version 0.9.1 bugfix July 2018 build 013d7b7c2542+ Fri, 06 Jul 2018 19:26:36 +0100
REM compiler GCC version 9.2.1 20190827 (Red Hat 9.2.1-1)
REM options -cpp -mtune=generic -march=x86-64 -g -O0 -fpre-include=/usr/include/finclude/math-vector-fortran.h
REM seed -1503910824 2102194175 1374729673 -1466602919 108675575 -1430048884 -1128850033 -2102090175 860045369 -94306928 -436072205 -2084269240 532421287 -1495984771 -1535777781 -545836461 1985729200 1661467812 2065651065 -1335883634 -1985829681 -1115436962 245951270 -1205111774 -1559471055 -1503235125 -484339428 -1165155085 400830364 -1873703527 -1724171420 -1856555187 1721760388
REM
CELL 1.54180   50.00000   50.00000   50.00000   90.00000   90.00000   90.00000
LATT -1
SFAC C  
C      1  0.5306270000000  0.4409010000000  0.5272360000000 1.0
C      1  0.4410410000000  0.4701900000000  0.5301600000000 1.0
C      1  0.4676800000000  0.5603190000000  0.5289180000000 1.0
C      1  0.5578150000000  0.5328090000000  0.5307550000000 1.0
C      1  0.5322570000000  0.5603180000000  0.4695880000000 1.0
C      1  0.4421220000000  0.5328120000000  0.4677500000000 1.0
C      1  0.4693060000000  0.4409030000000  0.4712680000000 1.0
C      1  0.5588930000000  0.4701880000000  0.4683440000000 1.0
C      1  0.5293260000000  0.5137750000000  0.5067200000000 1.0
C      1  0.5125050000000  0.4718800000000  0.5057890000000 1.0
C      1  0.4700890000000  0.4891330000000  0.5066910000000 1.0
C      1  0.4875590000000  0.5312800000000  0.5062300000000 1.0
C      1  0.5298460000000  0.4891320000000  0.4918130000000 1.0
C      1  0.5123780000000  0.5312790000000  0.4922750000000 1.0
C      1  0.4706100000000  0.5137760000000  0.4917850000000 1.0
C      1  0.4874290000000  0.4718810000000  0.4927140000000 1.0
C      1  0.4630730000000  0.4626930000000  0.4497790000000 1.0
C      1  0.4655530000000  0.5256210000000  0.4412750000000 1.0
C      1  0.5244300000000  0.5379020000000  0.4422190000000 1.0
C      1  0.5363010000000  0.4782770000000  0.4414930000000 1.0
C      1  0.4755060000000  0.5379020000000  0.5562860000000 1.0
C      1  0.4636340000000  0.4782770000000  0.5570110000000 1.0
C      1  0.5368610000000  0.4626900000000  0.5487250000000 1.0
C      1  0.5343830000000  0.5256180000000  0.5572300000000 1.0
C      1  0.4815970000000  0.5120700000000  0.4636300000000 1.0
C      1  0.5108850000000  0.5213180000000  0.4643200000000 1.0
C      1  0.5190430000000  0.4912230000000  0.4641380000000 1.0
C      1  0.4865450000000  0.4810650000000  0.4642500000000 1.0
C      1  0.4808920000000  0.4912230000000  0.5343660000000 1.0
C      1  0.5133900000000  0.4810640000000  0.5342540000000 1.0
C      1  0.5183390000000  0.5120680000000  0.5348750000000 1.0
C      1  0.4890510000000  0.5213170000000  0.5341850000000 1.0
C      1  0.5139130000000  0.5956190000000  0.5031740000000 1.0
C      1  0.5927900000000  0.4862880000000  0.5060950000000 1.0
C      1  0.4865890000000  0.4077440000000  0.5047350000000 1.0
C      1  0.4070200000000  0.5140650000000  0.5004050000000 1.0
C      1  0.5133420000000  0.4077430000000  0.4937670000000 1.0
C      1  0.5929160000000  0.5140620000000  0.4981000000000 1.0
C      1  0.4860260000000  0.5956200000000  0.4953330000000 1.0
C      1  0.4071450000000  0.4862920000000  0.4924090000000 1.0
C      1  0.5575040000000  0.4972300000000  0.5367550000000 1.0
C      1  0.4972960000000  0.4424540000000  0.5371760000000 1.0
C      1  0.4412520000000  0.5050860000000  0.5337370000000 1.0
C      1  0.5032360000000  0.5608350000000  0.5347100000000 1.0
C      1  0.5586840000000  0.5050850000000  0.4647680000000 1.0
C      1  0.4967020000000  0.5608360000000  0.4637960000000 1.0
C      1  0.4424310000000  0.4972330000000  0.4617500000000 1.0
C      1  0.5026370000000  0.4424550000000  0.4613270000000 1.0
C      1  0.5237720000000  0.4316780000000  0.4805620000000 1.0
C      1  0.4322370000000  0.4754650000000  0.4816220000000 1.0
C      1  0.4762130000000  0.5710400000000  0.4830540000000 1.0
C      1  0.5690560000000  0.5245340000000  0.4850720000000 1.0
C      1  0.5237250000000  0.5710380000000  0.5154520000000 1.0
C      1  0.4308800000000  0.5245360000000  0.5134330000000 1.0
C      1  0.4761610000000  0.4316780000000  0.5179410000000 1.0
C      1  0.5676970000000  0.4754620000000  0.5168820000000 1.0
C      1  0.4893600000000  0.4608240000000  0.5620410000000 1.0
C      1  0.4560080000000  0.5134560000000  0.5598680000000 1.0
C      1  0.5104930000000  0.5455590000000  0.5609370000000 1.0
C      1  0.5382370000000  0.4909860000000  0.5665620000000 1.0
C      1  0.4894440000000  0.5455610000000  0.4375690000000 1.0
C      1  0.4616980000000  0.4909890000000  0.4319420000000 1.0
C      1  0.5105740000000  0.4608250000000  0.4364630000000 1.0
C      1  0.5439280000000  0.5134550000000  0.4386370000000 1.0
C      1  0.4511130000000  0.5501950000000  0.4983020000000 1.0
C      1  0.5482490000000  0.4519260000000  0.4975500000000 1.0
C      1  0.4516850000000  0.4519280000000  0.5009530000000 1.0
C      1  0.5488250000000  0.5501930000000  0.5002040000000 1.0
C      1  0.4892800000000  0.4752830000000  0.4194840000000 1.0
C      1  0.5106550000000  0.4752810000000  0.5790200000000 1.0
END
