TITL C-862500-986-1285 -0.00157442558314608 125000 -272.208088973013 0 0 50 (Cs) n - 1
REM
REM in /home/nfs/bkarasulu/CARBON/AIRSS/Generating-Clusters/TERSOFF/Higher-Symm/FIRE-HFTN
REM
REM
REM
REM
REM
REM ./C.cell (b20cbc046b6831c77cfcea5457e17084)
REM AIRSS Version 0.9.1 bugfix July 2018 build 013d7b7c2542+ Fri, 06 Jul 2018 19:26:36 +0100
REM compiler GCC version 9.2.1 20190827 (Red Hat 9.2.1-1)
REM options -cpp -mtune=generic -march=x86-64 -g -O0 -fpre-include=/usr/include/finclude/math-vector-fortran.h
REM seed 1485347421 7981547 -65736245 478981480 -1572674633 1047312583 -456756905 -1025042343 -152407815 797832111 -1429481167 -731494533 -671578813 -655818584 -1558063956 -698839390 -1724201133 -783566586 -1850042820 -1709921059 1301705797 358421199 1501047252 1489212547 1522174077 231617224 -1199894215 125783330 -989068760 -1911216985 1585357245 -1422700159 715166147
REM
CELL 1.54180   50.00000   50.00000   50.00000   90.00000   90.00000   90.00000
LATT -1
SFAC C  
C      1  0.4937050000000  0.5260040000000  0.5022890000000 1.0
C      1  0.4937050000000  0.4752300000000  0.5022890000000 1.0
C      1  0.5069960000000  0.4520460000000  0.4462030000000 1.0
C      1  0.5069960000000  0.5491890000000  0.4462030000000 1.0
C      1  0.5063710000000  0.5438720000000  0.5233940000000 1.0
C      1  0.5063710000000  0.4573630000000  0.5233940000000 1.0
C      1  0.5125410000000  0.5268790000000  0.5481400000000 1.0
C      1  0.5125410000000  0.4743560000000  0.5481400000000 1.0
C      1  0.4724740000000  0.4594450000000  0.4836550000000 1.0
C      1  0.4724740000000  0.5417900000000  0.4836550000000 1.0
C      1  0.5470760000000  0.4591400000000  0.4867720000000 1.0
C      1  0.5470760000000  0.5420950000000  0.4867720000000 1.0
C      1  0.4629820000000  0.5250410000000  0.4604150000000 1.0
C      1  0.4629820000000  0.4761940000000  0.4604150000000 1.0
C      1  0.4887440000000  0.4330740000000  0.5301830000000 1.0
C      1  0.4887440000000  0.5681610000000  0.5301830000000 1.0
C      1  0.5534360000000  0.4767450000000  0.5104830000000 1.0
C      1  0.5534360000000  0.5244900000000  0.5104830000000 1.0
C      1  0.5611780000000  0.5166890000000  0.5408460000000 1.0
C      1  0.5611780000000  0.4845460000000  0.5408460000000 1.0
C      1  0.4577530000000  0.4318160000000  0.4871540000000 1.0
C      1  0.4577530000000  0.5694180000000  0.4871540000000 1.0
C      1  0.4542440000000  0.5358350000000  0.5125150000000 1.0
C      1  0.4542440000000  0.4654000000000  0.5125150000000 1.0
C      1  0.5490070000000  0.5266440000000  0.4608240000000 1.0
C      1  0.5490070000000  0.4745910000000  0.4608240000000 1.0
C      1  0.5229080000000  0.4761200000000  0.4465650000000 1.0
C      1  0.5229080000000  0.5251150000000  0.4465650000000 1.0
C      1  0.4814880000000  0.4747350000000  0.5548450000000 1.0
C      1  0.4814880000000  0.5265000000000  0.5548450000000 1.0
C      1  0.4317960000000  0.5159620000000  0.5131860000000 1.0
C      1  0.4317960000000  0.4852730000000  0.5131860000000 1.0
C      1  0.5238130000000  0.5607480000000  0.4891500000000 1.0
C      1  0.5238130000000  0.4404860000000  0.4891500000000 1.0
C      1  0.5409410000000  0.4717490000000  0.5587990000000 1.0
C      1  0.5409410000000  0.5294850000000  0.5587990000000 1.0
C      1  0.4990690000000  0.5581030000000  0.4726960000000 1.0
C      1  0.4990700000000  0.4431320000000  0.4726960000000 1.0
C      1  0.4670680000000  0.4536550000000  0.5377130000000 1.0
C      1  0.4670680000000  0.5475800000000  0.5377130000000 1.0
C      1  0.4688640000000  0.5006170000000  0.5462100000000 1.0
C      1  0.4774600000000  0.5006170000000  0.4493320000000 1.0
C      1  0.4789350000000  0.5006170000000  0.5160330000000 1.0
C      1  0.5101020000000  0.5006170000000  0.4878990000000 1.0
C      1  0.4397560000000  0.5006170000000  0.5514610000000 1.0
C      1  0.5342980000000  0.5006170000000  0.5086110000000 1.0
C      1  0.5633750000000  0.5006170000000  0.4609910000000 1.0
C      1  0.5183180000000  0.5006170000000  0.5344700000000 1.0
C      1  0.5082440000000  0.5006170000000  0.4561880000000 1.0
C      1  0.4747800000000  0.5006170000000  0.4194720000000 1.0
END
