TITL C-862500-986-1234 336954.075932849 125000 -913.315468174773 0 0 156 (C1) n - 1
REM
REM in /home/nfs/bkarasulu/CARBON/AIRSS/Generating-Clusters/TERSOFF/Higher-Symm/FIRE-HFTN
REM
REM
REM
REM
REM
REM ./C.cell (b20cbc046b6831c77cfcea5457e17084)
REM AIRSS Version 0.9.1 bugfix July 2018 build 013d7b7c2542+ Fri, 06 Jul 2018 19:26:36 +0100
REM compiler GCC version 9.2.1 20190827 (Red Hat 9.2.1-1)
REM options -cpp -mtune=generic -march=x86-64 -g -O0 -fpre-include=/usr/include/finclude/math-vector-fortran.h
REM seed -685669730 -1874945505 -392929501 1687532344 673587972 -1158518105 1805008516 -621101559 938250882 -2127319507 1281394019 -510664469 809104172 839045414 -1350338661 -306921500 146003392 -268482878 1470210254 -575009257 -685961951 -1921901644 368076494 1309579412 1188050520 -1485871727 263449674 -1045744982 1919448613 1870052016 -255397760 -827344274 -1699918717
REM
CELL 1.54180   50.00000   50.00000   50.00000   90.00000   90.00000   90.00000
LATT -1
SFAC C  
C      1  0.5542760000000  0.6040170000000  0.5841390000000 1.0
C      1  0.5529660000000  0.3936950000000  0.5827590000000 1.0
C      1  0.5096640000000  0.5282080000000  0.6077110000000 1.0
C      1  0.5101580000000  0.4733900000000  0.6079400000000 1.0
C      1  0.4835470000000  0.4845950000000  0.6044770000000 1.0
C      1  0.4832870000000  0.5164020000000  0.6043430000000 1.0
C      1  0.5453940000000  0.4316510000000  0.5497460000000 1.0
C      1  0.5451250000000  0.5670490000000  0.5503920000000 1.0
C      1  0.4892390000000  0.5518910000000  0.3944340000000 1.0
C      1  0.4889360000000  0.4482080000000  0.3941180000000 1.0
C      1  0.5961160000000  0.4751080000000  0.5120620000000 1.0
C      1  0.5968440000000  0.5240720000000  0.5118980000000 1.0
C      1  0.4413360000000  0.4481980000000  0.5390710000000 1.0
C      1  0.4394380000000  0.5523810000000  0.5391950000000 1.0
C      1  0.4870060000000  0.4184770000000  0.5125430000000 1.0
C      1  0.4866980000000  0.5811250000000  0.5136720000000 1.0
C      1  0.5016220000000  0.4648870000000  0.4972350000000 1.0
C      1  0.5012000000000  0.5353010000000  0.4978400000000 1.0
C      1  0.4711950000000  0.4663400000000  0.4953020000000 1.0
C      1  0.4708530000000  0.5331420000000  0.4959130000000 1.0
C      1  0.4806080000000  0.3960630000000  0.5603540000000 1.0
C      1  0.4801810000000  0.6052870000000  0.5605620000000 1.0
C      1  0.5704430000000  0.5162940000000  0.5007590000000 1.0
C      1  0.5697610000000  0.4835760000000  0.5013980000000 1.0
C      1  0.5524010000000  0.5557650000000  0.3928810000000 1.0
C      1  0.5537880000000  0.4465840000000  0.3955040000000 1.0
C      1  0.4361540000000  0.4231700000000  0.5030320000000 1.0
C      1  0.4360630000000  0.5770910000000  0.5034500000000 1.0
C      1  0.5491020000000  0.4189950000000  0.4016470000000 1.0
C      1  0.5478480000000  0.5827130000000  0.4011590000000 1.0
C      1  0.5176330000000  0.3809770000000  0.4653250000000 1.0
C      1  0.5179710000000  0.6180730000000  0.4654660000000 1.0
C      1  0.4200350000000  0.5298050000000  0.5375970000000 1.0
C      1  0.4206220000000  0.4695660000000  0.5375560000000 1.0
C      1  0.4778650000000  0.5980610000000  0.4890500000000 1.0
C      1  0.4773720000000  0.4014240000000  0.4881580000000 1.0
C      1  0.5769740000000  0.5330940000000  0.5813470000000 1.0
C      1  0.5761770000000  0.4670740000000  0.5809800000000 1.0
C      1  0.3806840000000  0.5145580000000  0.4583950000000 1.0
C      1  0.3805250000000  0.4855220000000  0.4589530000000 1.0
C      1  0.4535620000000  0.4829490000000  0.4762320000000 1.0
C      1  0.4535410000000  0.5166250000000  0.4764250000000 1.0
C      1  0.4185080000000  0.4853590000000  0.5783670000000 1.0
C      1  0.4183160000000  0.5140450000000  0.5784260000000 1.0
C      1  0.4458420000000  0.4195620000000  0.4536170000000 1.0
C      1  0.4466530000000  0.5800430000000  0.4541900000000 1.0
C      1  0.5634900000000  0.4706590000000  0.4751290000000 1.0
C      1  0.5651190000000  0.5290240000000  0.4739380000000 1.0
C      1  0.5320730000000  0.4699070000000  0.4352120000000 1.0
C      1  0.5343930000000  0.5295630000000  0.4331050000000 1.0
C      1  0.5090960000000  0.4397320000000  0.5129680000000 1.0
C      1  0.5085070000000  0.5597620000000  0.5140930000000 1.0
C      1  0.5451040000000  0.5157450000000  0.5484810000000 1.0
C      1  0.5452750000000  0.4871610000000  0.5488400000000 1.0
C      1  0.5216980000000  0.5526430000000  0.5396140000000 1.0
C      1  0.5223120000000  0.4464930000000  0.5387210000000 1.0
C      1  0.4048190000000  0.5313520000000  0.4608630000000 1.0
C      1  0.4045970000000  0.4685350000000  0.4608920000000 1.0
C      1  0.4505780000000  0.5915580000000  0.4801790000000 1.0
C      1  0.4499920000000  0.4081680000000  0.4796510000000 1.0
C      1  0.4549610000000  0.5297530000000  0.4451920000000 1.0
C      1  0.4545550000000  0.4699740000000  0.4447060000000 1.0
C      1  0.4645820000000  0.6120380000000  0.5839880000000 1.0
C      1  0.4647670000000  0.3881950000000  0.5832650000000 1.0
C      1  0.4968060000000  0.5763080000000  0.4088170000000 1.0
C      1  0.4974090000000  0.4241960000000  0.4084550000000 1.0
C      1  0.5459710000000  0.5246520000000  0.5189010000000 1.0
C      1  0.5454980000000  0.4763880000000  0.5205040000000 1.0
C      1  0.5329500000000  0.4307550000000  0.4696390000000 1.0
C      1  0.5341080000000  0.5684840000000  0.4689210000000 1.0
C      1  0.5903480000000  0.5387730000000  0.5566680000000 1.0
C      1  0.5899840000000  0.4605090000000  0.5569000000000 1.0
C      1  0.5703480000000  0.4052760000000  0.4164250000000 1.0
C      1  0.5693930000000  0.5959530000000  0.4159500000000 1.0
C      1  0.5336760000000  0.4864520000000  0.5977630000000 1.0
C      1  0.5334880000000  0.5155170000000  0.5977810000000 1.0
C      1  0.5820120000000  0.5796740000000  0.4638000000000 1.0
C      1  0.5811870000000  0.4202770000000  0.4651060000000 1.0
C      1  0.5080160000000  0.5335290000000  0.5569740000000 1.0
C      1  0.5093870000000  0.4664410000000  0.5556730000000 1.0
C      1  0.4189960000000  0.5783930000000  0.4455660000000 1.0
C      1  0.4181190000000  0.4214060000000  0.4452940000000 1.0
C      1  0.4465390000000  0.5692540000000  0.5631320000000 1.0
C      1  0.4485260000000  0.4310610000000  0.5627160000000 1.0
C      1  0.5207750000000  0.4853970000000  0.5057880000000 1.0
C      1  0.5214510000000  0.5151020000000  0.5037120000000 1.0
C      1  0.5214110000000  0.4086930000000  0.4007600000000 1.0
C      1  0.5201980000000  0.5925850000000  0.4014490000000 1.0
C      1  0.4674970000000  0.5146200000000  0.4229830000000 1.0
C      1  0.4671150000000  0.4853480000000  0.4226190000000 1.0
C      1  0.4196710000000  0.6059980000000  0.5443500000000 1.0
C      1  0.4199730000000  0.3949860000000  0.5444840000000 1.0
C      1  0.5191450000000  0.5545050000000  0.4475970000000 1.0
C      1  0.5178820000000  0.4449900000000  0.4485310000000 1.0
C      1  0.3812430000000  0.5229170000000  0.5089050000000 1.0
C      1  0.3815070000000  0.4760910000000  0.5092180000000 1.0
C      1  0.4900810000000  0.5263570000000  0.4085300000000 1.0
C      1  0.4896230000000  0.4737280000000  0.4080690000000 1.0
C      1  0.4675530000000  0.4388030000000  0.5840490000000 1.0
C      1  0.4663410000000  0.5617110000000  0.5839190000000 1.0
C      1  0.4627620000000  0.4666520000000  0.5931500000000 1.0
C      1  0.4621910000000  0.5337770000000  0.5928860000000 1.0
C      1  0.5494160000000  0.5141750000000  0.4542890000000 1.0
C      1  0.5476830000000  0.4855170000000  0.4557310000000 1.0
C      1  0.4635900000000  0.4387740000000  0.5049710000000 1.0
C      1  0.4631600000000  0.5608290000000  0.5058770000000 1.0
C      1  0.5769160000000  0.4862550000000  0.4166080000000 1.0
C      1  0.5762520000000  0.5135170000000  0.4058340000000 1.0
C      1  0.5491580000000  0.5275230000000  0.5763470000000 1.0
C      1  0.5490480000000  0.4747690000000  0.5760240000000 1.0
C      1  0.5662050000000  0.3955730000000  0.4740470000000 1.0
C      1  0.5668600000000  0.6040220000000  0.4735430000000 1.0
C      1  0.4576690000000  0.5142570000000  0.5478300000000 1.0
C      1  0.4579620000000  0.4857460000000  0.5478840000000 1.0
C      1  0.4900170000000  0.4218630000000  0.5929400000000 1.0
C      1  0.4892580000000  0.5786720000000  0.5917590000000 1.0
C      1  0.6022650000000  0.5160380000000  0.5398050000000 1.0
C      1  0.6021150000000  0.4829640000000  0.5398430000000 1.0
C      1  0.5739290000000  0.4390240000000  0.5428560000000 1.0
C      1  0.5735280000000  0.5598130000000  0.5426790000000 1.0
C      1  0.4406270000000  0.5931260000000  0.5290870000000 1.0
C      1  0.4408700000000  0.4074720000000  0.5288220000000 1.0
C      1  0.4254580000000  0.5280740000000  0.4395600000000 1.0
C      1  0.4250050000000  0.4719730000000  0.4394170000000 1.0
C      1  0.4105650000000  0.5158360000000  0.5116720000000 1.0
C      1  0.4107770000000  0.4834990000000  0.5117240000000 1.0
C      1  0.6149600000000  0.4599650000000  0.4960270000000 1.0
C      1  0.6162860000000  0.5388130000000  0.4962010000000 1.0
C      1  0.4232370000000  0.5238730000000  0.4844600000000 1.0
C      1  0.4232700000000  0.4756450000000  0.4844050000000 1.0
C      1  0.3997700000000  0.5605110000000  0.4575400000000 1.0
C      1  0.3991860000000  0.4394660000000  0.4574410000000 1.0
C      1  0.5379250000000  0.5983970000000  0.4715740000000 1.0
C      1  0.5372710000000  0.4008570000000  0.4717210000000 1.0
C      1  0.5147720000000  0.5141130000000  0.4170190000000 1.0
C      1  0.5141850000000  0.4854240000000  0.4174450000000 1.0
C      1  0.4443420000000  0.5251740000000  0.5715290000000 1.0
C      1  0.4447320000000  0.4746280000000  0.5715690000000 1.0
C      1  0.4933690000000  0.4331590000000  0.4364020000000 1.0
C      1  0.4938470000000  0.5661340000000  0.4363940000000 1.0
C      1  0.4928140000000  0.6202700000000  0.4787370000000 1.0
C      1  0.4919590000000  0.3791240000000  0.4775530000000 1.0
C      1  0.5874440000000  0.5824610000000  0.4349620000000 1.0
C      1  0.5877520000000  0.4180920000000  0.4364680000000 1.0
C      1  0.5552740000000  0.5336780000000  0.4109610000000 1.0
C      1  0.5547870000000  0.4671500000000  0.4153930000000 1.0
C      1  0.5183210000000  0.4297660000000  0.5927040000000 1.0
C      1  0.5173260000000  0.5698910000000  0.5928560000000 1.0
C      1  0.5390940000000  0.4180510000000  0.5751290000000 1.0
C      1  0.5391920000000  0.5806020000000  0.5758910000000 1.0
C      1  0.4694750000000  0.5933470000000  0.5364750000000 1.0
C      1  0.4698340000000  0.4068010000000  0.5357280000000 1.0
C      1  0.5616000000000  0.5580640000000  0.4726270000000 1.0
C      1  0.5603100000000  0.4415650000000  0.4737990000000 1.0
C      1  0.4649780000000  0.4406310000000  0.4452920000000 1.0
C      1  0.4657250000000  0.5588050000000  0.4461090000000 1.0
END
