TITL C-862501-1041-402 546133.248442151 125000 -652.744961899811 0 0 109 (C1) n - 1
REM
REM in /home/nfs/bkarasulu/CARBON/AIRSS/Generating-Clusters/TERSOFF/Higher-Symm/FIRE-HFTN
REM
REM
REM
REM
REM
REM ./C.cell (b20cbc046b6831c77cfcea5457e17084)
REM AIRSS Version 0.9.1 bugfix July 2018 build 013d7b7c2542+ Fri, 06 Jul 2018 19:26:36 +0100
REM compiler GCC version 9.2.1 20190827 (Red Hat 9.2.1-1)
REM options -cpp -mtune=generic -march=x86-64 -g -O0 -fpre-include=/usr/include/finclude/math-vector-fortran.h
REM seed 64750231 -339522355 -1424570788 -764316203 1482917043 -1713032116 -14868054 1740027872 203779690 -422248043 -1110512072 -477937915 984584101 -1456824261 48530906 1078454772 2095829211 1859772679 2098158252 1720884585 1786448307 54961515 -1795700881 1376876514 1483305813 625654390 1833363259 -610664257 -1145129877 1072951154 -2071262840 1042439410 -55349941
REM
CELL 1.54180   50.00000   50.00000   50.00000   90.00000   90.00000   90.00000
LATT -1
SFAC C  
C      1  0.4696690000000  0.4734590000000  0.4230180000000 1.0
C      1  0.4187330000000  0.4785680000000  0.4717440000000 1.0
C      1  0.3999650000000  0.4887320000000  0.5246740000000 1.0
C      1  0.4367340000000  0.4896800000000  0.5692440000000 1.0
C      1  0.4987840000000  0.4935370000000  0.5986630000000 1.0
C      1  0.5553870000000  0.4921890000000  0.5841050000000 1.0
C      1  0.5903260000000  0.4827230000000  0.5246940000000 1.0
C      1  0.5797350000000  0.4772100000000  0.4674450000000 1.0
C      1  0.5278600000000  0.4732670000000  0.4226520000000 1.0
C      1  0.4462950000000  0.5850660000000  0.4495280000000 1.0
C      1  0.4207150000000  0.5949020000000  0.4989120000000 1.0
C      1  0.4485460000000  0.5979460000000  0.5478220000000 1.0
C      1  0.4914970000000  0.5975420000000  0.5565970000000 1.0
C      1  0.5334650000000  0.5986280000000  0.5577850000000 1.0
C      1  0.5731340000000  0.5933510000000  0.5222880000000 1.0
C      1  0.5716120000000  0.5876120000000  0.4687330000000 1.0
C      1  0.5299630000000  0.5844440000000  0.4351300000000 1.0
C      1  0.4882150000000  0.5829520000000  0.4394500000000 1.0
C      1  0.5456890000000  0.5925620000000  0.4811180000000 1.0
C      1  0.5227380000000  0.5904130000000  0.4628120000000 1.0
C      1  0.4931720000000  0.5850310000000  0.4703720000000 1.0
C      1  0.4628650000000  0.5899360000000  0.4729440000000 1.0
C      1  0.4497470000000  0.5951080000000  0.4981910000000 1.0
C      1  0.4640810000000  0.5968210000000  0.5232830000000 1.0
C      1  0.4944360000000  0.5922140000000  0.5258130000000 1.0
C      1  0.5245550000000  0.5984770000000  0.5299650000000 1.0
C      1  0.5464740000000  0.5952890000000  0.5105230000000 1.0
C      1  0.5132750000000  0.5361410000000  0.5776090000000 1.0
C      1  0.5594790000000  0.5306700000000  0.5511720000000 1.0
C      1  0.5795040000000  0.5262150000000  0.5026240000000 1.0
C      1  0.5560070000000  0.5199920000000  0.4553220000000 1.0
C      1  0.5089880000000  0.5187480000000  0.4313050000000 1.0
C      1  0.4568580000000  0.5177340000000  0.4449870000000 1.0
C      1  0.4182190000000  0.5265580000000  0.4808020000000 1.0
C      1  0.4191730000000  0.5335640000000  0.5335460000000 1.0
C      1  0.4608880000000  0.5334540000000  0.5669660000000 1.0
C      1  0.5734220000000  0.4595960000000  0.5163430000000 1.0
C      1  0.5641340000000  0.4605120000000  0.4861240000000 1.0
C      1  0.5158370000000  0.4490050000000  0.4361660000000 1.0
C      1  0.4834420000000  0.4533190000000  0.4394670000000 1.0
C      1  0.4360820000000  0.4681950000000  0.4933110000000 1.0
C      1  0.4255960000000  0.4724840000000  0.5218480000000 1.0
C      1  0.4456060000000  0.4746150000000  0.5451480000000 1.0
C      1  0.5077610000000  0.4700070000000  0.5833350000000 1.0
C      1  0.5392840000000  0.4687800000000  0.5759910000000 1.0
C      1  0.4838430000000  0.5777810000000  0.5762470000000 1.0
C      1  0.5448610000000  0.5758190000000  0.5714880000000 1.0
C      1  0.5859860000000  0.5686840000000  0.5298900000000 1.0
C      1  0.5837810000000  0.5616340000000  0.4660430000000 1.0
C      1  0.5400460000000  0.5589060000000  0.4258880000000 1.0
C      1  0.4787070000000  0.5594210000000  0.4257060000000 1.0
C      1  0.4300220000000  0.5614680000000  0.4454480000000 1.0
C      1  0.4044820000000  0.5711730000000  0.5019030000000 1.0
C      1  0.4333830000000  0.5758740000000  0.5587220000000 1.0
C      1  0.4268490000000  0.4768880000000  0.4449950000000 1.0
C      1  0.3857260000000  0.4950810000000  0.5007650000000 1.0
C      1  0.4099940000000  0.4998250000000  0.5689470000000 1.0
C      1  0.4714800000000  0.4988230000000  0.6019620000000 1.0
C      1  0.5437450000000  0.5086150000000  0.6044290000000 1.0
C      1  0.5913710000000  0.4912740000000  0.5515680000000 1.0
C      1  0.6026640000000  0.4898660000000  0.4790150000000 1.0
C      1  0.5552450000000  0.4792790000000  0.4254870000000 1.0
C      1  0.4857580000000  0.4859020000000  0.4030880000000 1.0
C      1  0.4500510000000  0.4898630000000  0.4355290000000 1.0
C      1  0.4029690000000  0.5013790000000  0.4790220000000 1.0
C      1  0.4027840000000  0.5104770000000  0.5434890000000 1.0
C      1  0.4554840000000  0.5077410000000  0.5805980000000 1.0
C      1  0.5167100000000  0.5161070000000  0.5989340000000 1.0
C      1  0.5703280000000  0.5057400000000  0.5639480000000 1.0
C      1  0.5965800000000  0.5021540000000  0.5041230000000 1.0
C      1  0.5655120000000  0.4926740000000  0.4481820000000 1.0
C      1  0.5103390000000  0.4947280000000  0.4143880000000 1.0
C      1  0.4801330000000  0.4506870000000  0.4713390000000 1.0
C      1  0.4657450000000  0.4688240000000  0.4893870000000 1.0
C      1  0.4804010000000  0.4811450000000  0.5106790000000 1.0
C      1  0.4746840000000  0.4749600000000  0.5380680000000 1.0
C      1  0.4955560000000  0.4615270000000  0.5538150000000 1.0
C      1  0.5269590000000  0.4635600000000  0.5465530000000 1.0
C      1  0.5413470000000  0.4563190000000  0.5211530000000 1.0
C      1  0.5317260000000  0.4619850000000  0.4886800000000 1.0
C      1  0.5124680000000  0.4490570000000  0.4695020000000 1.0
C      1  0.4707040000000  0.3963290000000  0.4477900000000 1.0
C      1  0.4632030000000  0.3939840000000  0.4759190000000 1.0
C      1  0.4823900000000  0.4011890000000  0.4966970000000 1.0
C      1  0.5049760000000  0.3836240000000  0.5024670000000 1.0
C      1  0.5317170000000  0.3949400000000  0.5056350000000 1.0
C      1  0.5484160000000  0.3997880000000  0.4821400000000 1.0
C      1  0.5420240000000  0.3868420000000  0.4567100000000 1.0
C      1  0.5206550000000  0.3975070000000  0.4398410000000 1.0
C      1  0.4950860000000  0.3834650000000  0.4380850000000 1.0
C      1  0.4939390000000  0.3566390000000  0.4269430000000 1.0
C      1  0.4541650000000  0.4118100000000  0.4295650000000 1.0
C      1  0.4366590000000  0.3846150000000  0.4832020000000 1.0
C      1  0.4796930000000  0.4263740000000  0.5108870000000 1.0
C      1  0.5008560000000  0.3549710000000  0.5051460000000 1.0
C      1  0.5415460000000  0.4018070000000  0.5321320000000 1.0
C      1  0.5714000000000  0.4174970000000  0.4840670000000 1.0
C      1  0.5568280000000  0.3632830000000  0.4482780000000 1.0
C      1  0.5243310000000  0.4227740000000  0.4258780000000 1.0
C      1  0.4820580000000  0.5321380000000  0.4351890000000 1.0
C      1  0.4352020000000  0.5353580000000  0.4574970000000 1.0
C      1  0.4149670000000  0.5441350000000  0.5053170000000 1.0
C      1  0.4381460000000  0.5477280000000  0.5525400000000 1.0
C      1  0.4863010000000  0.5490380000000  0.5727310000000 1.0
C      1  0.5384700000000  0.5478300000000  0.5655510000000 1.0
C      1  0.5740060000000  0.5422490000000  0.5273950000000 1.0
C      1  0.5718560000000  0.5366390000000  0.4752370000000 1.0
C      1  0.5344250000000  0.5331060000000  0.4386120000000 1.0
C      1  0.5012730000000  0.4450340000000  0.5156140000000 1.0
END
