TITL C-862130-1496-1361 2.78139775495535 125000 -270.468357900692 0 0 49 (C1) n - 1
REM
REM in /home/nfs/bkarasulu/CARBON/AIRSS/Generating-Clusters/TERSOFF/Higher-Symm/FIRE-HFTN
REM
REM
REM
REM
REM
REM ./C.cell (b20cbc046b6831c77cfcea5457e17084)
REM AIRSS Version 0.9.1 bugfix July 2018 build 013d7b7c2542+ Fri, 06 Jul 2018 19:26:36 +0100
REM compiler GCC version 9.2.1 20190827 (Red Hat 9.2.1-1)
REM options -cpp -mtune=generic -march=x86-64 -g -O0 -fpre-include=/usr/include/finclude/math-vector-fortran.h
REM seed 2069371658 540092824 1289524370 -384111243 -2121056509 -1988423486 -1000475471 -1041831385 1066648109 796733941 68141560 1633874758 -1654515918 -1188723041 -489455785 1027416700 1254371102 1531064746 13875213 543044874 -713773688 -554203145 -2043534029 -1265609879 478270254 2103834207 888739435 391543714 2028647364 671803203 -107192441 410224697 1368904658
REM
CELL 1.54180   50.00000   50.00000   50.00000   90.00000   90.00000   90.00000
LATT -1
SFAC C  
C      1  0.4440790000000  0.5317630000000  0.5018150000000 1.0
C      1  0.4957820000000  0.5408950000000  0.4398720000000 1.0
C      1  0.5172240000000  0.4652900000000  0.4345690000000 1.0
C      1  0.5371460000000  0.5549660000000  0.5260410000000 1.0
C      1  0.5597280000000  0.4997330000000  0.4528700000000 1.0
C      1  0.5046290000000  0.4393590000000  0.5080530000000 1.0
C      1  0.4784000000000  0.4965440000000  0.5462230000000 1.0
C      1  0.5431180000000  0.5392070000000  0.4979480000000 1.0
C      1  0.5233360000000  0.4494000000000  0.4858060000000 1.0
C      1  0.5403100000000  0.5087310000000  0.5092970000000 1.0
C      1  0.5030930000000  0.4543310000000  0.5343400000000 1.0
C      1  0.4699540000000  0.5179000000000  0.4987170000000 1.0
C      1  0.5077120000000  0.5124520000000  0.4790660000000 1.0
C      1  0.4772980000000  0.4669650000000  0.5444620000000 1.0
C      1  0.4718690000000  0.5416390000000  0.5718890000000 1.0
C      1  0.5094980000000  0.4962940000000  0.5048290000000 1.0
C      1  0.4891830000000  0.5112070000000  0.5228060000000 1.0
C      1  0.5082380000000  0.5278620000000  0.5399160000000 1.0
C      1  0.5129450000000  0.5165430000000  0.4324000000000 1.0
C      1  0.4998080000000  0.4900500000000  0.4326400000000 1.0
C      1  0.4884770000000  0.4155540000000  0.5038410000000 1.0
C      1  0.5262090000000  0.5359600000000  0.4741950000000 1.0
C      1  0.5022050000000  0.5548150000000  0.4665040000000 1.0
C      1  0.5577960000000  0.4713350000000  0.4625590000000 1.0
C      1  0.4531820000000  0.4606210000000  0.5289600000000 1.0
C      1  0.4848580000000  0.4695010000000  0.4660560000000 1.0
C      1  0.5286800000000  0.4645530000000  0.5435300000000 1.0
C      1  0.5512560000000  0.4617050000000  0.4930710000000 1.0
C      1  0.4862890000000  0.4742910000000  0.4938080000000 1.0
C      1  0.5517050000000  0.4581320000000  0.5259060000000 1.0
C      1  0.5171810000000  0.4444300000000  0.4566620000000 1.0
C      1  0.4819920000000  0.5641590000000  0.4873090000000 1.0
C      1  0.4939800000000  0.5596930000000  0.5633140000000 1.0
C      1  0.5137230000000  0.5099990000000  0.5654260000000 1.0
C      1  0.4433800000000  0.4839640000000  0.4567610000000 1.0
C      1  0.5374150000000  0.5196060000000  0.4502510000000 1.0
C      1  0.4914620000000  0.5755810000000  0.5130670000000 1.0
C      1  0.4724150000000  0.4906050000000  0.4488330000000 1.0
C      1  0.4628330000000  0.4151570000000  0.4904260000000 1.0
C      1  0.5063160000000  0.5604700000000  0.5345090000000 1.0
C      1  0.4576200000000  0.4727420000000  0.5030580000000 1.0
C      1  0.4720550000000  0.5119410000000  0.5703160000000 1.0
C      1  0.4535470000000  0.5557920000000  0.4863260000000 1.0
C      1  0.5412470000000  0.5239480000000  0.5369500000000 1.0
C      1  0.4248560000000  0.5105430000000  0.4946390000000 1.0
C      1  0.4802630000000  0.5134700000000  0.4694610000000 1.0
C      1  0.5298860000000  0.4851430000000  0.5649230000000 1.0
C      1  0.4359320000000  0.4847970000000  0.4855150000000 1.0
C      1  0.5598890000000  0.4903630000000  0.5002700000000 1.0
END
