TITL C-862501-1041-1336 -9.65475481733375e-05 125000 -781.311624023505 0 0 133 (C1) n - 1
REM
REM in /home/nfs/bkarasulu/CARBON/AIRSS/Generating-Clusters/TERSOFF/Higher-Symm/FIRE-HFTN
REM
REM
REM
REM
REM
REM ./C.cell (b20cbc046b6831c77cfcea5457e17084)
REM AIRSS Version 0.9.1 bugfix July 2018 build 013d7b7c2542+ Fri, 06 Jul 2018 19:26:36 +0100
REM compiler GCC version 9.2.1 20190827 (Red Hat 9.2.1-1)
REM options -cpp -mtune=generic -march=x86-64 -g -O0 -fpre-include=/usr/include/finclude/math-vector-fortran.h
REM seed 1835829275 518303582 -1490181176 586051196 -1605527355 -249590646 -794638515 524366897 1563702531 -1558163353 1390634008 1457125547 1335450820 -1942062431 1534117853 1111710177 1959966157 165205378 1477849200 346856573 -1603326634 332288096 -2087900942 1134127175 -12454877 -1872731748 1524109911 -1832094176 363785679 -82180550 1070764624 -1573622265 -1612277092
REM
CELL 1.54180   50.00000   50.00000   50.00000   90.00000   90.00000   90.00000
LATT -1
SFAC C  
C      1  0.6083190000000  0.4925070000000  0.4676130000000 1.0
C      1  0.4923810000000  0.4728270000000  0.6090670000000 1.0
C      1  0.4759130000000  0.6063930000000  0.4946550000000 1.0
C      1  0.3876180000000  0.5085040000000  0.4715450000000 1.0
C      1  0.6141810000000  0.5135340000000  0.5373910000000 1.0
C      1  0.3877460000000  0.4899520000000  0.5288540000000 1.0
C      1  0.5068990000000  0.5313820000000  0.6153250000000 1.0
C      1  0.4907130000000  0.5274440000000  0.3894150000000 1.0
C      1  0.5071380000000  0.4687200000000  0.3831530000000 1.0
C      1  0.5219710000000  0.3933760000000  0.4930720000000 1.0
C      1  0.4765610000000  0.3923710000000  0.5048770000000 1.0
C      1  0.5233260000000  0.6068770000000  0.5056330000000 1.0
C      1  0.4954850000000  0.6059500000000  0.4734300000000 1.0
C      1  0.4715180000000  0.4927010000000  0.6095030000000 1.0
C      1  0.6079490000000  0.4727820000000  0.4888990000000 1.0
C      1  0.5024560000000  0.3916530000000  0.4718190000000 1.0
C      1  0.5032080000000  0.6084310000000  0.5264980000000 1.0
C      1  0.4940710000000  0.3901710000000  0.5279040000000 1.0
C      1  0.5246290000000  0.5086160000000  0.6115560000000 1.0
C      1  0.5251660000000  0.4913000000000  0.3865240000000 1.0
C      1  0.4700880000000  0.5072980000000  0.3893110000000 1.0
C      1  0.3892820000000  0.5280300000000  0.4930410000000 1.0
C      1  0.3890340000000  0.4701930000000  0.5075300000000 1.0
C      1  0.6112960000000  0.5299590000000  0.5134150000000 1.0
C      1  0.4092470000000  0.4929360000000  0.5485820000000 1.0
C      1  0.4934860000000  0.5453830000000  0.4122120000000 1.0
C      1  0.5417040000000  0.4148470000000  0.4939920000000 1.0
C      1  0.5917700000000  0.5088210000000  0.5561600000000 1.0
C      1  0.4086080000000  0.5059580000000  0.4512180000000 1.0
C      1  0.5862610000000  0.4950730000000  0.4484860000000 1.0
C      1  0.5040800000000  0.4479360000000  0.4037500000000 1.0
C      1  0.4946440000000  0.4546480000000  0.5864230000000 1.0
C      1  0.5039490000000  0.5524390000000  0.5949130000000 1.0
C      1  0.4568280000000  0.5845190000000  0.4977360000000 1.0
C      1  0.5437330000000  0.5859010000000  0.5052190000000 1.0
C      1  0.4578020000000  0.4146310000000  0.5019130000000 1.0
C      1  0.4953050000000  0.4111560000000  0.5483180000000 1.0
C      1  0.5438690000000  0.4930440000000  0.4089250000000 1.0
C      1  0.4118250000000  0.5465860000000  0.4955320000000 1.0
C      1  0.5019430000000  0.5890450000000  0.5484140000000 1.0
C      1  0.5015050000000  0.4113890000000  0.4502740000000 1.0
C      1  0.4959420000000  0.5840400000000  0.4541980000000 1.0
C      1  0.4521510000000  0.5046380000000  0.4121710000000 1.0
C      1  0.4530590000000  0.4949400000000  0.5870200000000 1.0
C      1  0.5436990000000  0.5073860000000  0.5894250000000 1.0
C      1  0.5854350000000  0.4543990000000  0.4927370000000 1.0
C      1  0.5872390000000  0.5459750000000  0.5080280000000 1.0
C      1  0.4118970000000  0.4520940000000  0.5043770000000 1.0
C      1  0.4761510000000  0.5720480000000  0.5522940000000 1.0
C      1  0.5707340000000  0.5435730000000  0.4761150000000 1.0
C      1  0.5452660000000  0.4813570000000  0.5695150000000 1.0
C      1  0.5192950000000  0.4331230000000  0.5462980000000 1.0
C      1  0.4756730000000  0.4274300000000  0.4458660000000 1.0
C      1  0.5195630000000  0.5639480000000  0.4542910000000 1.0
C      1  0.4301520000000  0.4536710000000  0.4773660000000 1.0
C      1  0.5694140000000  0.4544670000000  0.5220400000000 1.0
C      1  0.4313120000000  0.5451340000000  0.5214440000000 1.0
C      1  0.4536590000000  0.5210680000000  0.5694510000000 1.0
C      1  0.5445630000000  0.5191590000000  0.4287020000000 1.0
C      1  0.4536200000000  0.4788030000000  0.4295760000000 1.0
C      1  0.5717780000000  0.4797570000000  0.5485170000000 1.0
C      1  0.5457540000000  0.5657840000000  0.4791750000000 1.0
C      1  0.4779510000000  0.5479890000000  0.5724460000000 1.0
C      1  0.4298160000000  0.5196050000000  0.5466820000000 1.0
C      1  0.4299910000000  0.4800370000000  0.4528400000000 1.0
C      1  0.5699770000000  0.5213660000000  0.4476280000000 1.0
C      1  0.4558580000000  0.4307530000000  0.4741340000000 1.0
C      1  0.4567370000000  0.5677090000000  0.5243870000000 1.0
C      1  0.5439400000000  0.4331460000000  0.5199750000000 1.0
C      1  0.5182190000000  0.4576640000000  0.5666430000000 1.0
C      1  0.5185900000000  0.5427120000000  0.4312270000000 1.0
C      1  0.4779210000000  0.4520030000000  0.4263270000000 1.0
C      1  0.5187590000000  0.4488010000000  0.5064590000000 1.0
C      1  0.4417690000000  0.4973490000000  0.5225870000000 1.0
C      1  0.4953410000000  0.5206300000000  0.4460770000000 1.0
C      1  0.4811630000000  0.5505140000000  0.5166090000000 1.0
C      1  0.5243030000000  0.5495740000000  0.4971850000000 1.0
C      1  0.4793540000000  0.4489180000000  0.4817310000000 1.0
C      1  0.5663240000000  0.5054570000000  0.5232930000000 1.0
C      1  0.4432350000000  0.5046150000000  0.4747030000000 1.0
C      1  0.5591230000000  0.4878240000000  0.4795770000000 1.0
C      1  0.5045900000000  0.4728070000000  0.4373260000000 1.0
C      1  0.4993160000000  0.4803080000000  0.5505260000000 1.0
C      1  0.5034050000000  0.5260630000000  0.5624790000000 1.0
C      1  0.4451570000000  0.5218920000000  0.5018010000000 1.0
C      1  0.4964400000000  0.4464300000000  0.5257190000000 1.0
C      1  0.5215250000000  0.5025860000000  0.4431480000000 1.0
C      1  0.5562470000000  0.4794560000000  0.5095390000000 1.0
C      1  0.5626760000000  0.5165530000000  0.4909670000000 1.0
C      1  0.4426500000000  0.4791060000000  0.4951990000000 1.0
C      1  0.5093260000000  0.5573380000000  0.5219010000000 1.0
C      1  0.5080580000000  0.4432100000000  0.4794850000000 1.0
C      1  0.5033510000000  0.5479610000000  0.4768970000000 1.0
C      1  0.4797570000000  0.4903070000000  0.4434570000000 1.0
C      1  0.4797060000000  0.5076650000000  0.5559610000000 1.0
C      1  0.5241730000000  0.4990320000000  0.5532140000000 1.0
C      1  0.5295090000000  0.5776710000000  0.5560790000000 1.0
C      1  0.5706290000000  0.5522170000000  0.5330300000000 1.0
C      1  0.5505090000000  0.5337300000000  0.5769560000000 1.0
C      1  0.4693710000000  0.4266230000000  0.5518470000000 1.0
C      1  0.5287640000000  0.4236720000000  0.4434760000000 1.0
C      1  0.4695830000000  0.5711060000000  0.4490400000000 1.0
C      1  0.4278060000000  0.4475640000000  0.5293460000000 1.0
C      1  0.5693110000000  0.4486490000000  0.4672240000000 1.0
C      1  0.4268650000000  0.5516550000000  0.4702020000000 1.0
C      1  0.4475350000000  0.4688980000000  0.5724460000000 1.0
C      1  0.5502190000000  0.4671770000000  0.4225830000000 1.0
C      1  0.4466510000000  0.5304540000000  0.4270220000000 1.0
C      1  0.5724870000000  0.5337270000000  0.5571420000000 1.0
C      1  0.5499340000000  0.5737380000000  0.5321880000000 1.0
C      1  0.5301640000000  0.5571920000000  0.5785470000000 1.0
C      1  0.4260880000000  0.4679220000000  0.5521770000000 1.0
C      1  0.4251190000000  0.5313030000000  0.4473390000000 1.0
C      1  0.5706190000000  0.4684620000000  0.4441580000000 1.0
C      1  0.4504670000000  0.4285610000000  0.5282600000000 1.0
C      1  0.4496590000000  0.5704550000000  0.4714390000000 1.0
C      1  0.5484840000000  0.4273350000000  0.4674830000000 1.0
C      1  0.4688770000000  0.4478130000000  0.5727270000000 1.0
C      1  0.4681540000000  0.5513240000000  0.4271420000000 1.0
C      1  0.5299730000000  0.4436760000000  0.4208880000000 1.0
C      1  0.5202610000000  0.4610680000000  0.4604480000000 1.0
C      1  0.5314470000000  0.4875150000000  0.4684940000000 1.0
C      1  0.4722780000000  0.5020480000000  0.5269430000000 1.0
C      1  0.5269840000000  0.4773010000000  0.5089840000000 1.0
C      1  0.4924920000000  0.5182780000000  0.4806730000000 1.0
C      1  0.4867320000000  0.4756530000000  0.5207850000000 1.0
C      1  0.4733040000000  0.4964720000000  0.4723880000000 1.0
C      1  0.4731070000000  0.4734440000000  0.4933910000000 1.0
C      1  0.5390250000000  0.5175570000000  0.5322600000000 1.0
C      1  0.5340780000000  0.5221500000000  0.5022600000000 1.0
C      1  0.4757080000000  0.5250420000000  0.5055300000000 1.0
C      1  0.5206890000000  0.5392760000000  0.5417730000000 1.0
C      1  0.5159350000000  0.5007640000000  0.4913960000000 1.0
END
