TITL C-862132-7359-78 1.99766035162214 125000 -453.319046203258 0 0 81 (C1) n - 1
REM
REM in /home/nfs/bkarasulu/CARBON/AIRSS/Generating-Clusters/TERSOFF/Higher-Symm/FIRE-HFTN
REM
REM
REM
REM
REM
REM ./C.cell (b20cbc046b6831c77cfcea5457e17084)
REM AIRSS Version 0.9.1 bugfix July 2018 build 013d7b7c2542+ Fri, 06 Jul 2018 19:26:36 +0100
REM compiler GCC version 9.2.1 20190827 (Red Hat 9.2.1-1)
REM options -cpp -mtune=generic -march=x86-64 -g -O0 -fpre-include=/usr/include/finclude/math-vector-fortran.h
REM seed -337393503 329788942 911018783 -1958336990 879210581 -1725536087 -1733874453 -1537131391 -1070860149 1055894893 1368828240 1985013876 -673618698 -65977336 1842302960 -1134505942 957117770 -800359804 -22511831 470520233 -795459135 648677816 523751918 1520217468 1903492316 -1742039985 -988346797 677313716 -1040237382 1084145408 -386839129 -822839629 -1440980462
REM
CELL 1.54180   50.00000   50.00000   50.00000   90.00000   90.00000   90.00000
LATT -1
SFAC C  
C      1  0.5306670000000  0.5269260000000  0.5439100000000 1.0
C      1  0.4881090000000  0.4314710000000  0.4670590000000 1.0
C      1  0.5763800000000  0.5338920000000  0.4847700000000 1.0
C      1  0.5552450000000  0.5021560000000  0.4492190000000 1.0
C      1  0.5691960000000  0.4265920000000  0.5069210000000 1.0
C      1  0.5195050000000  0.5361850000000  0.5724810000000 1.0
C      1  0.4900100000000  0.5539600000000  0.5311240000000 1.0
C      1  0.5341340000000  0.5950250000000  0.4853580000000 1.0
C      1  0.4341640000000  0.4679770000000  0.4746920000000 1.0
C      1  0.5078850000000  0.4822190000000  0.5375240000000 1.0
C      1  0.5034100000000  0.4648350000000  0.5647350000000 1.0
C      1  0.5821310000000  0.5007380000000  0.4596410000000 1.0
C      1  0.4666330000000  0.5151060000000  0.5059920000000 1.0
C      1  0.4131460000000  0.5136100000000  0.4832670000000 1.0
C      1  0.4692660000000  0.4260250000000  0.4899510000000 1.0
C      1  0.4683060000000  0.5273290000000  0.4334280000000 1.0
C      1  0.4439330000000  0.5666010000000  0.5281540000000 1.0
C      1  0.4422610000000  0.4543430000000  0.5219590000000 1.0
C      1  0.5744730000000  0.4012950000000  0.5199660000000 1.0
C      1  0.4326890000000  0.5273220000000  0.4669740000000 1.0
C      1  0.4673860000000  0.5234260000000  0.5554640000000 1.0
C      1  0.5714280000000  0.5122970000000  0.5204330000000 1.0
C      1  0.4716100000000  0.5729160000000  0.5189760000000 1.0
C      1  0.5068330000000  0.5599190000000  0.5542520000000 1.0
C      1  0.4705310000000  0.5031690000000  0.4795600000000 1.0
C      1  0.5175870000000  0.5314790000000  0.4160460000000 1.0
C      1  0.5876200000000  0.4498070000000  0.5073040000000 1.0
C      1  0.5776200000000  0.4713350000000  0.4892750000000 1.0
C      1  0.5238990000000  0.4444740000000  0.5567920000000 1.0
C      1  0.4972710000000  0.4792480000000  0.4463350000000 1.0
C      1  0.5488170000000  0.5373150000000  0.4774420000000 1.0
C      1  0.4333190000000  0.5482440000000  0.5049720000000 1.0
C      1  0.4905690000000  0.5734070000000  0.4486960000000 1.0
C      1  0.4773640000000  0.4671510000000  0.5003850000000 1.0
C      1  0.4756790000000  0.4386140000000  0.4421390000000 1.0
C      1  0.4517570000000  0.4638150000000  0.5740650000000 1.0
C      1  0.4382250000000  0.5173110000000  0.5186650000000 1.0
C      1  0.5241300000000  0.4851580000000  0.4900600000000 1.0
C      1  0.4750810000000  0.5620190000000  0.4911340000000 1.0
C      1  0.4674190000000  0.4416280000000  0.5358090000000 1.0
C      1  0.5321900000000  0.4477800000000  0.5292600000000 1.0
C      1  0.4971600000000  0.4950520000000  0.4710380000000 1.0
C      1  0.5571470000000  0.4915700000000  0.5358040000000 1.0
C      1  0.4437760000000  0.5400860000000  0.5451990000000 1.0
C      1  0.5195420000000  0.5673740000000  0.4518770000000 1.0
C      1  0.5537250000000  0.5368830000000  0.5279970000000 1.0
C      1  0.4470830000000  0.5540990000000  0.4758030000000 1.0
C      1  0.5109330000000  0.5113460000000  0.5312170000000 1.0
C      1  0.4512720000000  0.5312300000000  0.4093130000000 1.0
C      1  0.4262690000000  0.4838710000000  0.5252900000000 1.0
C      1  0.4717580000000  0.4667490000000  0.4382550000000 1.0
C      1  0.4870960000000  0.5307440000000  0.5771220000000 1.0
C      1  0.5469670000000  0.4611340000000  0.4457500000000 1.0
C      1  0.5226700000000  0.4727500000000  0.4329260000000 1.0
C      1  0.4475140000000  0.4802810000000  0.4501810000000 1.0
C      1  0.5308310000000  0.5053230000000  0.5798910000000 1.0
C      1  0.5312370000000  0.5639880000000  0.4845500000000 1.0
C      1  0.5347420000000  0.4769570000000  0.5219400000000 1.0
C      1  0.4757280000000  0.4516550000000  0.5624700000000 1.0
C      1  0.5352650000000  0.5122910000000  0.4687120000000 1.0
C      1  0.5168350000000  0.4339580000000  0.5074920000000 1.0
C      1  0.4530090000000  0.5100410000000  0.4550190000000 1.0
C      1  0.4622010000000  0.4960950000000  0.5458210000000 1.0
C      1  0.5524380000000  0.4583820000000  0.4747170000000 1.0
C      1  0.5316720000000  0.5518110000000  0.4308590000000 1.0
C      1  0.4686660000000  0.5532590000000  0.4505750000000 1.0
C      1  0.5553450000000  0.4959100000000  0.5654420000000 1.0
C      1  0.5506420000000  0.5613680000000  0.5118190000000 1.0
C      1  0.5032990000000  0.4559110000000  0.4869210000000 1.0
C      1  0.4898150000000  0.5268120000000  0.5201540000000 1.0
C      1  0.5062940000000  0.5243730000000  0.4659480000000 1.0
C      1  0.5861450000000  0.5042110000000  0.4916860000000 1.0
C      1  0.4511780000000  0.4519380000000  0.4933950000000 1.0
C      1  0.5111270000000  0.4843190000000  0.5857830000000 1.0
C      1  0.5016870000000  0.5483360000000  0.4846940000000 1.0
C      1  0.4951120000000  0.5160850000000  0.4263220000000 1.0
C      1  0.4371050000000  0.4833780000000  0.5566770000000 1.0
C      1  0.5440860000000  0.4328050000000  0.4910730000000 1.0
C      1  0.4808180000000  0.4814820000000  0.5267670000000 1.0
C      1  0.4183110000000  0.4866850000000  0.4932540000000 1.0
C      1  0.4856240000000  0.4253330000000  0.5160580000000 1.0
END
