TITL C-862501-1041-823 -1.88929161222416e-06 125000 -213.838254692704 0 0 45 (Th) n - 1
REM
REM in /home/nfs/bkarasulu/CARBON/AIRSS/Generating-Clusters/TERSOFF/Higher-Symm/FIRE-HFTN
REM
REM
REM
REM
REM
REM ./C.cell (b20cbc046b6831c77cfcea5457e17084)
REM AIRSS Version 0.9.1 bugfix July 2018 build 013d7b7c2542+ Fri, 06 Jul 2018 19:26:36 +0100
REM compiler GCC version 9.2.1 20190827 (Red Hat 9.2.1-1)
REM options -cpp -mtune=generic -march=x86-64 -g -O0 -fpre-include=/usr/include/finclude/math-vector-fortran.h
REM seed 60169894 744433741 1928162052 1941152286 -1206580293 1535542864 301208863 -258583274 865892216 -1677038802 536982481 -1877088960 641973636 -1401510689 -587789466 1626900136 -805747193 2018041535 -1817259951 -638421306 1872953247 491251793 -1401815176 1480981775 -1061867690 -529137919 -1703173822 -1673866274 -902794317 483476592 1257939478 -1082800230 -284586001
REM
CELL 1.54180   50.00000   50.00000   50.00000   90.00000   90.00000   90.00000
LATT -1
SFAC C  
C      1  0.5209130000000  0.5625190000000  0.4847860000000 1.0
C      1  0.5623680000000  0.4856530000000  0.5201970000000 1.0
C      1  0.4855010000000  0.5210640000000  0.5616520000000 1.0
C      1  0.5209130000000  0.4376100000000  0.5136090000000 1.0
C      1  0.4789140000000  0.5625190000000  0.5136090000000 1.0
C      1  0.4789140000000  0.4376100000000  0.4847860000000 1.0
C      1  0.5623680000000  0.5144760000000  0.4781980000000 1.0
C      1  0.4374590000000  0.4856530000000  0.4781980000000 1.0
C      1  0.4374590000000  0.5144760000000  0.5201970000000 1.0
C      1  0.4855010000000  0.4790650000000  0.4367430000000 1.0
C      1  0.5143250000000  0.5210640000000  0.4367430000000 1.0
C      1  0.5143250000000  0.4790650000000  0.5616520000000 1.0
C      1  0.4789140000000  0.5625190000000  0.4847860000000 1.0
C      1  0.4374590000000  0.4856530000000  0.5201970000000 1.0
C      1  0.5143250000000  0.5210640000000  0.5616520000000 1.0
C      1  0.4789140000000  0.4376100000000  0.5136090000000 1.0
C      1  0.5209130000000  0.5625190000000  0.5136090000000 1.0
C      1  0.5209130000000  0.4376100000000  0.4847860000000 1.0
C      1  0.4374590000000  0.5144760000000  0.4781980000000 1.0
C      1  0.5623680000000  0.4856530000000  0.4781980000000 1.0
C      1  0.5623680000000  0.5144760000000  0.5201970000000 1.0
C      1  0.5143250000000  0.4790650000000  0.4367430000000 1.0
C      1  0.4855010000000  0.5210640000000  0.4367430000000 1.0
C      1  0.4855010000000  0.4790650000000  0.5616520000000 1.0
C      1  0.4692730000000  0.5000640000000  0.5446250000000 1.0
C      1  0.5305540000000  0.5000640000000  0.4537690000000 1.0
C      1  0.5453410000000  0.4694240000000  0.4991970000000 1.0
C      1  0.4999130000000  0.5454920000000  0.4685570000000 1.0
C      1  0.4544850000000  0.5307050000000  0.4991970000000 1.0
C      1  0.4692730000000  0.5000640000000  0.4537690000000 1.0
C      1  0.4999130000000  0.4546360000000  0.5298380000000 1.0
C      1  0.5305540000000  0.5000640000000  0.5446250000000 1.0
C      1  0.5453410000000  0.5307050000000  0.4991970000000 1.0
C      1  0.4544850000000  0.4694240000000  0.4991970000000 1.0
C      1  0.4999130000000  0.5454920000000  0.5298380000000 1.0
C      1  0.4999130000000  0.4546360000000  0.4685570000000 1.0
C      1  0.4789420000000  0.4790940000000  0.5201680000000 1.0
C      1  0.4789420000000  0.5210350000000  0.4782260000000 1.0
C      1  0.5208840000000  0.4790940000000  0.4782260000000 1.0
C      1  0.5208840000000  0.4790940000000  0.5201680000000 1.0
C      1  0.5208840000000  0.5210350000000  0.4782260000000 1.0
C      1  0.4789420000000  0.5210350000000  0.5201680000000 1.0
C      1  0.5208840000000  0.5210350000000  0.5201680000000 1.0
C      1  0.4789420000000  0.4790940000000  0.4782260000000 1.0
C      1  0.4999130000000  0.5000640000000  0.4991970000000 1.0
END
