TITL C-862132-7359-11 0.000131360408037368 125000 -230.498669813062 0 0 43 (C2) n - 1
REM
REM in /home/nfs/bkarasulu/CARBON/AIRSS/Generating-Clusters/TERSOFF/Higher-Symm/FIRE-HFTN
REM
REM
REM
REM
REM
REM ./C.cell (b20cbc046b6831c77cfcea5457e17084)
REM AIRSS Version 0.9.1 bugfix July 2018 build 013d7b7c2542+ Fri, 06 Jul 2018 19:26:36 +0100
REM compiler GCC version 9.2.1 20190827 (Red Hat 9.2.1-1)
REM options -cpp -mtune=generic -march=x86-64 -g -O0 -fpre-include=/usr/include/finclude/math-vector-fortran.h
REM seed 1662795831 -244713470 -1695188751 1344494256 2004843703 -41386530 -1525302230 -874849911 1148198152 -2070443910 77002756 2031144537 -607013382 1140655089 1349410051 1011709371 -705691825 194769190 -31069901 -1239135758 -479198393 -1527800635 -1177688547 -241859027 -33865734 1212952861 1697595300 -819286658 -1077237178 911394978 -1273285333 403064799 -562972427
REM
CELL 1.54180   50.00000   50.00000   50.00000   90.00000   90.00000   90.00000
LATT -1
SFAC C  
C      1  0.4609540000000  0.5380060000000  0.4946220000000 1.0
C      1  0.4609680000000  0.4623720000000  0.5069850000000 1.0
C      1  0.5384050000000  0.4685470000000  0.5114050000000 1.0
C      1  0.5383930000000  0.5318600000000  0.4902050000000 1.0
C      1  0.4785360000000  0.5655760000000  0.4949140000000 1.0
C      1  0.4785610000000  0.4348080000000  0.5066940000000 1.0
C      1  0.5026660000000  0.5457650000000  0.5235620000000 1.0
C      1  0.5026850000000  0.4546280000000  0.4780460000000 1.0
C      1  0.5316490000000  0.4486840000000  0.5342650000000 1.0
C      1  0.5316310000000  0.5517210000000  0.4673450000000 1.0
C      1  0.5018260000000  0.4987770000000  0.4296230000000 1.0
C      1  0.5018230000000  0.5016160000000  0.5719860000000 1.0
C      1  0.4690020000000  0.4976960000000  0.4664540000000 1.0
C      1  0.4690000000000  0.5026840000000  0.5351540000000 1.0
C      1  0.4746000000000  0.4939900000000  0.4374840000000 1.0
C      1  0.4745960000000  0.5063930000000  0.5641240000000 1.0
C      1  0.5619390000000  0.4876830000000  0.5090220000000 1.0
C      1  0.5619340000000  0.5127330000000  0.4925890000000 1.0
C      1  0.5313250000000  0.4574040000000  0.4845820000000 1.0
C      1  0.5313080000000  0.5430000000000  0.5170280000000 1.0
C      1  0.4611620000000  0.5723420000000  0.5337280000000 1.0
C      1  0.4611910000000  0.4280350000000  0.4678800000000 1.0
C      1  0.4452160000000  0.5538270000000  0.5176210000000 1.0
C      1  0.4452370000000  0.4465440000000  0.4839870000000 1.0
C      1  0.5468430000000  0.4860730000000  0.4475020000000 1.0
C      1  0.5468360000000  0.5143370000000  0.5541080000000 1.0
C      1  0.4844110000000  0.5289900000000  0.4707360000000 1.0
C      1  0.4844210000000  0.4713960000000  0.5308720000000 1.0
C      1  0.4483910000000  0.5089700000000  0.4883550000000 1.0
C      1  0.4483940000000  0.4914030000000  0.5132520000000 1.0
C      1  0.4836220000000  0.4774590000000  0.4865760000000 1.0
C      1  0.4836130000000  0.5229270000000  0.5150320000000 1.0
C      1  0.5037510000000  0.4498900000000  0.5435200000000 1.0
C      1  0.5037330000000  0.5505030000000  0.4580890000000 1.0
C      1  0.4895560000000  0.4267810000000  0.4788300000000 1.0
C      1  0.4895280000000  0.5736070000000  0.5227790000000 1.0
C      1  0.5151050000000  0.5144700000000  0.4774480000000 1.0
C      1  0.5151100000000  0.4859280000000  0.5241610000000 1.0
C      1  0.5497550000000  0.4624290000000  0.4630020000000 1.0
C      1  0.5497400000000  0.5379830000000  0.5386080000000 1.0
C      1  0.5228920000000  0.5020610000000  0.4496770000000 1.0
C      1  0.5228910000000  0.4983400000000  0.5519320000000 1.0
C      1  0.5000510000000  0.5001960000000  0.5008040000000 1.0
END
