TITL C-862128-1543-1206 0.00948839401435584 125000 -549.003963312387 0 0 100 (C1) n - 1
REM
REM in /home/nfs/bkarasulu/CARBON/AIRSS/Generating-Clusters/TERSOFF/Higher-Symm/FIRE-HFTN
REM
REM
REM
REM
REM
REM ./C.cell (b20cbc046b6831c77cfcea5457e17084)
REM AIRSS Version 0.9.1 bugfix July 2018 build 013d7b7c2542+ Fri, 06 Jul 2018 19:26:36 +0100
REM compiler GCC version 9.2.1 20190827 (Red Hat 9.2.1-1)
REM options -cpp -mtune=generic -march=x86-64 -g -O0 -fpre-include=/usr/include/finclude/math-vector-fortran.h
REM seed 1564255594 249564190 -1407548315 80001749 1552278043 817636556 934158360 1080080536 1543280943 478312755 961592213 -230705879 -474257743 1074021631 -1483890239 2048351851 339254787 -1573753834 -1239415444 -1662599485 2075150676 -1456260414 -910788173 1654973123 43825516 -1877514431 572693300 438742977 -1604186500 404769899 856827298 -2130753067 319207304
REM
CELL 1.54180   50.00000   50.00000   50.00000   90.00000   90.00000   90.00000
LATT -1
SFAC C  
C      1  0.5287410000000  0.4818620000000  0.5805500000000 1.0
C      1  0.5729570000000  0.4456540000000  0.5181030000000 1.0
C      1  0.4962350000000  0.4553170000000  0.5594150000000 1.0
C      1  0.5210260000000  0.5618420000000  0.5315120000000 1.0
C      1  0.5500380000000  0.4786090000000  0.5553030000000 1.0
C      1  0.5137920000000  0.5823650000000  0.4690600000000 1.0
C      1  0.4368740000000  0.5096930000000  0.4510330000000 1.0
C      1  0.5702050000000  0.5077850000000  0.4407760000000 1.0
C      1  0.4499280000000  0.4766830000000  0.4875410000000 1.0
C      1  0.4584030000000  0.4303170000000  0.4756510000000 1.0
C      1  0.4652000000000  0.4477240000000  0.4289430000000 1.0
C      1  0.4464060000000  0.5053700000000  0.4940320000000 1.0
C      1  0.4569690000000  0.5611260000000  0.5046350000000 1.0
C      1  0.4446920000000  0.5515420000000  0.5306780000000 1.0
C      1  0.5198580000000  0.4808480000000  0.4223970000000 1.0
C      1  0.5054850000000  0.5505420000000  0.4197170000000 1.0
C      1  0.4749660000000  0.5510430000000  0.4388970000000 1.0
C      1  0.5177760000000  0.5120810000000  0.5477080000000 1.0
C      1  0.5295590000000  0.5102520000000  0.4505990000000 1.0
C      1  0.4846490000000  0.5196280000000  0.5137930000000 1.0
C      1  0.4641470000000  0.4173990000000  0.5367970000000 1.0
C      1  0.5273220000000  0.5060630000000  0.4088720000000 1.0
C      1  0.5329310000000  0.4295080000000  0.5796820000000 1.0
C      1  0.4717530000000  0.5256470000000  0.4172960000000 1.0
C      1  0.4702660000000  0.4696090000000  0.4668520000000 1.0
C      1  0.4147980000000  0.5151540000000  0.4950990000000 1.0
C      1  0.4919230000000  0.5328410000000  0.5794450000000 1.0
C      1  0.4710680000000  0.4406310000000  0.5019200000000 1.0
C      1  0.5249880000000  0.5412240000000  0.4440450000000 1.0
C      1  0.5055520000000  0.4330820000000  0.4620970000000 1.0
C      1  0.5285770000000  0.4207100000000  0.5522010000000 1.0
C      1  0.5539490000000  0.5179430000000  0.4172910000000 1.0
C      1  0.4534850000000  0.5014490000000  0.4252710000000 1.0
C      1  0.5567870000000  0.4512390000000  0.5439480000000 1.0
C      1  0.5163770000000  0.4537540000000  0.5833530000000 1.0
C      1  0.5280160000000  0.5406570000000  0.4960570000000 1.0
C      1  0.5345380000000  0.4367370000000  0.4490570000000 1.0
C      1  0.4952150000000  0.4871150000000  0.5558510000000 1.0
C      1  0.5062550000000  0.4156050000000  0.4894920000000 1.0
C      1  0.4828450000000  0.5714980000000  0.5552320000000 1.0
C      1  0.4324850000000  0.4329990000000  0.5287890000000 1.0
C      1  0.4553700000000  0.5088340000000  0.5239640000000 1.0
C      1  0.4558390000000  0.4951130000000  0.5680800000000 1.0
C      1  0.5029610000000  0.5559190000000  0.4839890000000 1.0
C      1  0.4705890000000  0.4767660000000  0.4255400000000 1.0
C      1  0.4783680000000  0.5866230000000  0.5308110000000 1.0
C      1  0.4276080000000  0.5381370000000  0.4471540000000 1.0
C      1  0.4625360000000  0.5199280000000  0.4727360000000 1.0
C      1  0.5409880000000  0.4635910000000  0.4342090000000 1.0
C      1  0.4683810000000  0.4706770000000  0.5109890000000 1.0
C      1  0.4217110000000  0.4805820000000  0.5304370000000 1.0
C      1  0.5081730000000  0.5736580000000  0.5696970000000 1.0
C      1  0.4930360000000  0.5826020000000  0.5055010000000 1.0
C      1  0.5633880000000  0.4788910000000  0.4476270000000 1.0
C      1  0.6041980000000  0.5215360000000  0.5475400000000 1.0
C      1  0.5385990000000  0.5808990000000  0.5120630000000 1.0
C      1  0.4166690000000  0.4571350000000  0.5136630000000 1.0
C      1  0.4758160000000  0.4308860000000  0.4516040000000 1.0
C      1  0.5572670000000  0.5012120000000  0.5384980000000 1.0
C      1  0.4150450000000  0.4918390000000  0.4697240000000 1.0
C      1  0.5144190000000  0.5278380000000  0.5214480000000 1.0
C      1  0.5197160000000  0.4833840000000  0.5100170000000 1.0
C      1  0.5291740000000  0.5964900000000  0.4892580000000 1.0
C      1  0.4703600000000  0.4392910000000  0.5615450000000 1.0
C      1  0.5323860000000  0.5281610000000  0.5692480000000 1.0
C      1  0.5659170000000  0.4502010000000  0.4884360000000 1.0
C      1  0.4462180000000  0.4528440000000  0.5502560000000 1.0
C      1  0.4446020000000  0.5727500000000  0.4798730000000 1.0
C      1  0.5006100000000  0.4622170000000  0.4710700000000 1.0
C      1  0.5034110000000  0.5244790000000  0.4023270000000 1.0
C      1  0.4514790000000  0.5229850000000  0.5738840000000 1.0
C      1  0.5250840000000  0.4550650000000  0.5166960000000 1.0
C      1  0.4993380000000  0.5027940000000  0.5841800000000 1.0
C      1  0.4759710000000  0.5418330000000  0.4944710000000 1.0
C      1  0.4655690000000  0.5462740000000  0.5588380000000 1.0
C      1  0.5556570000000  0.5555330000000  0.5055250000000 1.0
C      1  0.5283210000000  0.4338890000000  0.4973780000000 1.0
C      1  0.5097950000000  0.4388180000000  0.5366670000000 1.0
C      1  0.5705510000000  0.5213940000000  0.4703350000000 1.0
C      1  0.5615610000000  0.5014290000000  0.4906590000000 1.0
C      1  0.5455990000000  0.5589830000000  0.4547380000000 1.0
C      1  0.4909720000000  0.5060300000000  0.4659530000000 1.0
C      1  0.4282370000000  0.5266430000000  0.5253020000000 1.0
C      1  0.4891790000000  0.4224810000000  0.5178810000000 1.0
C      1  0.5568540000000  0.4756750000000  0.4774220000000 1.0
C      1  0.4466960000000  0.5595480000000  0.4526300000000 1.0
C      1  0.5418180000000  0.5052740000000  0.5139610000000 1.0
C      1  0.5577890000000  0.4291990000000  0.4679420000000 1.0
C      1  0.4307700000000  0.4376620000000  0.4713540000000 1.0
C      1  0.5752350000000  0.5236420000000  0.5489390000000 1.0
C      1  0.4978910000000  0.5379070000000  0.4589670000000 1.0
C      1  0.5605130000000  0.5493100000000  0.5382920000000 1.0
C      1  0.4926610000000  0.4921610000000  0.4993980000000 1.0
C      1  0.5258690000000  0.4828110000000  0.4685130000000 1.0
C      1  0.4513860000000  0.4822460000000  0.5407530000000 1.0
C      1  0.4223540000000  0.4624380000000  0.4843170000000 1.0
C      1  0.5601810000000  0.5203380000000  0.5757640000000 1.0
C      1  0.5334380000000  0.5582770000000  0.5603800000000 1.0
C      1  0.4948970000000  0.4863550000000  0.4372860000000 1.0
C      1  0.5639450000000  0.5493750000000  0.4752780000000 1.0
END
