TITL C-862134-6730-671 -0.0106368315881231 125000 -415.577835403373 0 0 71 (C3) n - 1
REM
REM in /home/nfs/bkarasulu/CARBON/AIRSS/Generating-Clusters/TERSOFF/Higher-Symm/FIRE-HFTN
REM
REM
REM
REM
REM
REM ./C.cell (b20cbc046b6831c77cfcea5457e17084)
REM AIRSS Version 0.9.1 bugfix July 2018 build 013d7b7c2542+ Fri, 06 Jul 2018 19:26:36 +0100
REM compiler GCC version 9.2.1 20190827 (Red Hat 9.2.1-1)
REM options -cpp -mtune=generic -march=x86-64 -g -O0 -fpre-include=/usr/include/finclude/math-vector-fortran.h
REM seed 273213223 -2000190822 -1342966964 -1168637104 -1653688505 1563516207 1171140430 844885262 -309544659 1519113173 1544051247 187916932 173329075 -820132051 561149445 -379361534 1875807270 1058873214 890275400 968510627 1217163819 991762592 -500611494 -1092955787 1751252981 -2006935067 -553614680 1846632388 1618860577 35003053 562175219 1428549288 -1482839210
REM
CELL 1.54180   50.00000   50.00000   50.00000   90.00000   90.00000   90.00000
LATT -1
SFAC C  
C      1  0.4814310000000  0.5279720000000  0.5381750000000 1.0
C      1  0.4855550000000  0.4690300000000  0.5381750000000 1.0
C      1  0.5345380000000  0.5020720000000  0.5381750000000 1.0
C      1  0.4559850000000  0.4246550000000  0.4705160000000 1.0
C      1  0.5877530000000  0.4986520000000  0.4705170000000 1.0
C      1  0.4577860000000  0.5757680000000  0.4705170000000 1.0
C      1  0.5823330000000  0.4814080000000  0.5212680000000 1.0
C      1  0.4754290000000  0.5796950000000  0.5212690000000 1.0
C      1  0.4437620000000  0.4379700000000  0.5212680000000 1.0
C      1  0.4912660000000  0.5285230000000  0.4850120000000 1.0
C      1  0.4801610000000  0.4772720000000  0.4850110000000 1.0
C      1  0.5300980000000  0.4932800000000  0.4850120000000 1.0
C      1  0.5006360000000  0.5474450000000  0.4601850000000 1.0
C      1  0.4590890000000  0.4759260000000  0.4601840000000 1.0
C      1  0.5418000000000  0.4757050000000  0.4601850000000 1.0
C      1  0.4721960000000  0.4708450000000  0.4337760000000 1.0
C      1  0.5396470000000  0.4895960000000  0.4337760000000 1.0
C      1  0.4896820000000  0.5386350000000  0.4337760000000 1.0
C      1  0.4414960000000  0.4501140000000  0.4709520000000 1.0
C      1  0.5729500000000  0.4733750000000  0.4709520000000 1.0
C      1  0.4870790000000  0.5755860000000  0.4709530000000 1.0
C      1  0.4874220000000  0.4464850000000  0.4268970000000 1.0
C      1  0.5531300000000  0.5149630000000  0.4268980000000 1.0
C      1  0.4609730000000  0.5376290000000  0.4268980000000 1.0
C      1  0.5393170000000  0.4733500000000  0.5324130000000 1.0
C      1  0.5039160000000  0.5464710000000  0.5324140000000 1.0
C      1  0.4582910000000  0.4792520000000  0.5324130000000 1.0
C      1  0.4883770000000  0.4735950000000  0.5685130000000 1.0
C      1  0.5291730000000  0.5022330000000  0.5685140000000 1.0
C      1  0.4839730000000  0.5232450000000  0.5685140000000 1.0
C      1  0.5176340000000  0.4738130000000  0.5743390000000 1.0
C      1  0.5143550000000  0.5274610000000  0.5743400000000 1.0
C      1  0.4695340000000  0.4977980000000  0.5743390000000 1.0
C      1  0.5724920000000  0.4641870000000  0.4994360000000 1.0
C      1  0.4952640000000  0.5797840000000  0.4994360000000 1.0
C      1  0.4337680000000  0.4551040000000  0.4994350000000 1.0
C      1  0.5168280000000  0.4239150000000  0.5161130000000 1.0
C      1  0.5579730000000  0.5517130000000  0.5161150000000 1.0
C      1  0.4267240000000  0.5234460000000  0.5161140000000 1.0
C      1  0.5319340000000  0.4397050000000  0.4952360000000 1.0
C      1  0.5367450000000  0.5569010000000  0.4952370000000 1.0
C      1  0.4328450000000  0.5024690000000  0.4952360000000 1.0
C      1  0.4456130000000  0.4943460000000  0.5538920000000 1.0
C      1  0.5325840000000  0.4548230000000  0.5538920000000 1.0
C      1  0.5233260000000  0.5499040000000  0.5538920000000 1.0
C      1  0.4885690000000  0.4213940000000  0.5109770000000 1.0
C      1  0.5742850000000  0.5285000000000  0.5109780000000 1.0
C      1  0.4386700000000  0.5491800000000  0.5109780000000 1.0
C      1  0.4823940000000  0.4255750000000  0.4823550000000 1.0
C      1  0.5737520000000  0.5210630000000  0.4823560000000 1.0
C      1  0.4453780000000  0.5524380000000  0.4823560000000 1.0
C      1  0.4951080000000  0.4512610000000  0.4773900000000 1.0
C      1  0.5451500000000  0.5192310000000  0.4773910000000 1.0
C      1  0.4612660000000  0.5285840000000  0.4773910000000 1.0
C      1  0.5084790000000  0.5536780000000  0.5044490000000 1.0
C      1  0.4497690000000  0.4796010000000  0.5044480000000 1.0
C      1  0.5432760000000  0.4657960000000  0.5044480000000 1.0
C      1  0.4269610000000  0.5146200000000  0.5443040000000 1.0
C      1  0.5243530000000  0.4285330000000  0.5443040000000 1.0
C      1  0.5502100000000  0.5559200000000  0.5443050000000 1.0
C      1  0.4463420000000  0.5046010000000  0.4650790000000 1.0
C      1  0.5233400000000  0.4503280000000  0.4650780000000 1.0
C      1  0.5318430000000  0.5441470000000  0.4650790000000 1.0
C      1  0.5126690000000  0.4384230000000  0.4394270000000 1.0
C      1  0.5474890000000  0.5408580000000  0.4394280000000 1.0
C      1  0.4413670000000  0.5197950000000  0.4394270000000 1.0
C      1  0.5674590000000  0.5058010000000  0.5282140000000 1.0
C      1  0.4617420000000  0.5546180000000  0.5282140000000 1.0
C      1  0.4723230000000  0.4386550000000  0.5282130000000 1.0
C      1  0.5005080000000  0.4996920000000  0.4935170000000 1.0
C      1  0.5005080000000  0.4996910000000  0.5256430000000 1.0
END
