TITL C-862503-991-75 -8.34411564500472e-07 125000 -661.418746406367 0 0 152 (Th) n - 1
REM
REM in /home/nfs/bkarasulu/CARBON/AIRSS/Generating-Clusters/TERSOFF/Higher-Symm/FIRE-HFTN
REM
REM
REM
REM
REM
REM ./C.cell (b20cbc046b6831c77cfcea5457e17084)
REM AIRSS Version 0.9.1 bugfix July 2018 build 013d7b7c2542+ Fri, 06 Jul 2018 19:26:36 +0100
REM compiler GCC version 9.2.1 20190827 (Red Hat 9.2.1-1)
REM options -cpp -mtune=generic -march=x86-64 -g -O0 -fpre-include=/usr/include/finclude/math-vector-fortran.h
REM seed 39036301 1329096708 -253746516 -223558463 1638209227 -854293349 958523704 -1607301852 740736912 -581801076 644665229 -53311956 -1008289299 -2110307040 154760275 92381458 -1942328081 -2043713162 1152468612 1215886969 -446661590 -385723421 2104467811 2125878593 634010508 -1105047110 2094131080 163097818 1132061218 -598277937 -2096542119 1096618618 1515653288
REM
CELL 1.54180   50.00000   50.00000   50.00000   90.00000   90.00000   90.00000
LATT -1
SFAC C  
C      1  0.4427890000000  0.5576860000000  0.5835930000000 1.0
C      1  0.5578540000000  0.5832790000000  0.4429350000000 1.0
C      1  0.5834470000000  0.4426210000000  0.5580000000000 1.0
C      1  0.4427890000000  0.4420210000000  0.4167430000000 1.0
C      1  0.5572550000000  0.5576860000000  0.4167430000000 1.0
C      1  0.5572550000000  0.4420210000000  0.5835930000000 1.0
C      1  0.5578540000000  0.4164290000000  0.5574010000000 1.0
C      1  0.4421890000000  0.5832790000000  0.5574010000000 1.0
C      1  0.4421890000000  0.4164290000000  0.4429350000000 1.0
C      1  0.5834470000000  0.5570870000000  0.4423360000000 1.0
C      1  0.4165970000000  0.4426210000000  0.4423360000000 1.0
C      1  0.4165970000000  0.5570870000000  0.5580000000000 1.0
C      1  0.5572550000000  0.5576860000000  0.5835930000000 1.0
C      1  0.4421890000000  0.5832790000000  0.4429350000000 1.0
C      1  0.4165970000000  0.4426210000000  0.5580000000000 1.0
C      1  0.5572550000000  0.4420210000000  0.4167430000000 1.0
C      1  0.4427890000000  0.5576860000000  0.4167430000000 1.0
C      1  0.4427890000000  0.4420210000000  0.5835930000000 1.0
C      1  0.4421890000000  0.4164290000000  0.5574010000000 1.0
C      1  0.5578540000000  0.5832790000000  0.5574010000000 1.0
C      1  0.5578540000000  0.4164290000000  0.4429350000000 1.0
C      1  0.4165970000000  0.5570870000000  0.4423360000000 1.0
C      1  0.5834470000000  0.4426210000000  0.4423360000000 1.0
C      1  0.5834470000000  0.5570870000000  0.5580000000000 1.0
C      1  0.5885480000000  0.5179260000000  0.4820180000000 1.0
C      1  0.5180940000000  0.4817040000000  0.5886950000000 1.0
C      1  0.4818720000000  0.5883800000000  0.5182400000000 1.0
C      1  0.5885480000000  0.4817820000000  0.5183180000000 1.0
C      1  0.4114950000000  0.5179260000000  0.5183180000000 1.0
C      1  0.4114950000000  0.4817820000000  0.4820180000000 1.0
C      1  0.5180940000000  0.5180040000000  0.4116410000000 1.0
C      1  0.4819500000000  0.4817040000000  0.4116410000000 1.0
C      1  0.4819500000000  0.5180040000000  0.5886950000000 1.0
C      1  0.4818720000000  0.4113270000000  0.4820960000000 1.0
C      1  0.5181720000000  0.5883800000000  0.4820960000000 1.0
C      1  0.5181720000000  0.4113270000000  0.5182400000000 1.0
C      1  0.4114950000000  0.5179260000000  0.4820180000000 1.0
C      1  0.4819500000000  0.4817040000000  0.5886950000000 1.0
C      1  0.5181720000000  0.5883800000000  0.5182400000000 1.0
C      1  0.4114950000000  0.4817820000000  0.5183180000000 1.0
C      1  0.5885480000000  0.5179260000000  0.5183180000000 1.0
C      1  0.5885480000000  0.4817820000000  0.4820180000000 1.0
C      1  0.4819500000000  0.5180040000000  0.4116410000000 1.0
C      1  0.5180940000000  0.4817040000000  0.4116410000000 1.0
C      1  0.5180940000000  0.5180040000000  0.5886950000000 1.0
C      1  0.5181720000000  0.4113270000000  0.4820960000000 1.0
C      1  0.4818720000000  0.5883800000000  0.4820960000000 1.0
C      1  0.4818720000000  0.4113270000000  0.5182400000000 1.0
C      1  0.4753610000000  0.5529540000000  0.5817780000000 1.0
C      1  0.5531220000000  0.5814640000000  0.4755070000000 1.0
C      1  0.5816320000000  0.4751930000000  0.5532680000000 1.0
C      1  0.4753610000000  0.4467540000000  0.4185580000000 1.0
C      1  0.5246830000000  0.5529540000000  0.4185580000000 1.0
C      1  0.5246830000000  0.4467540000000  0.5817780000000 1.0
C      1  0.5531220000000  0.4182440000000  0.5248290000000 1.0
C      1  0.4469220000000  0.5814640000000  0.5248290000000 1.0
C      1  0.4469220000000  0.4182440000000  0.4755070000000 1.0
C      1  0.5816320000000  0.5245150000000  0.4470680000000 1.0
C      1  0.4184120000000  0.4751930000000  0.4470680000000 1.0
C      1  0.4184120000000  0.5245150000000  0.5532680000000 1.0
C      1  0.5246830000000  0.5529540000000  0.5817780000000 1.0
C      1  0.4469220000000  0.5814640000000  0.4755070000000 1.0
C      1  0.4184120000000  0.4751930000000  0.5532680000000 1.0
C      1  0.5246830000000  0.4467540000000  0.4185580000000 1.0
C      1  0.4753610000000  0.5529540000000  0.4185580000000 1.0
C      1  0.4753610000000  0.4467540000000  0.5817780000000 1.0
C      1  0.4469220000000  0.4182440000000  0.5248290000000 1.0
C      1  0.5531220000000  0.5814640000000  0.5248290000000 1.0
C      1  0.5531220000000  0.4182440000000  0.4755070000000 1.0
C      1  0.4184120000000  0.5245150000000  0.4470680000000 1.0
C      1  0.5816320000000  0.4751930000000  0.4470680000000 1.0
C      1  0.5816320000000  0.5245150000000  0.5532680000000 1.0
C      1  0.4106160000000  0.4460710000000  0.4759950000000 1.0
C      1  0.4462390000000  0.4756800000000  0.4107620000000 1.0
C      1  0.4758480000000  0.4104480000000  0.4463850000000 1.0
C      1  0.4106160000000  0.5536370000000  0.5243410000000 1.0
C      1  0.5894280000000  0.4460710000000  0.5243410000000 1.0
C      1  0.5894280000000  0.5536370000000  0.4759950000000 1.0
C      1  0.4462390000000  0.5240270000000  0.5895740000000 1.0
C      1  0.5538050000000  0.4756800000000  0.5895740000000 1.0
C      1  0.5538050000000  0.5240270000000  0.4107620000000 1.0
C      1  0.4758480000000  0.5892600000000  0.5539510000000 1.0
C      1  0.5241950000000  0.4104480000000  0.5539510000000 1.0
C      1  0.5241950000000  0.5892600000000  0.4463850000000 1.0
C      1  0.5894280000000  0.4460710000000  0.4759950000000 1.0
C      1  0.5538050000000  0.4756800000000  0.4107620000000 1.0
C      1  0.5241950000000  0.4104480000000  0.4463850000000 1.0
C      1  0.5894280000000  0.5536370000000  0.5243410000000 1.0
C      1  0.4106160000000  0.4460710000000  0.5243410000000 1.0
C      1  0.4106160000000  0.5536370000000  0.4759950000000 1.0
C      1  0.5538050000000  0.5240270000000  0.5895740000000 1.0
C      1  0.4462390000000  0.4756800000000  0.5895740000000 1.0
C      1  0.4462390000000  0.5240270000000  0.4107620000000 1.0
C      1  0.5241950000000  0.5892600000000  0.5539510000000 1.0
C      1  0.4758480000000  0.4104480000000  0.5539510000000 1.0
C      1  0.4758480000000  0.5892600000000  0.4463850000000 1.0
C      1  0.4817990000000  0.5236670000000  0.5525000000000 1.0
C      1  0.5238350000000  0.5521860000000  0.4819450000000 1.0
C      1  0.5523540000000  0.4816310000000  0.5239810000000 1.0
C      1  0.4817990000000  0.4760410000000  0.4478360000000 1.0
C      1  0.5182440000000  0.5236670000000  0.4478360000000 1.0
C      1  0.5182440000000  0.4760410000000  0.5525000000000 1.0
C      1  0.5238350000000  0.4475220000000  0.5183910000000 1.0
C      1  0.4762090000000  0.5521860000000  0.5183910000000 1.0
C      1  0.4762090000000  0.4475220000000  0.4819450000000 1.0
C      1  0.5523540000000  0.5180760000000  0.4763550000000 1.0
C      1  0.4476900000000  0.4816310000000  0.4763550000000 1.0
C      1  0.4476900000000  0.5180760000000  0.5239810000000 1.0
C      1  0.5182440000000  0.5236670000000  0.5525000000000 1.0
C      1  0.4762090000000  0.5521860000000  0.4819450000000 1.0
C      1  0.4476900000000  0.4816310000000  0.5239810000000 1.0
C      1  0.5182440000000  0.4760410000000  0.4478360000000 1.0
C      1  0.4817990000000  0.5236670000000  0.4478360000000 1.0
C      1  0.4817990000000  0.4760410000000  0.5525000000000 1.0
C      1  0.4762090000000  0.4475220000000  0.5183910000000 1.0
C      1  0.5238350000000  0.5521860000000  0.5183910000000 1.0
C      1  0.5238350000000  0.4475220000000  0.4819450000000 1.0
C      1  0.4476900000000  0.5180760000000  0.4763550000000 1.0
C      1  0.5523540000000  0.4816310000000  0.4763550000000 1.0
C      1  0.5523540000000  0.5180760000000  0.5239810000000 1.0
C      1  0.4476320000000  0.5147410000000  0.4414360000000 1.0
C      1  0.5149090000000  0.4411220000000  0.4477780000000 1.0
C      1  0.4412900000000  0.4474640000000  0.5150550000000 1.0
C      1  0.4476320000000  0.4849670000000  0.5589000000000 1.0
C      1  0.5524120000000  0.5147410000000  0.5589000000000 1.0
C      1  0.5524120000000  0.4849670000000  0.4414360000000 1.0
C      1  0.5149090000000  0.5585860000000  0.5525580000000 1.0
C      1  0.4851350000000  0.4411220000000  0.5525580000000 1.0
C      1  0.4851350000000  0.5585860000000  0.4477780000000 1.0
C      1  0.4412900000000  0.5522440000000  0.4852810000000 1.0
C      1  0.5587540000000  0.4474640000000  0.4852810000000 1.0
C      1  0.5587540000000  0.5522440000000  0.5150550000000 1.0
C      1  0.5524120000000  0.5147410000000  0.4414360000000 1.0
C      1  0.4851350000000  0.4411220000000  0.4477780000000 1.0
C      1  0.5587540000000  0.4474640000000  0.5150550000000 1.0
C      1  0.5524120000000  0.4849670000000  0.5589000000000 1.0
C      1  0.4476320000000  0.5147410000000  0.5589000000000 1.0
C      1  0.4476320000000  0.4849670000000  0.4414360000000 1.0
C      1  0.4851350000000  0.5585860000000  0.5525580000000 1.0
C      1  0.5149090000000  0.4411220000000  0.5525580000000 1.0
C      1  0.5149090000000  0.5585860000000  0.4477780000000 1.0
C      1  0.5587540000000  0.5522440000000  0.4852810000000 1.0
C      1  0.4412900000000  0.4474640000000  0.4852810000000 1.0
C      1  0.4412900000000  0.5522440000000  0.5150550000000 1.0
C      1  0.4823510000000  0.5175250000000  0.4824970000000 1.0
C      1  0.4823510000000  0.4821830000000  0.5178390000000 1.0
C      1  0.5176930000000  0.4821830000000  0.4824970000000 1.0
C      1  0.5176930000000  0.5175250000000  0.4824970000000 1.0
C      1  0.5176930000000  0.4821830000000  0.5178390000000 1.0
C      1  0.4823510000000  0.5175250000000  0.5178390000000 1.0
C      1  0.5176930000000  0.5175250000000  0.5178390000000 1.0
C      1  0.4823510000000  0.4821830000000  0.4824970000000 1.0
END
