TITL C-862129-6180-580 -0.000288258796479723 125000 -630.054299433972 0 0 111 (C5) n - 1
REM
REM in /home/nfs/bkarasulu/CARBON/AIRSS/Generating-Clusters/TERSOFF/Higher-Symm/FIRE-HFTN
REM
REM
REM
REM
REM
REM ./C.cell (b20cbc046b6831c77cfcea5457e17084)
REM AIRSS Version 0.9.1 bugfix July 2018 build 013d7b7c2542+ Fri, 06 Jul 2018 19:26:36 +0100
REM compiler GCC version 9.2.1 20190827 (Red Hat 9.2.1-1)
REM options -cpp -mtune=generic -march=x86-64 -g -O0 -fpre-include=/usr/include/finclude/math-vector-fortran.h
REM seed -1036853919 1384806966 -1857125329 -1068891347 -326819080 -1111110437 -14072683 1925288237 1235941055 -1639769964 -961699644 -1555702711 694614734 -881029978 -1284633341 -1865482977 -107966961 725227654 1027565631 -1268361702 -223054076 475101051 -341173451 -265016236 2071296868 -841326589 1584554191 2008358792 -1075677354 1935109300 2023497059 1870485757 470131674
REM
CELL 1.54180   50.00000   50.00000   50.00000   90.00000   90.00000   90.00000
LATT -1
SFAC C  
C      1  0.5451280000000  0.5209380000000  0.5691470000000 1.0
C      1  0.5339360000000  0.4631270000000  0.5691470000000 1.0
C      1  0.4754960000000  0.4559080000000  0.5691470000000 1.0
C      1  0.4505710000000  0.5092560000000  0.5691470000000 1.0
C      1  0.4936060000000  0.5494470000000  0.5691470000000 1.0
C      1  0.4155160000000  0.4735090000000  0.4727670000000 1.0
C      1  0.4487760000000  0.5717400000000  0.4727670000000 1.0
C      1  0.5524770000000  0.5704620000000  0.4727670000000 1.0
C      1  0.5833070000000  0.4714420000000  0.4727670000000 1.0
C      1  0.4986610000000  0.4115220000000  0.4727660000000 1.0
C      1  0.4121630000000  0.4441050000000  0.4686530000000 1.0
C      1  0.4197750000000  0.5658430000000  0.4686530000000 1.0
C      1  0.5379060000000  0.5962220000000  0.4686530000000 1.0
C      1  0.6033040000000  0.4932600000000  0.4686530000000 1.0
C      1  0.5255900000000  0.3992460000000  0.4686530000000 1.0
C      1  0.5956430000000  0.4750470000000  0.5271680000000 1.0
C      1  0.5059020000000  0.4009040000000  0.5271680000000 1.0
C      1  0.4076550000000  0.4633420000000  0.5271680000000 1.0
C      1  0.4366770000000  0.5760740000000  0.5271680000000 1.0
C      1  0.5528600000000  0.5833090000000  0.5271680000000 1.0
C      1  0.4912580000000  0.5533410000000  0.5125670000000 1.0
C      1  0.5481070000000  0.5243740000000  0.5125670000000 1.0
C      1  0.5381240000000  0.4613560000000  0.5125660000000 1.0
C      1  0.4751060000000  0.4513770000000  0.5125660000000 1.0
C      1  0.4461420000000  0.5082270000000  0.5125670000000 1.0
C      1  0.4743190000000  0.4894860000000  0.4861140000000 1.0
C      1  0.4821420000000  0.5207520000000  0.4861140000000 1.0
C      1  0.5142950000000  0.5229740000000  0.4861140000000 1.0
C      1  0.5263440000000  0.4930810000000  0.4861140000000 1.0
C      1  0.5016370000000  0.4723840000000  0.4861140000000 1.0
C      1  0.4745660000000  0.5249140000000  0.5272080000000 1.0
C      1  0.5159120000000  0.5314650000000  0.5272080000000 1.0
C      1  0.5349200000000  0.4941660000000  0.5272080000000 1.0
C      1  0.5053200000000  0.4645640000000  0.5272080000000 1.0
C      1  0.4680190000000  0.4835670000000  0.5272080000000 1.0
C      1  0.4421900000000  0.4773720000000  0.4948740000000 1.0
C      1  0.4606930000000  0.5475650000000  0.4948740000000 1.0
C      1  0.5331680000000  0.5516590000000  0.4948740000000 1.0
C      1  0.5594570000000  0.4839960000000  0.4948740000000 1.0
C      1  0.5032300000000  0.4380840000000  0.4948740000000 1.0
C      1  0.5432770000000  0.4128830000000  0.4874040000000 1.0
C      1  0.4305970000000  0.4314970000000  0.4874040000000 1.0
C      1  0.4134810000000  0.5444140000000  0.4874040000000 1.0
C      1  0.5155820000000  0.5955860000000  0.4874040000000 1.0
C      1  0.5958000000000  0.5142960000000  0.4874040000000 1.0
C      1  0.4008610000000  0.4801890000000  0.5017260000000 1.0
C      1  0.4506000000000  0.5877420000000  0.5017260000000 1.0
C      1  0.5682590000000  0.5736720000000  0.5017260000000 1.0
C      1  0.5912370000000  0.4574240000000  0.5017260000000 1.0
C      1  0.4877790000000  0.3996480000000  0.5017260000000 1.0
C      1  0.4560000000000  0.5261200000000  0.4114390000000 1.0
C      1  0.5113220000000  0.5494950000000  0.4114390000000 1.0
C      1  0.5506480000000  0.5041040000000  0.4114390000000 1.0
C      1  0.5196320000000  0.4526760000000  0.4114390000000 1.0
C      1  0.4611360000000  0.4662820000000  0.4114390000000 1.0
C      1  0.4473380000000  0.4476000000000  0.5611640000000 1.0
C      1  0.4339690000000  0.5334680000000  0.5611640000000 1.0
C      1  0.5115030000000  0.5727180000000  0.5611640000000 1.0
C      1  0.5727910000000  0.5111080000000  0.5611640000000 1.0
C      1  0.5331350000000  0.4337810000000  0.5611640000000 1.0
C      1  0.5021650000000  0.5775440000000  0.5325050000000 1.0
C      1  0.5744950000000  0.5214800000000  0.5325050000000 1.0
C      1  0.5435270000000  0.4353650000000  0.5325050000000 1.0
C      1  0.4520570000000  0.4382070000000  0.5325050000000 1.0
C      1  0.4264940000000  0.5260790000000  0.5325050000000 1.0
C      1  0.4556940000000  0.4664250000000  0.4399560000000 1.0
C      1  0.4544540000000  0.5313390000000  0.4399560000000 1.0
C      1  0.5158080000000  0.5525780000000  0.4399560000000 1.0
C      1  0.5549670000000  0.5007900000000  0.4399560000000 1.0
C      1  0.5178140000000  0.4475440000000  0.4399560000000 1.0
C      1  0.5059710000000  0.4188370000000  0.5531910000000 1.0
C      1  0.4247320000000  0.4688170000000  0.5531910000000 1.0
C      1  0.4471620000000  0.5615250000000  0.5531910000000 1.0
C      1  0.5422640000000  0.5688410000000  0.5531910000000 1.0
C      1  0.5786100000000  0.4806550000000  0.5531910000000 1.0
C      1  0.5491350000000  0.4782450000000  0.5501010000000 1.0
C      1  0.4945700000000  0.4461240000000  0.5501010000000 1.0
C      1  0.4471610000000  0.4880920000000  0.5501010000000 1.0
C      1  0.4724240000000  0.5461500000000  0.5501010000000 1.0
C      1  0.5354470000000  0.5400640000000  0.5501010000000 1.0
C      1  0.4743600000000  0.5058210000000  0.5870870000000 1.0
C      1  0.4976910000000  0.5257600000000  0.5870870000000 1.0
C      1  0.5238630000000  0.5097330000000  0.5870870000000 1.0
C      1  0.5167090000000  0.4798890000000  0.5870870000000 1.0
C      1  0.4861140000000  0.4774710000000  0.5870870000000 1.0
C      1  0.4413820000000  0.5119810000000  0.4580860000000 1.0
C      1  0.4933580000000  0.5590280000000  0.4580860000000 1.0
C      1  0.5541640000000  0.5241350000000  0.4580860000000 1.0
C      1  0.5397680000000  0.4555220000000  0.4580860000000 1.0
C      1  0.4700650000000  0.4480100000000  0.4580860000000 1.0
C      1  0.4805830000000  0.4831130000000  0.3983710000000 1.0
C      1  0.4780170000000  0.5128250000000  0.3983720000000 1.0
C      1  0.5054820000000  0.5244470000000  0.3983720000000 1.0
C      1  0.5250220000000  0.5019180000000  0.3983710000000 1.0
C      1  0.5096340000000  0.4763720000000  0.3983710000000 1.0
C      1  0.5434040000000  0.4436910000000  0.4841460000000 1.0
C      1  0.4599370000000  0.4408970000000  0.4841460000000 1.0
C      1  0.4314870000000  0.5194150000000  0.4841460000000 1.0
C      1  0.4973700000000  0.5707370000000  0.4841460000000 1.0
C      1  0.5665390000000  0.5239370000000  0.4841460000000 1.0
C      1  0.5851430000000  0.5007730000000  0.5137650000000 1.0
C      1  0.5271230000000  0.4188390000000  0.5137650000000 1.0
C      1  0.4312710000000  0.4487010000000  0.5137650000000 1.0
C      1  0.4300510000000  0.5490900000000  0.5137650000000 1.0
C      1  0.5251490000000  0.5812720000000  0.5137650000000 1.0
C      1  0.4352340000000  0.4846230000000  0.4511810000000 1.0
C      1  0.4654390000000  0.5564210000000  0.4511810000000 1.0
C      1  0.5430570000000  0.5498810000000  0.4511810000000 1.0
C      1  0.5608220000000  0.4740410000000  0.4511810000000 1.0
C      1  0.4941840000000  0.4337090000000  0.4511810000000 1.0
C      1  0.4997470000000  0.4997350000000  0.5323610000000 1.0
END
