TITL C-862502-1143-236 0.0330893416061276 125000 -491.387015796728 0 0 90 (C1) n - 1
REM
REM in /home/nfs/bkarasulu/CARBON/AIRSS/Generating-Clusters/TERSOFF/Higher-Symm/FIRE-HFTN
REM
REM
REM
REM
REM
REM ./C.cell (b20cbc046b6831c77cfcea5457e17084)
REM AIRSS Version 0.9.1 bugfix July 2018 build 013d7b7c2542+ Fri, 06 Jul 2018 19:26:36 +0100
REM compiler GCC version 9.2.1 20190827 (Red Hat 9.2.1-1)
REM options -cpp -mtune=generic -march=x86-64 -g -O0 -fpre-include=/usr/include/finclude/math-vector-fortran.h
REM seed -1041024721 1747952733 -1267109420 -61816235 -896470921 1314550800 -1614733201 -619804735 2101578275 667631011 -813518130 -614741867 613899038 -588086098 -35216347 1855511987 2087905375 724438386 231225846 1454394345 573758242 1925462316 1838595293 -1324531192 -560746856 979712345 317931020 408731647 -460423268 555291738 1292382296 -751801565 1084706214
REM
CELL 1.54180   50.00000   50.00000   50.00000   90.00000   90.00000   90.00000
LATT -1
SFAC C  
C      1  0.4425130000000  0.4673550000000  0.4509960000000 1.0
C      1  0.4851870000000  0.4668750000000  0.5740260000000 1.0
C      1  0.5702310000000  0.4665930000000  0.4755770000000 1.0
C      1  0.4431780000000  0.5334600000000  0.4504010000000 1.0
C      1  0.4867990000000  0.5331260000000  0.5730060000000 1.0
C      1  0.5710880000000  0.5323430000000  0.4746950000000 1.0
C      1  0.4712320000000  0.4255450000000  0.4470500000000 1.0
C      1  0.4688680000000  0.4242390000000  0.5505180000000 1.0
C      1  0.5598290000000  0.4249090000000  0.5031640000000 1.0
C      1  0.4719700000000  0.5758180000000  0.4481690000000 1.0
C      1  0.4677780000000  0.5751280000000  0.5506170000000 1.0
C      1  0.5604910000000  0.5742390000000  0.5015830000000 1.0
C      1  0.4791600000000  0.5615960000000  0.5121460000000 1.0
C      1  0.5209240000000  0.5654480000000  0.5125290000000 1.0
C      1  0.5006310000000  0.5615600000000  0.4760780000000 1.0
C      1  0.4787350000000  0.4380360000000  0.5117480000000 1.0
C      1  0.5206940000000  0.4386130000000  0.5124010000000 1.0
C      1  0.5002910000000  0.4345940000000  0.4759740000000 1.0
C      1  0.4482810000000  0.4389880000000  0.4990840000000 1.0
C      1  0.5248600000000  0.4399340000000  0.5450230000000 1.0
C      1  0.5259040000000  0.4376340000000  0.4557160000000 1.0
C      1  0.4486970000000  0.5603280000000  0.4994890000000 1.0
C      1  0.5257460000000  0.5624900000000  0.5448310000000 1.0
C      1  0.5266330000000  0.5605260000000  0.4559340000000 1.0
C      1  0.5586290000000  0.5585090000000  0.5292530000000 1.0
C      1  0.4971560000000  0.5596170000000  0.4344480000000 1.0
C      1  0.4446630000000  0.5586180000000  0.5356380000000 1.0
C      1  0.5582530000000  0.4413760000000  0.5306410000000 1.0
C      1  0.4960700000000  0.4414460000000  0.4349240000000 1.0
C      1  0.4443170000000  0.4401860000000  0.5353990000000 1.0
C      1  0.5708690000000  0.5152630000000  0.4509450000000 1.0
C      1  0.4209470000000  0.5170170000000  0.4596770000000 1.0
C      1  0.5071180000000  0.5160750000000  0.5851260000000 1.0
C      1  0.5730220000000  0.4827690000000  0.4515680000000 1.0
C      1  0.4218280000000  0.4844570000000  0.4625360000000 1.0
C      1  0.5046540000000  0.4835170000000  0.5881570000000 1.0
C      1  0.4926870000000  0.4411320000000  0.5612200000000 1.0
C      1  0.5558510000000  0.4404000000000  0.4758920000000 1.0
C      1  0.4497810000000  0.4410430000000  0.4629950000000 1.0
C      1  0.4933530000000  0.5597090000000  0.5608300000000 1.0
C      1  0.5571670000000  0.5585820000000  0.4751660000000 1.0
C      1  0.4506370000000  0.5591340000000  0.4634910000000 1.0
C      1  0.5484870000000  0.3970380000000  0.5037550000000 1.0
C      1  0.4772680000000  0.3996440000000  0.4576220000000 1.0
C      1  0.4775710000000  0.3978090000000  0.5386840000000 1.0
C      1  0.5484400000000  0.6002010000000  0.5014500000000 1.0
C      1  0.4781940000000  0.6021840000000  0.4615580000000 1.0
C      1  0.4728890000000  0.6030020000000  0.5405210000000 1.0
C      1  0.4527540000000  0.4853540000000  0.5170250000000 1.0
C      1  0.5382190000000  0.4861740000000  0.5325560000000 1.0
C      1  0.5081340000000  0.4851960000000  0.4504400000000 1.0
C      1  0.4528040000000  0.5140150000000  0.5171280000000 1.0
C      1  0.5389570000000  0.5149580000000  0.5321860000000 1.0
C      1  0.5086070000000  0.5141260000000  0.4510180000000 1.0
C      1  0.4908350000000  0.5299730000000  0.4335870000000 1.0
C      1  0.4470630000000  0.5292840000000  0.5415680000000 1.0
C      1  0.5633300000000  0.5293160000000  0.5249970000000 1.0
C      1  0.4899540000000  0.4706070000000  0.4328130000000 1.0
C      1  0.4465490000000  0.4698900000000  0.5412790000000 1.0
C      1  0.5621180000000  0.4706300000000  0.5255330000000 1.0
C      1  0.4628700000000  0.5226250000000  0.4321570000000 1.0
C      1  0.4609050000000  0.5220860000000  0.5659690000000 1.0
C      1  0.5775950000000  0.5214350000000  0.5008700000000 1.0
C      1  0.4619250000000  0.4782270000000  0.4322920000000 1.0
C      1  0.4594250000000  0.4775390000000  0.5661310000000 1.0
C      1  0.5766260000000  0.4777980000000  0.5015380000000 1.0
C      1  0.4934380000000  0.3997150000000  0.4827190000000 1.0
C      1  0.4894810000000  0.4106770000000  0.5148020000000 1.0
C      1  0.5209520000000  0.4090740000000  0.5019280000000 1.0
C      1  0.4929260000000  0.5891450000000  0.4836670000000 1.0
C      1  0.4882160000000  0.5910880000000  0.5174950000000 1.0
C      1  0.5186300000000  0.6003000000000  0.5031140000000 1.0
C      1  0.4856350000000  0.5343020000000  0.4805140000000 1.0
C      1  0.4916330000000  0.5350530000000  0.5220720000000 1.0
C      1  0.5259460000000  0.5359450000000  0.4976540000000 1.0
C      1  0.4849240000000  0.4639150000000  0.4792740000000 1.0
C      1  0.4899620000000  0.4655680000000  0.5221190000000 1.0
C      1  0.5233000000000  0.4651070000000  0.4965860000000 1.0
C      1  0.4118130000000  0.4829650000000  0.4929780000000 1.0
C      1  0.5356130000000  0.4855350000000  0.5808100000000 1.0
C      1  0.5510510000000  0.4855670000000  0.4288320000000 1.0
C      1  0.4115530000000  0.5145440000000  0.4899690000000 1.0
C      1  0.5383660000000  0.5170420000000  0.5780350000000 1.0
C      1  0.5491850000000  0.5171850000000  0.4273450000000 1.0
C      1  0.5249450000000  0.4673850000000  0.4670500000000 1.0
C      1  0.4579160000000  0.4692300000000  0.4929750000000 1.0
C      1  0.5144170000000  0.4698660000000  0.5396710000000 1.0
C      1  0.5271920000000  0.5302580000000  0.4674590000000 1.0
C      1  0.4583480000000  0.5304960000000  0.4931980000000 1.0
C      1  0.5163220000000  0.5326980000000  0.5383930000000 1.0
END
