TITL C-862132-7359-228 -0.00929333112682869 125000 -652.206395410961 0 0 119 (C1) n - 1
REM
REM in /home/nfs/bkarasulu/CARBON/AIRSS/Generating-Clusters/TERSOFF/Higher-Symm/FIRE-HFTN
REM
REM
REM
REM
REM
REM ./C.cell (b20cbc046b6831c77cfcea5457e17084)
REM AIRSS Version 0.9.1 bugfix July 2018 build 013d7b7c2542+ Fri, 06 Jul 2018 19:26:36 +0100
REM compiler GCC version 9.2.1 20190827 (Red Hat 9.2.1-1)
REM options -cpp -mtune=generic -march=x86-64 -g -O0 -fpre-include=/usr/include/finclude/math-vector-fortran.h
REM seed 634587849 258650260 3783742 -449016445 -1513517466 524392492 1571724267 4508992 1163481972 -1839301789 -2074547983 637185442 -1076005788 -678514233 617147262 443406761 -1497525212 1400102424 -44584662 594009119 -381817821 -1038385749 936145873 -708721193 -301918245 668232362 -373335686 758044106 386817640 1901655287 -1196409961 -1418510599 -669462663
REM
CELL 1.54180   50.00000   50.00000   50.00000   90.00000   90.00000   90.00000
LATT -1
SFAC C  
C      1  0.5125210000000  0.5102850000000  0.5752400000000 1.0
C      1  0.5724130000000  0.5111510000000  0.5098790000000 1.0
C      1  0.5329740000000  0.5100930000000  0.4324110000000 1.0
C      1  0.4473230000000  0.5104220000000  0.4478640000000 1.0
C      1  0.4340510000000  0.5111940000000  0.5343310000000 1.0
C      1  0.5126500000000  0.4869530000000  0.4258640000000 1.0
C      1  0.5728240000000  0.4868470000000  0.4887620000000 1.0
C      1  0.5326960000000  0.4866400000000  0.5665430000000 1.0
C      1  0.4451710000000  0.4876600000000  0.5531570000000 1.0
C      1  0.4351610000000  0.4862420000000  0.4653310000000 1.0
C      1  0.5249900000000  0.4249330000000  0.4528870000000 1.0
C      1  0.4668610000000  0.4257430000000  0.4619680000000 1.0
C      1  0.4528670000000  0.4318860000000  0.5232330000000 1.0
C      1  0.5039480000000  0.4300420000000  0.5538710000000 1.0
C      1  0.5500790000000  0.4266600000000  0.5112990000000 1.0
C      1  0.5241140000000  0.5657160000000  0.5460650000000 1.0
C      1  0.4648190000000  0.5677080000000  0.5407500000000 1.0
C      1  0.4525800000000  0.5707900000000  0.4791750000000 1.0
C      1  0.5072560000000  0.5722420000000  0.4467260000000 1.0
C      1  0.5488860000000  0.5715300000000  0.4883050000000 1.0
C      1  0.4419790000000  0.4162250000000  0.4771740000000 1.0
C      1  0.4570180000000  0.4150380000000  0.5486620000000 1.0
C      1  0.5311670000000  0.4143260000000  0.5567140000000 1.0
C      1  0.5607740000000  0.4114560000000  0.4864620000000 1.0
C      1  0.5049270000000  0.4068090000000  0.4380080000000 1.0
C      1  0.4411640000000  0.5833860000000  0.5269550000000 1.0
C      1  0.4585900000000  0.5858630000000  0.4527300000000 1.0
C      1  0.5322840000000  0.5902950000000  0.4464260000000 1.0
C      1  0.5600780000000  0.5811430000000  0.5151930000000 1.0
C      1  0.5058410000000  0.5827120000000  0.5640930000000 1.0
C      1  0.4890490000000  0.4804170000000  0.5231560000000 1.0
C      1  0.5185710000000  0.4705800000000  0.5191340000000 1.0
C      1  0.5239850000000  0.4686660000000  0.4872700000000 1.0
C      1  0.4965660000000  0.4699520000000  0.4723160000000 1.0
C      1  0.4754210000000  0.4705200000000  0.4953510000000 1.0
C      1  0.4877280000000  0.5286800000000  0.4753110000000 1.0
C      1  0.5186860000000  0.5273500000000  0.4793690000000 1.0
C      1  0.5222130000000  0.5269300000000  0.5104320000000 1.0
C      1  0.4948380000000  0.5171480000000  0.5249770000000 1.0
C      1  0.4733640000000  0.5269490000000  0.5042730000000 1.0
C      1  0.4856450000000  0.5957380000000  0.4487630000000 1.0
C      1  0.4456140000000  0.5931960000000  0.4997270000000 1.0
C      1  0.4808540000000  0.5915020000000  0.5525180000000 1.0
C      1  0.5409120000000  0.5895210000000  0.5350790000000 1.0
C      1  0.5441140000000  0.5969930000000  0.4719680000000 1.0
C      1  0.4840280000000  0.4062630000000  0.5540550000000 1.0
C      1  0.4457460000000  0.4079860000000  0.5045800000000 1.0
C      1  0.4803160000000  0.4002100000000  0.4517200000000 1.0
C      1  0.5412350000000  0.4014940000000  0.4673800000000 1.0
C      1  0.5435860000000  0.4043730000000  0.5321330000000 1.0
C      1  0.4325040000000  0.5326060000000  0.4604770000000 1.0
C      1  0.4420500000000  0.5341000000000  0.5515100000000 1.0
C      1  0.5311020000000  0.5329960000000  0.5714330000000 1.0
C      1  0.5763210000000  0.5332320000000  0.4906890000000 1.0
C      1  0.5166570000000  0.5331240000000  0.4234420000000 1.0
C      1  0.4324170000000  0.4647150000000  0.5395760000000 1.0
C      1  0.4432540000000  0.4640640000000  0.4476100000000 1.0
C      1  0.5310890000000  0.4639070000000  0.4283300000000 1.0
C      1  0.5773400000000  0.4647670000000  0.5078140000000 1.0
C      1  0.5161660000000  0.4637120000000  0.5758030000000 1.0
C      1  0.4952550000000  0.5498060000000  0.5402440000000 1.0
C      1  0.5237150000000  0.5596970000000  0.5110460000000 1.0
C      1  0.5279540000000  0.5548700000000  0.4695540000000 1.0
C      1  0.4863260000000  0.5599740000000  0.4707210000000 1.0
C      1  0.4688940000000  0.5577460000000  0.5086380000000 1.0
C      1  0.4948420000000  0.4423700000000  0.4590410000000 1.0
C      1  0.5277760000000  0.4373520000000  0.4845460000000 1.0
C      1  0.5195730000000  0.4398230000000  0.5254510000000 1.0
C      1  0.4796470000000  0.4478290000000  0.5353850000000 1.0
C      1  0.4738120000000  0.4377330000000  0.4950830000000 1.0
C      1  0.5611960000000  0.5057560000000  0.4221100000000 1.0
C      1  0.4469020000000  0.5052360000000  0.4178370000000 1.0
C      1  0.4051700000000  0.5069910000000  0.5253840000000 1.0
C      1  0.4959710000000  0.5054250000000  0.6006580000000 1.0
C      1  0.5904910000000  0.5065700000000  0.5339720000000 1.0
C      1  0.5613210000000  0.4909070000000  0.5762510000000 1.0
C      1  0.4454960000000  0.4934450000000  0.5836260000000 1.0
C      1  0.4063790000000  0.4909670000000  0.4741370000000 1.0
C      1  0.4959020000000  0.4911870000000  0.4009060000000 1.0
C      1  0.5908380000000  0.4918590000000  0.4646960000000 1.0
C      1  0.4875600000000  0.4657130000000  0.5725270000000 1.0
C      1  0.5632850000000  0.4668420000000  0.5327900000000 1.0
C      1  0.5504150000000  0.4649770000000  0.4496670000000 1.0
C      1  0.4692080000000  0.4666900000000  0.4355430000000 1.0
C      1  0.4305880000000  0.4651940000000  0.5106610000000 1.0
C      1  0.4884770000000  0.5321350000000  0.4293370000000 1.0
C      1  0.5624270000000  0.5304940000000  0.4656790000000 1.0
C      1  0.5494960000000  0.5323910000000  0.5490940000000 1.0
C      1  0.4670640000000  0.5320430000000  0.5657780000000 1.0
C      1  0.4291790000000  0.5307030000000  0.4889520000000 1.0
C      1  0.4476910000000  0.4835550000000  0.4932500000000 1.0
C      1  0.4755620000000  0.4854700000000  0.5532880000000 1.0
C      1  0.5391690000000  0.4850710000000  0.5360190000000 1.0
C      1  0.5464700000000  0.4834830000000  0.4734950000000 1.0
C      1  0.4903010000000  0.4859120000000  0.4467380000000 1.0
C      1  0.4467460000000  0.5125400000000  0.5058530000000 1.0
C      1  0.4776200000000  0.5137530000000  0.4510180000000 1.0
C      1  0.5387670000000  0.5112780000000  0.4624350000000 1.0
C      1  0.5458610000000  0.5139380000000  0.5250770000000 1.0
C      1  0.4881110000000  0.5122760000000  0.5574030000000 1.0
C      1  0.5241320000000  0.3803630000000  0.4779920000000 1.0
C      1  0.4826480000000  0.3794260000000  0.4718210000000 1.0
C      1  0.4633590000000  0.3850510000000  0.5086450000000 1.0
C      1  0.4928270000000  0.3833980000000  0.5384660000000 1.0
C      1  0.5301980000000  0.3818380000000  0.5194870000000 1.0
C      1  0.5243430000000  0.6124640000000  0.5278810000000 1.0
C      1  0.4829710000000  0.6142750000000  0.5346270000000 1.0
C      1  0.4639360000000  0.6156750000000  0.4972790000000 1.0
C      1  0.4932740000000  0.6169420000000  0.4673040000000 1.0
C      1  0.5304410000000  0.6178860000000  0.4867340000000 1.0
C      1  0.5816400000000  0.5083500000000  0.5626120000000 1.0
C      1  0.5822140000000  0.4893900000000  0.4360310000000 1.0
C      1  0.4697150000000  0.4902010000000  0.6016060000000 1.0
C      1  0.3966770000000  0.4894330000000  0.5025180000000 1.0
C      1  0.4707360000000  0.5075750000000  0.3997110000000 1.0
C      1  0.4987710000000  0.6110640000000  0.5024330000000 1.0
C      1  0.4990120000000  0.3863970000000  0.5031220000000 1.0
C      1  0.5012560000000  0.4224710000000  0.5015670000000 1.0
C      1  0.4977760000000  0.5749790000000  0.5000280000000 1.0
END
