TITL C-862502-1143-226 1.91664405845624 125000 -284.872797308781 0 0 52 (C1) n - 1
REM
REM in /home/nfs/bkarasulu/CARBON/AIRSS/Generating-Clusters/TERSOFF/Higher-Symm/FIRE-HFTN
REM
REM
REM
REM
REM
REM ./C.cell (b20cbc046b6831c77cfcea5457e17084)
REM AIRSS Version 0.9.1 bugfix July 2018 build 013d7b7c2542+ Fri, 06 Jul 2018 19:26:36 +0100
REM compiler GCC version 9.2.1 20190827 (Red Hat 9.2.1-1)
REM options -cpp -mtune=generic -march=x86-64 -g -O0 -fpre-include=/usr/include/finclude/math-vector-fortran.h
REM seed 1770001429 1238620021 -521814469 -1544148032 -1854281557 1995887763 -1747910135 -1695745268 -99505999 -753886558 -185860080 147258413 -391565879 71113183 -793483736 -2074110405 304435961 -1873412318 -1966613097 -1936931436 944279579 -999939278 1389159063 -1580561899 -1540038807 -1862648390 453757431 207341624 1062935377 1223654517 563180756 -1487433743 -37526620
REM
CELL 1.54180   50.00000   50.00000   50.00000   90.00000   90.00000   90.00000
LATT -1
SFAC C  
C      1  0.4650310000000  0.5336190000000  0.4954410000000 1.0
C      1  0.5040590000000  0.5533900000000  0.4607980000000 1.0
C      1  0.5071880000000  0.5040190000000  0.5680890000000 1.0
C      1  0.5362610000000  0.4421690000000  0.4804560000000 1.0
C      1  0.5379880000000  0.5256960000000  0.4301300000000 1.0
C      1  0.5649570000000  0.4633220000000  0.5175190000000 1.0
C      1  0.4976040000000  0.5164660000000  0.4370430000000 1.0
C      1  0.5397800000000  0.5283890000000  0.5329510000000 1.0
C      1  0.4957690000000  0.4970890000000  0.4827060000000 1.0
C      1  0.4464780000000  0.4670940000000  0.5302280000000 1.0
C      1  0.4415830000000  0.4828170000000  0.4472700000000 1.0
C      1  0.5555130000000  0.5067970000000  0.5448030000000 1.0
C      1  0.4682760000000  0.5623180000000  0.4934500000000 1.0
C      1  0.5303470000000  0.5384360000000  0.4574560000000 1.0
C      1  0.4773480000000  0.5442680000000  0.5723320000000 1.0
C      1  0.4969330000000  0.5653920000000  0.4884890000000 1.0
C      1  0.4814620000000  0.4363950000000  0.4859260000000 1.0
C      1  0.5361220000000  0.4890580000000  0.4534570000000 1.0
C      1  0.4502050000000  0.5187950000000  0.4756350000000 1.0
C      1  0.5414280000000  0.4940550000000  0.4247890000000 1.0
C      1  0.5181820000000  0.4917770000000  0.5177850000000 1.0
C      1  0.5001740000000  0.4805520000000  0.6132470000000 1.0
C      1  0.5100410000000  0.5016890000000  0.4585100000000 1.0
C      1  0.5246160000000  0.5252280000000  0.5061230000000 1.0
C      1  0.5516970000000  0.4781910000000  0.5391370000000 1.0
C      1  0.5654090000000  0.5111040000000  0.4823000000000 1.0
C      1  0.4552560000000  0.4490660000000  0.4783830000000 1.0
C      1  0.5571120000000  0.4854960000000  0.4727990000000 1.0
C      1  0.4492530000000  0.4828560000000  0.4783090000000 1.0
C      1  0.5036220000000  0.5335700000000  0.5668270000000 1.0
C      1  0.5013700000000  0.4713140000000  0.4974240000000 1.0
C      1  0.4326790000000  0.4910450000000  0.5414180000000 1.0
C      1  0.4534560000000  0.5345310000000  0.5597160000000 1.0
C      1  0.5555820000000  0.4622080000000  0.4897330000000 1.0
C      1  0.4774960000000  0.5019730000000  0.5263970000000 1.0
C      1  0.4979420000000  0.4442040000000  0.5165720000000 1.0
C      1  0.4667290000000  0.4779690000000  0.5066040000000 1.0
C      1  0.4537030000000  0.5298810000000  0.4480190000000 1.0
C      1  0.5039830000000  0.4566780000000  0.4398100000000 1.0
C      1  0.5003430000000  0.4883880000000  0.5438000000000 1.0
C      1  0.5214520000000  0.4704330000000  0.4187950000000 1.0
C      1  0.5216330000000  0.5481420000000  0.5485320000000 1.0
C      1  0.4633530000000  0.4529390000000  0.5494390000000 1.0
C      1  0.4815820000000  0.5407190000000  0.4420450000000 1.0
C      1  0.5424040000000  0.5285630000000  0.4827090000000 1.0
C      1  0.4916330000000  0.4573980000000  0.5438530000000 1.0
C      1  0.4892830000000  0.5187080000000  0.5035950000000 1.0
C      1  0.4528990000000  0.5123930000000  0.5410960000000 1.0
C      1  0.5169730000000  0.4910250000000  0.5921310000000 1.0
C      1  0.4435350000000  0.5073880000000  0.4318750000000 1.0
C      1  0.5085940000000  0.4496310000000  0.4699560000000 1.0
C      1  0.5136830000000  0.5553550000000  0.5140890000000 1.0
END
