TITL C-862133-5440-1491 -0.100166267111679 125000 -1032.63899681339 0 0 186 (C1) n - 1
REM
REM in /home/nfs/bkarasulu/CARBON/AIRSS/Generating-Clusters/TERSOFF/Higher-Symm/FIRE-HFTN
REM
REM
REM
REM
REM
REM ./C.cell (b20cbc046b6831c77cfcea5457e17084)
REM AIRSS Version 0.9.1 bugfix July 2018 build 013d7b7c2542+ Fri, 06 Jul 2018 19:26:36 +0100
REM compiler GCC version 9.2.1 20190827 (Red Hat 9.2.1-1)
REM options -cpp -mtune=generic -march=x86-64 -g -O0 -fpre-include=/usr/include/finclude/math-vector-fortran.h
REM seed -961296146 -394206817 -1835858676 1332692088 -1156342001 -807335932 1363154323 -1445504302 -1498518656 -176695690 -1153638198 393366283 573412959 1917287326 604667038 1069285833 -1299054251 -2053896675 -963519783 1230665452 -1320801870 -764841569 1462565467 36483970 482513933 -1577924210 -1013108220 -1278292090 -825554211 -322315564 -1725420948 1678644761 -838803233
REM
CELL 1.54180   50.00000   50.00000   50.00000   90.00000   90.00000   90.00000
LATT -1
SFAC C  
C      1  0.6072690000000  0.4568730000000  0.4631470000000 1.0
C      1  0.4882190000000  0.6217420000000  0.4619700000000 1.0
C      1  0.4074620000000  0.4292040000000  0.4634690000000 1.0
C      1  0.6072780000000  0.5432530000000  0.4626010000000 1.0
C      1  0.4861590000000  0.3817890000000  0.4615400000000 1.0
C      1  0.4009260000000  0.5709580000000  0.4617380000000 1.0
C      1  0.5134520000000  0.4175720000000  0.4331910000000 1.0
C      1  0.5652170000000  0.5506750000000  0.4329020000000 1.0
C      1  0.4210300000000  0.5301370000000  0.4338360000000 1.0
C      1  0.5124960000000  0.5833950000000  0.4338470000000 1.0
C      1  0.5656580000000  0.4500290000000  0.4330710000000 1.0
C      1  0.4231630000000  0.4678600000000  0.4333370000000 1.0
C      1  0.5817470000000  0.4090280000000  0.5579430000000 1.0
C      1  0.5377040000000  0.6196830000000  0.5577590000000 1.0
C      1  0.3779370000000  0.4758880000000  0.5574020000000 1.0
C      1  0.5826450000000  0.5928390000000  0.5568780000000 1.0
C      1  0.5357550000000  0.3826430000000  0.5583030000000 1.0
C      1  0.3776370000000  0.5283050000000  0.5579840000000 1.0
C      1  0.5489500000000  0.4822130000000  0.3918710000000 1.0
C      1  0.4902800000000  0.5524150000000  0.3932310000000 1.0
C      1  0.4596890000000  0.4665950000000  0.3924780000000 1.0
C      1  0.5483540000000  0.5189960000000  0.3917630000000 1.0
C      1  0.4915230000000  0.4481380000000  0.3925090000000 1.0
C      1  0.4586650000000  0.5335700000000  0.3932590000000 1.0
C      1  0.4774810000000  0.5084680000000  0.5665040000000 1.0
C      1  0.5050530000000  0.4605170000000  0.5634310000000 1.0
C      1  0.5307760000000  0.5076460000000  0.5644960000000 1.0
C      1  0.4779200000000  0.4773630000000  0.5645210000000 1.0
C      1  0.5042470000000  0.5237970000000  0.5664790000000 1.0
C      1  0.5314980000000  0.4757170000000  0.5635090000000 1.0
C      1  0.4953670000000  0.6084690000000  0.4361970000000 1.0
C      1  0.4139720000000  0.4392370000000  0.4366680000000 1.0
C      1  0.5948230000000  0.4572000000000  0.4365190000000 1.0
C      1  0.4947140000000  0.3938370000000  0.4356680000000 1.0
C      1  0.4083800000000  0.5577520000000  0.4360130000000 1.0
C      1  0.5943230000000  0.5430810000000  0.4361480000000 1.0
C      1  0.5239100000000  0.4000450000000  0.4907380000000 1.0
C      1  0.5731250000000  0.5652940000000  0.4928790000000 1.0
C      1  0.4005550000000  0.5291070000000  0.4910720000000 1.0
C      1  0.5245620000000  0.6003870000000  0.4910190000000 1.0
C      1  0.5728250000000  0.4351570000000  0.4932160000000 1.0
C      1  0.4068560000000  0.4697210000000  0.4936210000000 1.0
C      1  0.5787980000000  0.5159140000000  0.5264630000000 1.0
C      1  0.4478710000000  0.5592370000000  0.5277590000000 1.0
C      1  0.4734750000000  0.4252680000000  0.5264670000000 1.0
C      1  0.5784650000000  0.4844530000000  0.5264370000000 1.0
C      1  0.4461880000000  0.4408550000000  0.5271360000000 1.0
C      1  0.4751420000000  0.5749060000000  0.5277170000000 1.0
C      1  0.5647370000000  0.5782470000000  0.4427540000000 1.0
C      1  0.3983440000000  0.5133860000000  0.4425230000000 1.0
C      1  0.5389970000000  0.4058190000000  0.4419560000000 1.0
C      1  0.5649410000000  0.4223150000000  0.4431110000000 1.0
C      1  0.3997110000000  0.4825720000000  0.4434620000000 1.0
C      1  0.5385690000000  0.5946730000000  0.4423210000000 1.0
C      1  0.4848360000000  0.4219960000000  0.5595780000000 1.0
C      1  0.5759900000000  0.5292220000000  0.5591880000000 1.0
C      1  0.4386060000000  0.5523230000000  0.5593930000000 1.0
C      1  0.4859390000000  0.5794730000000  0.5593050000000 1.0
C      1  0.5749060000000  0.4730190000000  0.5598180000000 1.0
C      1  0.4361570000000  0.4492860000000  0.5599550000000 1.0
C      1  0.5549300000000  0.5641920000000  0.5193180000000 1.0
C      1  0.4160880000000  0.5179070000000  0.5186490000000 1.0
C      1  0.5256910000000  0.4195420000000  0.5181480000000 1.0
C      1  0.5543170000000  0.4364950000000  0.5193070000000 1.0
C      1  0.4167790000000  0.4850940000000  0.5199110000000 1.0
C      1  0.5269050000000  0.5813520000000  0.5184050000000 1.0
C      1  0.4519650000000  0.3840200000000  0.5428250000000 1.0
C      1  0.6253570000000  0.5165010000000  0.5444540000000 1.0
C      1  0.4239980000000  0.5991890000000  0.5425890000000 1.0
C      1  0.4523800000000  0.6154330000000  0.5427390000000 1.0
C      1  0.6248120000000  0.4840070000000  0.5448340000000 1.0
C      1  0.4236180000000  0.4001730000000  0.5445150000000 1.0
C      1  0.4682130000000  0.6063000000000  0.5181710000000 1.0
C      1  0.4208280000000  0.4168660000000  0.5192600000000 1.0
C      1  0.6117220000000  0.4748140000000  0.5189310000000 1.0
C      1  0.4659300000000  0.3939830000000  0.5175510000000 1.0
C      1  0.4242180000000  0.5808060000000  0.5180330000000 1.0
C      1  0.6120140000000  0.5252730000000  0.5185180000000 1.0
C      1  0.5914490000000  0.4551870000000  0.4877020000000 1.0
C      1  0.5039510000000  0.6193220000000  0.4867810000000 1.0
C      1  0.4152730000000  0.4438680000000  0.4875760000000 1.0
C      1  0.5921350000000  0.5455770000000  0.4876000000000 1.0
C      1  0.5024550000000  0.3821290000000  0.4858860000000 1.0
C      1  0.3945140000000  0.5563740000000  0.4864380000000 1.0
C      1  0.5531160000000  0.4705840000000  0.4521090000000 1.0
C      1  0.4983670000000  0.5632260000000  0.4527530000000 1.0
C      1  0.4473530000000  0.4672900000000  0.4524750000000 1.0
C      1  0.5525440000000  0.5306240000000  0.4522520000000 1.0
C      1  0.5005080000000  0.4378810000000  0.4523790000000 1.0
C      1  0.4453200000000  0.5321050000000  0.4529420000000 1.0
C      1  0.4997360000000  0.4709180000000  0.4123910000000 1.0
C      1  0.5242760000000  0.5150560000000  0.4117400000000 1.0
C      1  0.4740300000000  0.5148840000000  0.4134280000000 1.0
C      1  0.4990200000000  0.5298550000000  0.4132100000000 1.0
C      1  0.5248590000000  0.4860260000000  0.4116570000000 1.0
C      1  0.4746160000000  0.4856310000000  0.4127570000000 1.0
C      1  0.5308850000000  0.4826690000000  0.5981630000000 1.0
C      1  0.5091550000000  0.5436890000000  0.5905100000000 1.0
C      1  0.4666210000000  0.4804470000000  0.5958220000000 1.0
C      1  0.5340170000000  0.5190280000000  0.5956990000000 1.0
C      1  0.4995320000000  0.4646520000000  0.5981140000000 1.0
C      1  0.4578860000000  0.5142840000000  0.5905930000000 1.0
C      1  0.5145860000000  0.4189370000000  0.5525560000000 1.0
C      1  0.5625120000000  0.5558330000000  0.5527040000000 1.0
C      1  0.4196090000000  0.5294330000000  0.5526140000000 1.0
C      1  0.5153010000000  0.5841780000000  0.5524030000000 1.0
C      1  0.5617190000000  0.4459620000000  0.5532710000000 1.0
C      1  0.4200570000000  0.4744520000000  0.5533430000000 1.0
C      1  0.4070960000000  0.4018020000000  0.4712160000000 1.0
C      1  0.6307580000000  0.4711860000000  0.4704440000000 1.0
C      1  0.4613850000000  0.6246110000000  0.4702200000000 1.0
C      1  0.4123650000000  0.5954760000000  0.4697130000000 1.0
C      1  0.6302470000000  0.5279480000000  0.4697150000000 1.0
C      1  0.4589630000000  0.3788890000000  0.4684080000000 1.0
C      1  0.4338010000000  0.5822680000000  0.5670270000000 1.0
C      1  0.4606370000000  0.4026930000000  0.5662640000000 1.0
C      1  0.6042210000000  0.5170720000000  0.5672530000000 1.0
C      1  0.4323450000000  0.4186640000000  0.5678800000000 1.0
C      1  0.4625280000000  0.5987300000000  0.5671640000000 1.0
C      1  0.6035520000000  0.4844940000000  0.5676080000000 1.0
C      1  0.3855610000000  0.4750440000000  0.5294110000000 1.0
C      1  0.5787160000000  0.4155230000000  0.5298580000000 1.0
C      1  0.5337420000000  0.6142070000000  0.5295780000000 1.0
C      1  0.3843660000000  0.5288870000000  0.5298020000000 1.0
C      1  0.5794340000000  0.5859740000000  0.5288670000000 1.0
C      1  0.5308510000000  0.3873690000000  0.5301510000000 1.0
C      1  0.5694840000000  0.5150110000000  0.4698180000000 1.0
C      1  0.4497640000000  0.5566000000000  0.4685040000000 1.0
C      1  0.4781170000000  0.4296700000000  0.4689140000000 1.0
C      1  0.5700190000000  0.4863820000000  0.4695100000000 1.0
C      1  0.4527180000000  0.4434280000000  0.4685830000000 1.0
C      1  0.4748890000000  0.5714720000000  0.4682770000000 1.0
C      1  0.4282020000000  0.5971100000000  0.4934110000000 1.0
C      1  0.4488220000000  0.3880070000000  0.4935680000000 1.0
C      1  0.6276520000000  0.5140050000000  0.4949830000000 1.0
C      1  0.4226590000000  0.3983200000000  0.4954390000000 1.0
C      1  0.4520960000000  0.6112050000000  0.4936160000000 1.0
C      1  0.6278040000000  0.4856370000000  0.4953660000000 1.0
C      1  0.5348280000000  0.4084490000000  0.5733360000000 1.0
C      1  0.5614710000000  0.5790610000000  0.5731030000000 1.0
C      1  0.4005680000000  0.5169870000000  0.5735230000000 1.0
C      1  0.5358170000000  0.5941460000000  0.5732430000000 1.0
C      1  0.5605700000000  0.4230300000000  0.5737950000000 1.0
C      1  0.4005200000000  0.4872270000000  0.5736210000000 1.0
C      1  0.4325230000000  0.5163920000000  0.4075040000000 1.0
C      1  0.5194290000000  0.4342710000000  0.4069190000000 1.0
C      1  0.5478290000000  0.5493940000000  0.4067010000000 1.0
C      1  0.4331790000000  0.4822880000000  0.4071560000000 1.0
C      1  0.5184570000000  0.5665880000000  0.4074070000000 1.0
C      1  0.5483790000000  0.4516380000000  0.4067080000000 1.0
C      1  0.5512310000000  0.5295930000000  0.5147520000000 1.0
C      1  0.4484080000000  0.5297410000000  0.5161100000000 1.0
C      1  0.4990610000000  0.4405860000000  0.5122800000000 1.0
C      1  0.5512140000000  0.4704230000000  0.5126670000000 1.0
C      1  0.4483260000000  0.4710370000000  0.5150770000000 1.0
C      1  0.5003680000000  0.5594880000000  0.5160040000000 1.0
C      1  0.5445150000000  0.3990500000000  0.4714740000000 1.0
C      1  0.5701070000000  0.5855580000000  0.4734590000000 1.0
C      1  0.3895460000000  0.5118280000000  0.4718060000000 1.0
C      1  0.5447700000000  0.6013860000000  0.4715310000000 1.0
C      1  0.5699000000000  0.4149230000000  0.4737750000000 1.0
C      1  0.3906260000000  0.4820850000000  0.4741800000000 1.0
C      1  0.5284650000000  0.5156530000000  0.5331540000000 1.0
C      1  0.4719360000000  0.5154710000000  0.5347560000000 1.0
C      1  0.5007760000000  0.4660340000000  0.5312810000000 1.0
C      1  0.5286320000000  0.4820050000000  0.5314320000000 1.0
C      1  0.4720190000000  0.4834300000000  0.5332400000000 1.0
C      1  0.5008850000000  0.5320410000000  0.5347200000000 1.0
C      1  0.4718790000000  0.4846920000000  0.4913390000000 1.0
C      1  0.5272660000000  0.4845540000000  0.4896190000000 1.0
C      1  0.4997360000000  0.5319430000000  0.4927990000000 1.0
C      1  0.4724040000000  0.5163540000000  0.4928300000000 1.0
C      1  0.5272850000000  0.5162350000000  0.4912540000000 1.0
C      1  0.4991690000000  0.4685720000000  0.4894770000000 1.0
C      1  0.4521940000000  0.4525640000000  0.5864540000000 1.0
C      1  0.5643540000000  0.4870270000000  0.5867890000000 1.0
C      1  0.4835740000000  0.5578440000000  0.5797410000000 1.0
C      1  0.4585280000000  0.5434910000000  0.5797930000000 1.0
C      1  0.5654030000000  0.5173100000000  0.5860590000000 1.0
C      1  0.4786880000000  0.4379170000000  0.5867360000000 1.0
C      1  0.4696860000000  0.5172850000000  0.4454670000000 1.0
C      1  0.5003970000000  0.4661710000000  0.4443630000000 1.0
C      1  0.5277470000000  0.5176610000000  0.4440140000000 1.0
C      1  0.4707420000000  0.4830900000000  0.4449430000000 1.0
C      1  0.4990620000000  0.5347600000000  0.4451590000000 1.0
C      1  0.5282980000000  0.4834320000000  0.4437830000000 1.0
END
