TITL C-862506-1665-1131 0.136316948714304 125000 -456.43865426733 0 0 78 (D2) n - 1
REM
REM in /home/nfs/bkarasulu/CARBON/AIRSS/Generating-Clusters/TERSOFF/Higher-Symm/FIRE-HFTN
REM
REM
REM
REM
REM
REM ./C.cell (b20cbc046b6831c77cfcea5457e17084)
REM AIRSS Version 0.9.1 bugfix July 2018 build 013d7b7c2542+ Fri, 06 Jul 2018 19:26:36 +0100
REM compiler GCC version 9.2.1 20190827 (Red Hat 9.2.1-1)
REM options -cpp -mtune=generic -march=x86-64 -g -O0 -fpre-include=/usr/include/finclude/math-vector-fortran.h
REM seed -1537004384 -2066979974 1735511815 -1818977808 2132619460 817171080 -710439226 987386591 -10262513 1460046551 -1311031043 -1697128775 -886089677 -838529559 693384294 -2139139664 670779833 -1417905898 1794680983 516697006 -1811600600 1897024947 1649825935 1196779344 432777141 -1799234158 -898187593 6097626 -1676644092 -1735165281 -631552021 -1868979879 972863089
REM
CELL 1.54180   50.00000   50.00000   50.00000   90.00000   90.00000   90.00000
LATT -1
SFAC C  
C      1  0.4312440000000  0.5416550000000  0.5101000000000 1.0
C      1  0.4312440000000  0.4583440000000  0.4898990000000 1.0
C      1  0.5692880000000  0.4583450000000  0.5101010000000 1.0
C      1  0.5692880000000  0.5416560000000  0.4899000000000 1.0
C      1  0.4733060000000  0.5470130000000  0.4734190000000 1.0
C      1  0.4733060000000  0.4529870000000  0.5265800000000 1.0
C      1  0.5272260000000  0.4529870000000  0.4734190000000 1.0
C      1  0.5272250000000  0.5470130000000  0.5265810000000 1.0
C      1  0.4996360000000  0.4860270000000  0.4725640000000 1.0
C      1  0.4996350000000  0.5139730000000  0.5274360000000 1.0
C      1  0.5008970000000  0.5139730000000  0.4725640000000 1.0
C      1  0.5008960000000  0.4860270000000  0.5274360000000 1.0
C      1  0.5337490000000  0.4729750000000  0.4932210000000 1.0
C      1  0.5337490000000  0.5270250000000  0.5067790000000 1.0
C      1  0.4667830000000  0.5270250000000  0.4932210000000 1.0
C      1  0.4667830000000  0.4729750000000  0.5067790000000 1.0
C      1  0.5362780000000  0.4891910000000  0.4413100000000 1.0
C      1  0.5362770000000  0.5108090000000  0.5586900000000 1.0
C      1  0.4642550000000  0.5108100000000  0.4413100000000 1.0
C      1  0.4642550000000  0.4891900000000  0.5586900000000 1.0
C      1  0.5234430000000  0.5286210000000  0.4800800000000 1.0
C      1  0.5234430000000  0.4713790000000  0.5199200000000 1.0
C      1  0.4770890000000  0.4713800000000  0.4800790000000 1.0
C      1  0.4770890000000  0.5286200000000  0.5199200000000 1.0
C      1  0.5603810000000  0.4871600000000  0.4903000000000 1.0
C      1  0.5603810000000  0.5128400000000  0.5097010000000 1.0
C      1  0.4401510000000  0.5128400000000  0.4902990000000 1.0
C      1  0.4401510000000  0.4871600000000  0.5097000000000 1.0
C      1  0.4678640000000  0.4220450000000  0.4632880000000 1.0
C      1  0.4678630000000  0.5779550000000  0.5367110000000 1.0
C      1  0.5326690000000  0.5779550000000  0.4632890000000 1.0
C      1  0.5326680000000  0.4220450000000  0.5367110000000 1.0
C      1  0.4699990000000  0.4430390000000  0.4409250000000 1.0
C      1  0.4699980000000  0.5569610000000  0.5590750000000 1.0
C      1  0.5305340000000  0.5569610000000  0.4409260000000 1.0
C      1  0.5305330000000  0.4430390000000  0.5590750000000 1.0
C      1  0.4406910000000  0.4981100000000  0.5393980000000 1.0
C      1  0.4406920000000  0.5018900000000  0.4606010000000 1.0
C      1  0.5598400000000  0.5018900000000  0.5393990000000 1.0
C      1  0.5598410000000  0.4981100000000  0.4606020000000 1.0
C      1  0.4869850000000  0.4921810000000  0.4284310000000 1.0
C      1  0.4869840000000  0.5078190000000  0.5715680000000 1.0
C      1  0.5135480000000  0.5078200000000  0.4284320000000 1.0
C      1  0.5135470000000  0.4921800000000  0.5715680000000 1.0
C      1  0.5495530000000  0.5687630000000  0.4911000000000 1.0
C      1  0.5495530000000  0.4312370000000  0.5089000000000 1.0
C      1  0.4509800000000  0.4312370000000  0.4910990000000 1.0
C      1  0.4509790000000  0.5687630000000  0.5089000000000 1.0
C      1  0.4933560000000  0.4629480000000  0.4342710000000 1.0
C      1  0.4933550000000  0.5370520000000  0.5657290000000 1.0
C      1  0.5071770000000  0.5370530000000  0.4342710000000 1.0
C      1  0.5071760000000  0.4629470000000  0.5657290000000 1.0
C      1  0.4597330000000  0.5369330000000  0.5405710000000 1.0
C      1  0.4597340000000  0.4630670000000  0.4594280000000 1.0
C      1  0.5407980000000  0.4630670000000  0.5405710000000 1.0
C      1  0.5407990000000  0.5369340000000  0.4594290000000 1.0
C      1  0.4854050000000  0.4036130000000  0.5216820000000 1.0
C      1  0.4854040000000  0.5963870000000  0.4783180000000 1.0
C      1  0.5151270000000  0.5963870000000  0.5216830000000 1.0
C      1  0.5151280000000  0.4036130000000  0.4783170000000 1.0
C      1  0.5690600000000  0.5278270000000  0.4603940000000 1.0
C      1  0.5690600000000  0.4721730000000  0.5396070000000 1.0
C      1  0.4314720000000  0.4721730000000  0.4603930000000 1.0
C      1  0.4314720000000  0.5278260000000  0.5396060000000 1.0
C      1  0.4785190000000  0.4622080000000  0.5538150000000 1.0
C      1  0.4785190000000  0.5377920000000  0.4461850000000 1.0
C      1  0.5220130000000  0.5377910000000  0.5538160000000 1.0
C      1  0.5220140000000  0.4622090000000  0.4461850000000 1.0
C      1  0.4888730000000  0.4012370000000  0.4629140000000 1.0
C      1  0.4888720000000  0.5987630000000  0.5370860000000 1.0
C      1  0.5116590000000  0.5987630000000  0.4629150000000 1.0
C      1  0.5116590000000  0.4012370000000  0.5370850000000 1.0
C      1  0.5365580000000  0.5741010000000  0.5193100000000 1.0
C      1  0.5365590000000  0.4258990000000  0.4806900000000 1.0
C      1  0.4639730000000  0.4258980000000  0.5193090000000 1.0
C      1  0.4639730000000  0.5741010000000  0.4806900000000 1.0
C      1  0.5002660000000  0.4173220000000  0.5000000000000 1.0
C      1  0.5002660000000  0.5826780000000  0.5000000000000 1.0
END
