TITL C-862129-6180-1444 0.000181994731370299 125000 -130.060381645478 0 0 26 (C1) n - 1
REM
REM in /home/nfs/bkarasulu/CARBON/AIRSS/Generating-Clusters/TERSOFF/Higher-Symm/FIRE-HFTN
REM
REM
REM
REM
REM
REM ./C.cell (b20cbc046b6831c77cfcea5457e17084)
REM AIRSS Version 0.9.1 bugfix July 2018 build 013d7b7c2542+ Fri, 06 Jul 2018 19:26:36 +0100
REM compiler GCC version 9.2.1 20190827 (Red Hat 9.2.1-1)
REM options -cpp -mtune=generic -march=x86-64 -g -O0 -fpre-include=/usr/include/finclude/math-vector-fortran.h
REM seed 1786325586 889177698 -1656072728 -1575518870 588235964 525544336 -1352974466 -1324002416 1824023676 -1921275033 -1838493014 2039013560 665089552 1558178724 456686897 851939297 -1886617000 -978237767 1815602550 -1071463774 643913870 804845398 1550642403 2001783883 -1604281770 -218541895 284246183 -2054000957 35323943 -343311039 1992997767 1152055147 -748410868
REM
CELL 1.54180   50.00000   50.00000   50.00000   90.00000   90.00000   90.00000
LATT -1
SFAC C  
C      1  0.5578310000000  0.5430660000000  0.5156100000000 1.0
C      1  0.5668580000000  0.4970840000000  0.4767770000000 1.0
C      1  0.5091660000000  0.4447610000000  0.4649250000000 1.0
C      1  0.4952460000000  0.4754060000000  0.5505300000000 1.0
C      1  0.4396540000000  0.4921190000000  0.4802970000000 1.0
C      1  0.4610470000000  0.5411550000000  0.5287210000000 1.0
C      1  0.4992570000000  0.4611050000000  0.4433420000000 1.0
C      1  0.5261070000000  0.5004710000000  0.5193800000000 1.0
C      1  0.4611840000000  0.5378300000000  0.4985080000000 1.0
C      1  0.5087430000000  0.5008290000000  0.5433250000000 1.0
C      1  0.4710670000000  0.4743530000000  0.5339520000000 1.0
C      1  0.5177330000000  0.4574940000000  0.4894060000000 1.0
C      1  0.5249330000000  0.5059530000000  0.4504250000000 1.0
C      1  0.4702970000000  0.5009470000000  0.5210470000000 1.0
C      1  0.5160810000000  0.4866380000000  0.4929470000000 1.0
C      1  0.4984340000000  0.4900520000000  0.4463920000000 1.0
C      1  0.4632980000000  0.5053990000000  0.4912160000000 1.0
C      1  0.4913180000000  0.5017390000000  0.4752390000000 1.0
C      1  0.5061390000000  0.5407000000000  0.5133550000000 1.0
C      1  0.5388550000000  0.5065590000000  0.4780400000000 1.0
C      1  0.4598200000000  0.4501890000000  0.5226670000000 1.0
C      1  0.4886980000000  0.5255680000000  0.5361550000000 1.0
C      1  0.5084940000000  0.4523190000000  0.5618990000000 1.0
C      1  0.4968570000000  0.5308640000000  0.4692450000000 1.0
C      1  0.4886490000000  0.5489600000000  0.4901930000000 1.0
C      1  0.5342390000000  0.5284390000000  0.5064070000000 1.0
END
