TITL C-862129-6180-123 0.0164793696760579 125000 -495.325944906702 0 0 91 (C2) n - 1
REM
REM in /home/nfs/bkarasulu/CARBON/AIRSS/Generating-Clusters/TERSOFF/Higher-Symm/FIRE-HFTN
REM
REM
REM
REM
REM
REM ./C.cell (b20cbc046b6831c77cfcea5457e17084)
REM AIRSS Version 0.9.1 bugfix July 2018 build 013d7b7c2542+ Fri, 06 Jul 2018 19:26:36 +0100
REM compiler GCC version 9.2.1 20190827 (Red Hat 9.2.1-1)
REM options -cpp -mtune=generic -march=x86-64 -g -O0 -fpre-include=/usr/include/finclude/math-vector-fortran.h
REM seed -1835570133 1001320699 -1065533802 253891584 -653995807 -544332040 -1335114555 -494058764 -479994511 -1408169823 -1506966910 1507942946 145437601 -124208411 1556218070 1868706165 -1547810298 -1986540289 -1926498711 1496206034 865193249 2043597369 1332881354 -2134693365 -186410575 131452222 -337841827 17841196 373069159 -1467214551 955103820 -40771552 1229814138
REM
CELL 1.54180   50.00000   50.00000   50.00000   90.00000   90.00000   90.00000
LATT -1
SFAC C  
C      1  0.4614450000000  0.5469200000000  0.4389490000000 1.0
C      1  0.4614440000000  0.4541350000000  0.5608340000000 1.0
C      1  0.4613080000000  0.4561870000000  0.4393060000000 1.0
C      1  0.4613070000000  0.5448670000000  0.5604780000000 1.0
C      1  0.4507460000000  0.5631160000000  0.5351140000000 1.0
C      1  0.4507460000000  0.4379390000000  0.4646690000000 1.0
C      1  0.4509140000000  0.4362900000000  0.5345550000000 1.0
C      1  0.4509150000000  0.5647640000000  0.4652280000000 1.0
C      1  0.4723460000000  0.5758960000000  0.4845020000000 1.0
C      1  0.4723460000000  0.4251590000000  0.5152820000000 1.0
C      1  0.4720510000000  0.4254690000000  0.4837220000000 1.0
C      1  0.4720500000000  0.5755850000000  0.5160610000000 1.0
C      1  0.5489620000000  0.5727370000000  0.5295170000000 1.0
C      1  0.5489620000000  0.4283180000000  0.4702680000000 1.0
C      1  0.5493450000000  0.4274950000000  0.5296380000000 1.0
C      1  0.5493450000000  0.5735600000000  0.4701470000000 1.0
C      1  0.4830040000000  0.5182430000000  0.4354460000000 1.0
C      1  0.4830030000000  0.4828120000000  0.5643380000000 1.0
C      1  0.4824280000000  0.4839890000000  0.4385520000000 1.0
C      1  0.4824270000000  0.5170650000000  0.5612320000000 1.0
C      1  0.4407390000000  0.4857370000000  0.4351290000000 1.0
C      1  0.4407380000000  0.5153170000000  0.5646540000000 1.0
C      1  0.4417900000000  0.5185860000000  0.4280210000000 1.0
C      1  0.4417890000000  0.4824690000000  0.5717620000000 1.0
C      1  0.4949470000000  0.5565540000000  0.5548770000000 1.0
C      1  0.4949480000000  0.4445010000000  0.4449070000000 1.0
C      1  0.4949710000000  0.4437720000000  0.5548180000000 1.0
C      1  0.4949720000000  0.5572830000000  0.4449660000000 1.0
C      1  0.5129080000000  0.5307580000000  0.5518470000000 1.0
C      1  0.5129090000000  0.4702970000000  0.4479370000000 1.0
C      1  0.5131090000000  0.4695000000000  0.5539020000000 1.0
C      1  0.5131100000000  0.5315540000000  0.4458820000000 1.0
C      1  0.5781280000000  0.5312600000000  0.4702590000000 1.0
C      1  0.5781280000000  0.4697950000000  0.5295260000000 1.0
C      1  0.5776390000000  0.4707350000000  0.4712270000000 1.0
C      1  0.5776390000000  0.5303200000000  0.5285580000000 1.0
C      1  0.5233980000000  0.4172080000000  0.5208210000000 1.0
C      1  0.5233980000000  0.5838470000000  0.4789630000000 1.0
C      1  0.5230460000000  0.5833290000000  0.5209570000000 1.0
C      1  0.5230460000000  0.4177260000000  0.4788280000000 1.0
C      1  0.5170940000000  0.5270710000000  0.5217490000000 1.0
C      1  0.5170940000000  0.4739830000000  0.4780350000000 1.0
C      1  0.5178420000000  0.4747700000000  0.5239230000000 1.0
C      1  0.5178420000000  0.5262850000000  0.4758610000000 1.0
C      1  0.4377740000000  0.5132730000000  0.5225960000000 1.0
C      1  0.4377740000000  0.4877820000000  0.4771870000000 1.0
C      1  0.4314900000000  0.4850180000000  0.5311890000000 1.0
C      1  0.4314910000000  0.5160370000000  0.4685930000000 1.0
C      1  0.4679220000000  0.5176440000000  0.5294120000000 1.0
C      1  0.4679220000000  0.4834110000000  0.4703720000000 1.0
C      1  0.4673780000000  0.4858630000000  0.5341970000000 1.0
C      1  0.4673780000000  0.5151910000000  0.4655860000000 1.0
C      1  0.4873490000000  0.5281670000000  0.4832250000000 1.0
C      1  0.4873490000000  0.4728880000000  0.5165590000000 1.0
C      1  0.4880670000000  0.4729700000000  0.4878330000000 1.0
C      1  0.4880670000000  0.5280850000000  0.5119510000000 1.0
C      1  0.4191810000000  0.4675390000000  0.4869980000000 1.0
C      1  0.4191800000000  0.5335150000000  0.5127850000000 1.0
C      1  0.4169050000000  0.5356760000000  0.4841190000000 1.0
C      1  0.4169050000000  0.4653780000000  0.5156640000000 1.0
C      1  0.5648650000000  0.4479560000000  0.4852580000000 1.0
C      1  0.5648640000000  0.5530990000000  0.5145270000000 1.0
C      1  0.5653320000000  0.5537100000000  0.4846960000000 1.0
C      1  0.5653320000000  0.4473440000000  0.5150890000000 1.0
C      1  0.4975510000000  0.4261510000000  0.5310770000000 1.0
C      1  0.4975510000000  0.5749040000000  0.4687070000000 1.0
C      1  0.4972050000000  0.5750220000000  0.5318140000000 1.0
C      1  0.4972050000000  0.4260330000000  0.4679700000000 1.0
C      1  0.4990110000000  0.5168330000000  0.4032670000000 1.0
C      1  0.4990090000000  0.4842210000000  0.5965170000000 1.0
C      1  0.5007890000000  0.4857260000000  0.4108100000000 1.0
C      1  0.5007880000000  0.5153280000000  0.5889730000000 1.0
C      1  0.5999760000000  0.4839870000000  0.5161070000000 1.0
C      1  0.5999760000000  0.5170680000000  0.4836790000000 1.0
C      1  0.5994700000000  0.5160920000000  0.5150330000000 1.0
C      1  0.5994710000000  0.4849630000000  0.4847530000000 1.0
C      1  0.4240160000000  0.5583800000000  0.5260840000000 1.0
C      1  0.4240170000000  0.4426740000000  0.4736980000000 1.0
C      1  0.4237490000000  0.4394870000000  0.5259290000000 1.0
C      1  0.4237490000000  0.5615670000000  0.4738540000000 1.0
C      1  0.5629270000000  0.4857030000000  0.5487740000000 1.0
C      1  0.5629270000000  0.5153520000000  0.4510110000000 1.0
C      1  0.5628110000000  0.5147620000000  0.5483480000000 1.0
C      1  0.5628120000000  0.4862930000000  0.4514370000000 1.0
C      1  0.5304490000000  0.4840090000000  0.4247820000000 1.0
C      1  0.5304480000000  0.5170460000000  0.5750020000000 1.0
C      1  0.5270970000000  0.5165220000000  0.4218560000000 1.0
C      1  0.5270950000000  0.4845330000000  0.5779280000000 1.0
C      1  0.5263990000000  0.4540750000000  0.5009270000000 1.0
C      1  0.5263990000000  0.5469800000000  0.4988570000000 1.0
C      1  0.5265680000000  0.5005270000000  0.4998920000000 1.0
END
