TITL C-862506-1665-675 0.000742122935659385 125000 -468.853421353413 0 0 83 (C1) n - 1
REM
REM in /home/nfs/bkarasulu/CARBON/AIRSS/Generating-Clusters/TERSOFF/Higher-Symm/FIRE-HFTN
REM
REM
REM
REM
REM
REM ./C.cell (b20cbc046b6831c77cfcea5457e17084)
REM AIRSS Version 0.9.1 bugfix July 2018 build 013d7b7c2542+ Fri, 06 Jul 2018 19:26:36 +0100
REM compiler GCC version 9.2.1 20190827 (Red Hat 9.2.1-1)
REM options -cpp -mtune=generic -march=x86-64 -g -O0 -fpre-include=/usr/include/finclude/math-vector-fortran.h
REM seed -1669259815 -1832187637 1591059962 1164313601 1847195538 -361423767 756146407 -1118143517 703044041 842427734 400357249 266116184 -444864116 1312248867 663659331 1816298214 -884780280 -872778834 2006018640 5391662 -1023000873 57835847 115594460 1726686381 1154411396 -982415507 672617297 2140929249 -148889135 965417049 2104555206 1509932446 59939515
REM
CELL 1.54180   50.00000   50.00000   50.00000   90.00000   90.00000   90.00000
LATT -1
SFAC C  
C      1  0.4585520000000  0.4893780000000  0.5079550000000 1.0
C      1  0.4624020000000  0.5137870000000  0.4907100000000 1.0
C      1  0.5383160000000  0.4888090000000  0.5129720000000 1.0
C      1  0.5363900000000  0.5111460000000  0.4900060000000 1.0
C      1  0.4654310000000  0.4440190000000  0.5241000000000 1.0
C      1  0.4649620000000  0.5568260000000  0.4741650000000 1.0
C      1  0.5330050000000  0.4447480000000  0.5271970000000 1.0
C      1  0.5322990000000  0.5561860000000  0.4729280000000 1.0
C      1  0.4841050000000  0.5807910000000  0.4779680000000 1.0
C      1  0.4845170000000  0.4202180000000  0.5205700000000 1.0
C      1  0.5139830000000  0.5811060000000  0.4740880000000 1.0
C      1  0.5142780000000  0.4198430000000  0.5256370000000 1.0
C      1  0.5493190000000  0.4489660000000  0.5005540000000 1.0
C      1  0.5495860000000  0.5524710000000  0.4993200000000 1.0
C      1  0.4482890000000  0.4481680000000  0.4967590000000 1.0
C      1  0.4488960000000  0.5520120000000  0.5016730000000 1.0
C      1  0.5556920000000  0.4840900000000  0.4514700000000 1.0
C      1  0.5578150000000  0.5175740000000  0.5487680000000 1.0
C      1  0.4423560000000  0.4851290000000  0.4494720000000 1.0
C      1  0.4444740000000  0.5158560000000  0.5489800000000 1.0
C      1  0.5772400000000  0.5165800000000  0.4745010000000 1.0
C      1  0.5784010000000  0.4843970000000  0.5246700000000 1.0
C      1  0.4204210000000  0.5176030000000  0.4757730000000 1.0
C      1  0.4200550000000  0.4818940000000  0.5229770000000 1.0
C      1  0.5080900000000  0.5019670000000  0.5716050000000 1.0
C      1  0.5092220000000  0.4994930000000  0.4307910000000 1.0
C      1  0.4915500000000  0.5252060000000  0.5780990000000 1.0
C      1  0.4928860000000  0.4767720000000  0.4222520000000 1.0
C      1  0.5583770000000  0.4831480000000  0.5498680000000 1.0
C      1  0.5563290000000  0.5178580000000  0.4501330000000 1.0
C      1  0.4427180000000  0.4832220000000  0.5463660000000 1.0
C      1  0.4411510000000  0.5183660000000  0.4508870000000 1.0
C      1  0.5298700000000  0.5343200000000  0.4525250000000 1.0
C      1  0.5317360000000  0.4659910000000  0.5484230000000 1.0
C      1  0.4679050000000  0.5345460000000  0.4530720000000 1.0
C      1  0.4693370000000  0.4668630000000  0.5439870000000 1.0
C      1  0.5162160000000  0.5483540000000  0.5484440000000 1.0
C      1  0.5148230000000  0.4537340000000  0.4524350000000 1.0
C      1  0.4867630000000  0.5450080000000  0.5554790000000 1.0
C      1  0.4856180000000  0.4567220000000  0.4441010000000 1.0
C      1  0.5135600000000  0.5072290000000  0.4624370000000 1.0
C      1  0.5163180000000  0.4944620000000  0.5412250000000 1.0
C      1  0.4816780000000  0.5079550000000  0.4658080000000 1.0
C      1  0.4843260000000  0.4939490000000  0.5309930000000 1.0
C      1  0.5663920000000  0.5321210000000  0.5726700000000 1.0
C      1  0.5629170000000  0.4694800000000  0.4271320000000 1.0
C      1  0.4361310000000  0.5283200000000  0.5740780000000 1.0
C      1  0.4345600000000  0.4720420000000  0.4245030000000 1.0
C      1  0.5770450000000  0.4846270000000  0.4749490000000 1.0
C      1  0.5779190000000  0.5163610000000  0.5242620000000 1.0
C      1  0.4211810000000  0.4854450000000  0.4733690000000 1.0
C      1  0.4232410000000  0.5140260000000  0.5254940000000 1.0
C      1  0.4712250000000  0.4676300000000  0.4898670000000 1.0
C      1  0.4735620000000  0.5347780000000  0.5091870000000 1.0
C      1  0.5260770000000  0.4678220000000  0.4927960000000 1.0
C      1  0.5271410000000  0.5334810000000  0.5079950000000 1.0
C      1  0.5274490000000  0.4279820000000  0.4588740000000 1.0
C      1  0.5283830000000  0.5740880000000  0.5411400000000 1.0
C      1  0.4679230000000  0.4322410000000  0.4497490000000 1.0
C      1  0.4682640000000  0.5689230000000  0.5492470000000 1.0
C      1  0.5132360000000  0.5422960000000  0.4287980000000 1.0
C      1  0.5133390000000  0.4584640000000  0.5711440000000 1.0
C      1  0.4840120000000  0.5422970000000  0.4291790000000 1.0
C      1  0.4841630000000  0.4590280000000  0.5688700000000 1.0
C      1  0.5297900000000  0.5241090000000  0.5374350000000 1.0
C      1  0.5281080000000  0.4779480000000  0.4638350000000 1.0
C      1  0.4722720000000  0.5235540000000  0.5376710000000 1.0
C      1  0.4703900000000  0.4783120000000  0.4611270000000 1.0
C      1  0.4576690000000  0.5755120000000  0.5217820000000 1.0
C      1  0.4576170000000  0.4249900000000  0.4770210000000 1.0
C      1  0.5426810000000  0.5785970000000  0.5155110000000 1.0
C      1  0.5425380000000  0.4231210000000  0.4840090000000 1.0
C      1  0.5730310000000  0.4691190000000  0.4998950000000 1.0
C      1  0.5730680000000  0.5318970000000  0.4993790000000 1.0
C      1  0.4242370000000  0.4677880000000  0.4971520000000 1.0
C      1  0.4258320000000  0.5313330000000  0.5015390000000 1.0
C      1  0.5297190000000  0.4053330000000  0.5041390000000 1.0
C      1  0.5291850000000  0.5959550000000  0.4954400000000 1.0
C      1  0.4742650000000  0.4078220000000  0.4951450000000 1.0
C      1  0.4735160000000  0.5930630000000  0.5033190000000 1.0
C      1  0.5002180000000  0.5456520000000  0.5011020000000 1.0
C      1  0.4984020000000  0.4564400000000  0.4993760000000 1.0
C      1  0.4991580000000  0.4982550000000  0.5031190000000 1.0
END
