TITL C-862506-1665-1093 1.8587818568083 125000 -967.296959062773 0 0 175 (C2) n - 1
REM
REM in /home/nfs/bkarasulu/CARBON/AIRSS/Generating-Clusters/TERSOFF/Higher-Symm/FIRE-HFTN
REM
REM
REM
REM
REM
REM ./C.cell (b20cbc046b6831c77cfcea5457e17084)
REM AIRSS Version 0.9.1 bugfix July 2018 build 013d7b7c2542+ Fri, 06 Jul 2018 19:26:36 +0100
REM compiler GCC version 9.2.1 20190827 (Red Hat 9.2.1-1)
REM options -cpp -mtune=generic -march=x86-64 -g -O0 -fpre-include=/usr/include/finclude/math-vector-fortran.h
REM seed -22135503 1449396174 2088854372 -1892998616 1843052919 400879011 1780104411 -111468035 1829718228 1023429188 1794240941 1091717774 -1959185263 -1656709207 842819214 -1883073308 1497062047 1882013220 1976413862 473070361 -826771015 -1862269132 -1742540093 1466917815 -822559683 -1554373858 -654611072 -95940326 -1251675541 315194058 -1354404782 822196284 -1516408892
REM
CELL 1.54180   50.00000   50.00000   50.00000   90.00000   90.00000   90.00000
LATT -1
SFAC C  
C      1  0.5644610000000  0.5506180000000  0.4393670000000 1.0
C      1  0.5824940000000  0.5523050000000  0.5448890000000 1.0
C      1  0.4828590000000  0.5532610000000  0.5940860000000 1.0
C      1  0.4071640000000  0.5529620000000  0.5142610000000 1.0
C      1  0.4616040000000  0.5504520000000  0.4206450000000 1.0
C      1  0.4332810000000  0.4467130000000  0.4338880000000 1.0
C      1  0.4222880000000  0.4492220000000  0.5416230000000 1.0
C      1  0.5165010000000  0.4490530000000  0.5869430000000 1.0
C      1  0.5931210000000  0.4473640000000  0.5121810000000 1.0
C      1  0.5414410000000  0.4464100000000  0.4138100000000 1.0
C      1  0.4959860000000  0.4094580000000  0.5241910000000 1.0
C      1  0.4734810000000  0.4065240000000  0.5028620000000 1.0
C      1  0.4886380000000  0.4062260000000  0.4757510000000 1.0
C      1  0.5189920000000  0.4053460000000  0.4805400000000 1.0
C      1  0.5238160000000  0.4058910000000  0.5109560000000 1.0
C      1  0.5039270000000  0.5943260000000  0.5269080000000 1.0
C      1  0.5257100000000  0.5937800000000  0.5051390000000 1.0
C      1  0.5109770000000  0.5902140000000  0.4780710000000 1.0
C      1  0.4802330000000  0.5931490000000  0.4820960000000 1.0
C      1  0.4765560000000  0.5934470000000  0.5129380000000 1.0
C      1  0.5753630000000  0.4495830000000  0.4255700000000 1.0
C      1  0.5913850000000  0.4500710000000  0.5481440000000 1.0
C      1  0.4830540000000  0.4501740000000  0.6006290000000 1.0
C      1  0.3990440000000  0.4500580000000  0.5140400000000 1.0
C      1  0.4541100000000  0.4493820000000  0.4047220000000 1.0
C      1  0.4265850000000  0.5496170000000  0.4292950000000 1.0
C      1  0.4068680000000  0.5502930000000  0.5501000000000 1.0
C      1  0.5172130000000  0.5500870000000  0.6045150000000 1.0
C      1  0.6022310000000  0.5495970000000  0.5147750000000 1.0
C      1  0.5454490000000  0.5494970000000  0.4086340000000 1.0
C      1  0.4084920000000  0.5244300000000  0.4244350000000 1.0
C      1  0.5465990000000  0.5250660000000  0.3879110000000 1.0
C      1  0.6191480000000  0.5245020000000  0.5088190000000 1.0
C      1  0.5279650000000  0.5224380000000  0.6066680000000 1.0
C      1  0.4076730000000  0.5229210000000  0.5615430000000 1.0
C      1  0.5853270000000  0.4772330000000  0.4301490000000 1.0
C      1  0.4614890000000  0.4767540000000  0.3959380000000 1.0
C      1  0.3815510000000  0.4752460000000  0.5073350000000 1.0
C      1  0.4718030000000  0.4746060000000  0.6180690000000 1.0
C      1  0.6015700000000  0.4751660000000  0.5629070000000 1.0
C      1  0.5116480000000  0.5572640000000  0.4744550000000 1.0
C      1  0.5274450000000  0.5599380000000  0.5020580000000 1.0
C      1  0.5052560000000  0.5601160000000  0.5241810000000 1.0
C      1  0.4774570000000  0.5598580000000  0.5109150000000 1.0
C      1  0.4805120000000  0.5591730000000  0.4800580000000 1.0
C      1  0.4881780000000  0.4398150000000  0.4779180000000 1.0
C      1  0.4725100000000  0.4405000000000  0.5046750000000 1.0
C      1  0.4944040000000  0.4424080000000  0.5275120000000 1.0
C      1  0.5234100000000  0.4397330000000  0.5144690000000 1.0
C      1  0.5184650000000  0.4395560000000  0.4835270000000 1.0
C      1  0.5575410000000  0.5065460000000  0.5395770000000 1.0
C      1  0.4808960000000  0.5072420000000  0.5702490000000 1.0
C      1  0.4304700000000  0.5074740000000  0.5024990000000 1.0
C      1  0.4827330000000  0.5061580000000  0.4446680000000 1.0
C      1  0.5447870000000  0.5064390000000  0.4665940000000 1.0
C      1  0.4535040000000  0.4935150000000  0.5346110000000 1.0
C      1  0.5165930000000  0.4932320000000  0.5533530000000 1.0
C      1  0.5698140000000  0.4931230000000  0.5018100000000 1.0
C      1  0.5258420000000  0.4924300000000  0.4319410000000 1.0
C      1  0.4452220000000  0.4922000000000  0.4571050000000 1.0
C      1  0.5058860000000  0.4259560000000  0.5659560000000 1.0
C      1  0.4391620000000  0.4256460000000  0.5254120000000 1.0
C      1  0.4567090000000  0.4299760000000  0.4483420000000 1.0
C      1  0.5343450000000  0.4313370000000  0.4414580000000 1.0
C      1  0.5661690000000  0.4284610000000  0.5137390000000 1.0
C      1  0.4933710000000  0.5683340000000  0.5675490000000 1.0
C      1  0.5616080000000  0.5712080000000  0.5277850000000 1.0
C      1  0.5435370000000  0.5737150000000  0.4501050000000 1.0
C      1  0.4657260000000  0.5740280000000  0.4436790000000 1.0
C      1  0.4346140000000  0.5696980000000  0.5163410000000 1.0
C      1  0.4457530000000  0.4549470000000  0.5073700000000 1.0
C      1  0.4763420000000  0.4540130000000  0.4551350000000 1.0
C      1  0.5342520000000  0.4537140000000  0.4634250000000 1.0
C      1  0.5482920000000  0.4539000000000  0.5232170000000 1.0
C      1  0.4906360000000  0.4544500000000  0.5544350000000 1.0
C      1  0.5527160000000  0.5457700000000  0.5096080000000 1.0
C      1  0.5244260000000  0.5452220000000  0.4504600000000 1.0
C      1  0.4604500000000  0.5447270000000  0.4621490000000 1.0
C      1  0.4544890000000  0.5456600000000  0.5223870000000 1.0
C      1  0.5062090000000  0.5459570000000  0.5497230000000 1.0
C      1  0.5184660000000  0.5186520000000  0.3995720000000 1.0
C      1  0.5990470000000  0.5189480000000  0.4862490000000 1.0
C      1  0.5432280000000  0.5224310000000  0.5817310000000 1.0
C      1  0.4359830000000  0.5229010000000  0.5689790000000 1.0
C      1  0.4099500000000  0.5209420000000  0.4550360000000 1.0
C      1  0.4887620000000  0.4767730000000  0.4065650000000 1.0
C      1  0.4007200000000  0.4787340000000  0.4834370000000 1.0
C      1  0.4559000000000  0.4810210000000  0.5920980000000 1.0
C      1  0.5720400000000  0.4807210000000  0.5693500000000 1.0
C      1  0.5830160000000  0.4772390000000  0.4592950000000 1.0
C      1  0.4296370000000  0.4789860000000  0.4936970000000 1.0
C      1  0.4871810000000  0.4773250000000  0.4375960000000 1.0
C      1  0.5532260000000  0.4773240000000  0.4669220000000 1.0
C      1  0.5539340000000  0.4764140000000  0.5444570000000 1.0
C      1  0.4738770000000  0.4777000000000  0.5676580000000 1.0
C      1  0.5697660000000  0.5232550000000  0.4957410000000 1.0
C      1  0.5186420000000  0.5219730000000  0.4299110000000 1.0
C      1  0.4393740000000  0.5206890000000  0.4637360000000 1.0
C      1  0.4529460000000  0.5223480000000  0.5429470000000 1.0
C      1  0.5236130000000  0.5223470000000  0.5580490000000 1.0
C      1  0.5930820000000  0.4787860000000  0.5114090000000 1.0
C      1  0.5135460000000  0.4795190000000  0.5812940000000 1.0
C      1  0.4263530000000  0.4799860000000  0.5391190000000 1.0
C      1  0.4310980000000  0.4780440000000  0.4361340000000 1.0
C      1  0.5402680000000  0.4778680000000  0.4118270000000 1.0
C      1  0.4067170000000  0.5216310000000  0.5111600000000 1.0
C      1  0.4807430000000  0.5218040000000  0.5950010000000 1.0
C      1  0.5820070000000  0.5208830000000  0.5454900000000 1.0
C      1  0.5587480000000  0.5201520000000  0.4422000000000 1.0
C      1  0.4634190000000  0.5196880000000  0.4250610000000 1.0
C      1  0.5700220000000  0.5815350000000  0.4960830000000 1.0
C      1  0.5252600000000  0.5792650000000  0.5667890000000 1.0
C      1  0.4451640000000  0.5794360000000  0.5460360000000 1.0
C      1  0.4401260000000  0.5814120000000  0.4641410000000 1.0
C      1  0.5171380000000  0.5821660000000  0.4319060000000 1.0
C      1  0.4304810000000  0.4182620000000  0.4938100000000 1.0
C      1  0.4738310000000  0.4175070000000  0.5651590000000 1.0
C      1  0.5543390000000  0.4181350000000  0.5443310000000 1.0
C      1  0.5596940000000  0.4204050000000  0.4608190000000 1.0
C      1  0.4827000000000  0.4202380000000  0.4305210000000 1.0
C      1  0.5688040000000  0.5555440000000  0.5781190000000 1.0
C      1  0.4470610000000  0.5567310000000  0.5912660000000 1.0
C      1  0.3999730000000  0.5540930000000  0.4789540000000 1.0
C      1  0.4899480000000  0.5523200000000  0.4011080000000 1.0
C      1  0.5915370000000  0.5525920000000  0.4601820000000 1.0
C      1  0.4337320000000  0.4473540000000  0.5740900000000 1.0
C      1  0.5506410000000  0.4470780000000  0.5860220000000 1.0
C      1  0.6015810000000  0.4441250000000  0.4772520000000 1.0
C      1  0.5108240000000  0.4429420000000  0.3950480000000 1.0
C      1  0.4067080000000  0.4455830000000  0.4582220000000 1.0
C      1  0.4506860000000  0.5026030000000  0.4046060000000 1.0
C      1  0.5728180000000  0.5027610000000  0.4229880000000 1.0
C      1  0.6046760000000  0.5049170000000  0.5554230000000 1.0
C      1  0.4753530000000  0.5060800000000  0.6196230000000 1.0
C      1  0.3818890000000  0.5055500000000  0.5135630000000 1.0
C      1  0.5503830000000  0.4935920000000  0.3887400000000 1.0
C      1  0.4124260000000  0.4941250000000  0.4195950000000 1.0
C      1  0.4040290000000  0.4970720000000  0.5481810000000 1.0
C      1  0.5136340000000  0.4969100000000  0.6051070000000 1.0
C      1  0.6172590000000  0.4947510000000  0.5167000000000 1.0
C      1  0.4399210000000  0.5888790000000  0.4930290000000 1.0
C      1  0.4905100000000  0.5914290000000  0.4414350000000 1.0
C      1  0.5526740000000  0.5908130000000  0.4731510000000 1.0
C      1  0.5419900000000  0.5882460000000  0.5434220000000 1.0
C      1  0.4729710000000  0.5869050000000  0.5542350000000 1.0
C      1  0.5594920000000  0.4114240000000  0.4895570000000 1.0
C      1  0.5100140000000  0.4127670000000  0.4402350000000 1.0
C      1  0.4472980000000  0.4107950000000  0.4703200000000 1.0
C      1  0.4578920000000  0.4082440000000  0.5417970000000 1.0
C      1  0.5268240000000  0.4088570000000  0.5526840000000 1.0
C      1  0.5395820000000  0.5652680000000  0.5870470000000 1.0
C      1  0.4299890000000  0.5659140000000  0.5659430000000 1.0
C      1  0.4189760000000  0.5640060000000  0.4562190000000 1.0
C      1  0.5173570000000  0.5634940000000  0.4101260000000 1.0
C      1  0.5912220000000  0.5635060000000  0.4892090000000 1.0
C      1  0.4612050000000  0.4361790000000  0.5829070000000 1.0
C      1  0.5674490000000  0.4361630000000  0.5623550000000 1.0
C      1  0.5831900000000  0.4344020000000  0.4528500000000 1.0
C      1  0.4821270000000  0.4337590000000  0.4054970000000 1.0
C      1  0.4087160000000  0.4356700000000  0.4877860000000 1.0
C      1  0.4741700000000  0.5205300000000  0.4950990000000 1.0
C      1  0.4917660000000  0.5179690000000  0.4703000000000 1.0
C      1  0.5211040000000  0.5169470000000  0.4813320000000 1.0
C      1  0.5192450000000  0.5200550000000  0.5119210000000 1.0
C      1  0.4906610000000  0.5210020000000  0.5197430000000 1.0
C      1  0.5225750000000  0.4796170000000  0.5016700000000 1.0
C      1  0.5040500000000  0.4786700000000  0.4785390000000 1.0
C      1  0.4762230000000  0.4791430000000  0.4887800000000 1.0
C      1  0.4758790000000  0.4817040000000  0.5191850000000 1.0
C      1  0.5060970000000  0.4827240000000  0.5275080000000 1.0
C      1  0.6035420000000  0.4928410000000  0.4732400000000 1.0
C      1  0.4416960000000  0.5065300000000  0.5925640000000 1.0
C      1  0.3924800000000  0.4998380000000  0.4650590000000 1.0
C      1  0.5680310000000  0.5068280000000  0.5825170000000 1.0
C      1  0.5072490000000  0.4931430000000  0.3908440000000 1.0
END
