TITL C-862129-6180-825 1.32654751219089e-07 125000 -71.9511965012631 0 0 17 (Td) n - 1
REM
REM in /home/nfs/bkarasulu/CARBON/AIRSS/Generating-Clusters/TERSOFF/Higher-Symm/FIRE-HFTN
REM
REM
REM
REM
REM
REM ./C.cell (b20cbc046b6831c77cfcea5457e17084)
REM AIRSS Version 0.9.1 bugfix July 2018 build 013d7b7c2542+ Fri, 06 Jul 2018 19:26:36 +0100
REM compiler GCC version 9.2.1 20190827 (Red Hat 9.2.1-1)
REM options -cpp -mtune=generic -march=x86-64 -g -O0 -fpre-include=/usr/include/finclude/math-vector-fortran.h
REM seed -1035955090 -1208746899 -1717138872 1101783231 -49891519 1995107293 -1197474002 -1998999711 -806899961 -37344547 1565139433 508263157 565905137 82093745 -161462086 851715345 873125811 645320463 -1006943701 549501991 -901253141 696474847 461894821 486305930 -935603953 -967827348 -933930774 588499951 789874900 1480057693 1049052113 -782334906 -1826643584
REM
CELL 1.54180   50.00000   50.00000   50.00000   90.00000   90.00000   90.00000
LATT -1
SFAC C  
C      1  0.4683500000000  0.5062870000000  0.5316300000000 1.0
C      1  0.5317000000000  0.5062870000000  0.4682800000000 1.0
C      1  0.5067580000000  0.5312290000000  0.4682800000000 1.0
C      1  0.5067580000000  0.4678790000000  0.5316300000000 1.0
C      1  0.5317000000000  0.5312290000000  0.4932220000000 1.0
C      1  0.4683500000000  0.5312290000000  0.5066880000000 1.0
C      1  0.5317000000000  0.4678790000000  0.5066880000000 1.0
C      1  0.4683500000000  0.4678790000000  0.4932220000000 1.0
C      1  0.5317000000000  0.4928210000000  0.5316300000000 1.0
C      1  0.4932920000000  0.5312290000000  0.5316300000000 1.0
C      1  0.4683500000000  0.4928210000000  0.4682800000000 1.0
C      1  0.4932920000000  0.4678790000000  0.4682800000000 1.0
C      1  0.5189050000000  0.4806740000000  0.4810750000000 1.0
C      1  0.4811450000000  0.4806740000000  0.5188350000000 1.0
C      1  0.4811450000000  0.5184340000000  0.4810750000000 1.0
C      1  0.5189050000000  0.5184340000000  0.5188350000000 1.0
C      1  0.5000250000000  0.4995540000000  0.4999550000000 1.0
END
