TITL C-862506-1665-1236 7.64962403376569 125000 -1112.5475683927 0 0 194 (C1) n - 1
REM
REM in /home/nfs/bkarasulu/CARBON/AIRSS/Generating-Clusters/TERSOFF/Higher-Symm/FIRE-HFTN
REM
REM
REM
REM
REM
REM ./C.cell (b20cbc046b6831c77cfcea5457e17084)
REM AIRSS Version 0.9.1 bugfix July 2018 build 013d7b7c2542+ Fri, 06 Jul 2018 19:26:36 +0100
REM compiler GCC version 9.2.1 20190827 (Red Hat 9.2.1-1)
REM options -cpp -mtune=generic -march=x86-64 -g -O0 -fpre-include=/usr/include/finclude/math-vector-fortran.h
REM seed -599997501 -904792022 652102015 -1746713234 -171675516 -498778956 1992303062 1557366891 1167317318 651581147 439654681 -2028112434 -1598208705 1645841257 -2109064336 2083289511 -1910881596 2084865755 -955111172 721936155 -278727470 -441095430 1413038537 1787938104 1853513346 -1889620555 -1419381160 1905495211 1483702063 -770023910 -991243594 623914896 -1446893850
REM
CELL 1.54180   50.00000   50.00000   50.00000   90.00000   90.00000   90.00000
LATT -1
SFAC C  
C      1  0.4616780000000  0.4028600000000  0.4449510000000 1.0
C      1  0.6063920000000  0.5198680000000  0.4479120000000 1.0
C      1  0.4276320000000  0.5756670000000  0.4505790000000 1.0
C      1  0.4298610000000  0.5060580000000  0.5695150000000 1.0
C      1  0.5299370000000  0.4365550000000  0.5688280000000 1.0
C      1  0.5398700000000  0.5579790000000  0.5694680000000 1.0
C      1  0.5374130000000  0.4313880000000  0.4424100000000 1.0
C      1  0.5438960000000  0.5643180000000  0.4423480000000 1.0
C      1  0.4208210000000  0.5038010000000  0.4459290000000 1.0
C      1  0.5526580000000  0.5933710000000  0.5312730000000 1.0
C      1  0.3917580000000  0.4991720000000  0.5326190000000 1.0
C      1  0.5545990000000  0.4074500000000  0.5313010000000 1.0
C      1  0.5697720000000  0.4607740000000  0.4819340000000 1.0
C      1  0.5006280000000  0.5775510000000  0.4816930000000 1.0
C      1  0.4316850000000  0.4612910000000  0.4810090000000 1.0
C      1  0.5437090000000  0.4746110000000  0.4916530000000 1.0
C      1  0.5014160000000  0.5483090000000  0.4914790000000 1.0
C      1  0.4567350000000  0.4775610000000  0.4901630000000 1.0
C      1  0.4032200000000  0.4401860000000  0.4790570000000 1.0
C      1  0.6021720000000  0.4471660000000  0.4797800000000 1.0
C      1  0.4943750000000  0.6115030000000  0.4777510000000 1.0
C      1  0.4120130000000  0.5354000000000  0.5603280000000 1.0
C      1  0.5130030000000  0.4063580000000  0.5593370000000 1.0
C      1  0.5746030000000  0.5584350000000  0.5602970000000 1.0
C      1  0.4773880000000  0.4818310000000  0.4101970000000 1.0
C      1  0.5296300000000  0.4984440000000  0.4109350000000 1.0
C      1  0.4960030000000  0.5137940000000  0.4079860000000 1.0
C      1  0.5261680000000  0.6159350000000  0.4742820000000 1.0
C      1  0.3834750000000  0.4657810000000  0.4779580000000 1.0
C      1  0.5891870000000  0.4177330000000  0.4764850000000 1.0
C      1  0.4887320000000  0.5366160000000  0.5520120000000 1.0
C      1  0.4740820000000  0.4714090000000  0.5508770000000 1.0
C      1  0.5377270000000  0.4918550000000  0.5514480000000 1.0
C      1  0.5517560000000  0.5481590000000  0.5006190000000 1.0
C      1  0.4320270000000  0.5216250000000  0.5017490000000 1.0
C      1  0.5165660000000  0.4317140000000  0.4999750000000 1.0
C      1  0.5305840000000  0.6105300000000  0.4451590000000 1.0
C      1  0.3837340000000  0.4730250000000  0.4491560000000 1.0
C      1  0.5830770000000  0.4158200000000  0.4474670000000 1.0
C      1  0.5622250000000  0.4120030000000  0.4997750000000 1.0
C      1  0.5452260000000  0.5978670000000  0.4991740000000 1.0
C      1  0.3929530000000  0.4913610000000  0.5015430000000 1.0
C      1  0.5600640000000  0.5171040000000  0.4056250000000 1.0
C      1  0.4620940000000  0.5284150000000  0.4087270000000 1.0
C      1  0.4814930000000  0.4463660000000  0.4044860000000 1.0
C      1  0.3921680000000  0.5286300000000  0.5384630000000 1.0
C      1  0.5287420000000  0.3932340000000  0.5369240000000 1.0
C      1  0.5780680000000  0.5784470000000  0.5375700000000 1.0
C      1  0.4771690000000  0.4597880000000  0.5010270000000 1.0
C      1  0.5490100000000  0.5008050000000  0.5028610000000 1.0
C      1  0.4760170000000  0.5396080000000  0.5032150000000 1.0
C      1  0.5647870000000  0.5726250000000  0.4597240000000 1.0
C      1  0.4045260000000  0.5198550000000  0.4617250000000 1.0
C      1  0.5314990000000  0.4089240000000  0.4588840000000 1.0
C      1  0.5862780000000  0.5039980000000  0.4033230000000 1.0
C      1  0.4531000000000  0.5590820000000  0.4059890000000 1.0
C      1  0.4580100000000  0.4286930000000  0.4008960000000 1.0
C      1  0.4823980000000  0.4198490000000  0.4538470000000 1.0
C      1  0.5818990000000  0.5288880000000  0.4588410000000 1.0
C      1  0.4301550000000  0.5553300000000  0.4710540000000 1.0
C      1  0.4719790000000  0.4167970000000  0.5874970000000 1.0
C      1  0.5855630000000  0.5172250000000  0.5883240000000 1.0
C      1  0.4418310000000  0.5660690000000  0.5876850000000 1.0
C      1  0.4157370000000  0.4525870000000  0.5504190000000 1.0
C      1  0.5834540000000  0.4505180000000  0.5509470000000 1.0
C      1  0.5005460000000  0.5965800000000  0.5496970000000 1.0
C      1  0.5013880000000  0.4259170000000  0.5241400000000 1.0
C      1  0.5639610000000  0.5382850000000  0.5251380000000 1.0
C      1  0.4355230000000  0.5375450000000  0.5257220000000 1.0
C      1  0.5583730000000  0.5734220000000  0.4876970000000 1.0
C      1  0.4064700000000  0.5153270000000  0.4897900000000 1.0
C      1  0.5348680000000  0.4132090000000  0.4872420000000 1.0
C      1  0.5190060000000  0.4536980000000  0.4427080000000 1.0
C      1  0.5370010000000  0.5364750000000  0.4416430000000 1.0
C      1  0.4492540000000  0.5091630000000  0.4437620000000 1.0
C      1  0.4700310000000  0.4534870000000  0.5286780000000 1.0
C      1  0.5566230000000  0.4972970000000  0.5306150000000 1.0
C      1  0.4754340000000  0.5497250000000  0.5303990000000 1.0
C      1  0.5430370000000  0.5472140000000  0.6009570000000 1.0
C      1  0.4374360000000  0.5137240000000  0.6007000000000 1.0
C      1  0.5190530000000  0.4388650000000  0.6002030000000 1.0
C      1  0.4945430000000  0.3751750000000  0.4657410000000 1.0
C      1  0.6133810000000  0.5613410000000  0.4678520000000 1.0
C      1  0.3899160000000  0.5672070000000  0.4669880000000 1.0
C      1  0.4074090000000  0.4491750000000  0.5231320000000 1.0
C      1  0.5915960000000  0.4445920000000  0.5239590000000 1.0
C      1  0.5018010000000  0.6063400000000  0.5225680000000 1.0
C      1  0.4908420000000  0.5323990000000  0.6151750000000 1.0
C      1  0.4760090000000  0.4759710000000  0.6147460000000 1.0
C      1  0.5322710000000  0.4911250000000  0.6152030000000 1.0
C      1  0.4559500000000  0.4119160000000  0.5371340000000 1.0
C      1  0.5993710000000  0.5058330000000  0.5385020000000 1.0
C      1  0.4452210000000  0.5815610000000  0.5369500000000 1.0
C      1  0.4463870000000  0.4700470000000  0.4021610000000 1.0
C      1  0.5552560000000  0.4752610000000  0.4034390000000 1.0
C      1  0.4976620000000  0.5498630000000  0.4029370000000 1.0
C      1  0.5169240000000  0.5892870000000  0.5053270000000 1.0
C      1  0.4145360000000  0.4705440000000  0.5057490000000 1.0
C      1  0.5698830000000  0.4406850000000  0.5058120000000 1.0
C      1  0.4380180000000  0.4335980000000  0.5596530000000 1.0
C      1  0.5886520000000  0.4793490000000  0.5604640000000 1.0
C      1  0.4732870000000  0.5862060000000  0.5590800000000 1.0
C      1  0.6044330000000  0.4988720000000  0.4263020000000 1.0
C      1  0.4498180000000  0.5780440000000  0.4288160000000 1.0
C      1  0.4442210000000  0.4146480000000  0.4232690000000 1.0
C      1  0.3782600000000  0.5487560000000  0.5213360000000 1.0
C      1  0.5184970000000  0.3712680000000  0.5198670000000 1.0
C      1  0.6023500000000  0.5804250000000  0.5206960000000 1.0
C      1  0.5891050000000  0.5579170000000  0.4218600000000 1.0
C      1  0.4096720000000  0.5462680000000  0.4222730000000 1.0
C      1  0.5025640000000  0.4006080000000  0.4212750000000 1.0
C      1  0.4987420000000  0.3745210000000  0.4973720000000 1.0
C      1  0.6098590000000  0.5611600000000  0.4992430000000 1.0
C      1  0.3910000000000  0.5644730000000  0.4990250000000 1.0
C      1  0.5914890000000  0.5686880000000  0.4495440000000 1.0
C      1  0.3959500000000  0.5442380000000  0.4494100000000 1.0
C      1  0.5120270000000  0.3907330000000  0.4478400000000 1.0
C      1  0.4048480000000  0.4252480000000  0.4534800000000 1.0
C      1  0.6141480000000  0.4578740000000  0.4548930000000 1.0
C      1  0.4788510000000  0.6124510000000  0.4524180000000 1.0
C      1  0.4856290000000  0.4825530000000  0.4601550000000 1.0
C      1  0.5249090000000  0.4973110000000  0.4618840000000 1.0
C      1  0.4926070000000  0.5239350000000  0.4584930000000 1.0
C      1  0.6262090000000  0.5188030000000  0.5255370000000 1.0
C      1  0.4212690000000  0.5995080000000  0.5240170000000 1.0
C      1  0.4539360000000  0.3826390000000  0.5231930000000 1.0
C      1  0.4820510000000  0.4065670000000  0.5616360000000 1.0
C      1  0.5899380000000  0.5312020000000  0.5625900000000 1.0
C      1  0.4277260000000  0.5621220000000  0.5620010000000 1.0
C      1  0.5111570000000  0.4758500000000  0.5820010000000 1.0
C      1  0.5150790000000  0.5219190000000  0.5825150000000 1.0
C      1  0.4731450000000  0.5022480000000  0.5818630000000 1.0
C      1  0.4488580000000  0.4337480000000  0.4843710000000 1.0
C      1  0.5854500000000  0.4889770000000  0.4858240000000 1.0
C      1  0.4687820000000  0.5763760000000  0.4844190000000 1.0
C      1  0.6299570000000  0.5299740000000  0.4658520000000 1.0
C      1  0.4087810000000  0.5970780000000  0.4650650000000 1.0
C      1  0.4600250000000  0.3774940000000  0.4633670000000 1.0
C      1  0.4381780000000  0.4182020000000  0.5073760000000 1.0
C      1  0.6037690000000  0.4873460000000  0.5090900000000 1.0
C      1  0.4591720000000  0.5935700000000  0.5069350000000 1.0
C      1  0.4085700000000  0.4804010000000  0.4354380000000 1.0
C      1  0.5644610000000  0.4341680000000  0.4340310000000 1.0
C      1  0.5262140000000  0.5840940000000  0.4327820000000 1.0
C      1  0.5307590000000  0.5855940000000  0.5529360000000 1.0
C      1  0.4098330000000  0.4842400000000  0.5540570000000 1.0
C      1  0.5585120000000  0.4301710000000  0.5532400000000 1.0
C      1  0.4695240000000  0.5744290000000  0.5863400000000 1.0
C      1  0.4506620000000  0.4364060000000  0.5865540000000 1.0
C      1  0.5793720000000  0.4889270000000  0.5872280000000 1.0
C      1  0.4999720000000  0.5754510000000  0.4229360000000 1.0
C      1  0.4248110000000  0.4607670000000  0.4220160000000 1.0
C      1  0.5733390000000  0.4597060000000  0.4233180000000 1.0
C      1  0.5097230000000  0.4710810000000  0.5280800000000 1.0
C      1  0.5207430000000  0.5227710000000  0.5286520000000 1.0
C      1  0.4699860000000  0.5068160000000  0.5287420000000 1.0
C      1  0.5639910000000  0.5459090000000  0.4104130000000 1.0
C      1  0.4289190000000  0.5250590000000  0.4106320000000 1.0
C      1  0.5047720000000  0.4291570000000  0.4117570000000 1.0
C      1  0.4539250000000  0.4827260000000  0.5707150000000 1.0
C      1  0.5376190000000  0.4688970000000  0.5711930000000 1.0
C      1  0.5082510000000  0.5484120000000  0.5717990000000 1.0
C      1  0.4684500000000  0.4884870000000  0.4385810000000 1.0
C      1  0.5266840000000  0.4820370000000  0.4382800000000 1.0
C      1  0.5088720000000  0.5263900000000  0.4358690000000 1.0
C      1  0.4808310000000  0.4360120000000  0.4789670000000 1.0
C      1  0.5682670000000  0.5150830000000  0.4813100000000 1.0
C      1  0.4561410000000  0.5480280000000  0.4800860000000 1.0
C      1  0.5064330000000  0.4674400000000  0.6115540000000 1.0
C      1  0.5245050000000  0.5218040000000  0.6121040000000 1.0
C      1  0.4683180000000  0.5102480000000  0.6115530000000 1.0
C      1  0.5530010000000  0.4787640000000  0.5951240000000 1.0
C      1  0.4914530000000  0.5569420000000  0.5953170000000 1.0
C      1  0.4550750000000  0.4643000000000  0.5945740000000 1.0
C      1  0.5416280000000  0.5192670000000  0.4658670000000 1.0
C      1  0.4651430000000  0.5294860000000  0.4589020000000 1.0
C      1  0.4978090000000  0.4576620000000  0.4636520000000 1.0
C      1  0.4226650000000  0.4323960000000  0.4313020000000 1.0
C      1  0.5989180000000  0.4712720000000  0.4337700000000 1.0
C      1  0.4758500000000  0.5896660000000  0.4341470000000 1.0
C      1  0.5434330000000  0.5332850000000  0.5477300000000 1.0
C      1  0.4497200000000  0.5216220000000  0.5480370000000 1.0
C      1  0.5071920000000  0.4459630000000  0.5467170000000 1.0
C      1  0.4788220000000  0.6165810000000  0.5066370000000 1.0
C      1  0.4085170000000  0.4238450000000  0.5077640000000 1.0
C      1  0.6131920000000  0.4585940000000  0.5092160000000 1.0
C      1  0.5244490000000  0.5365280000000  0.5026170000000 1.0
C      1  0.4553810000000  0.5030460000000  0.5028430000000 1.0
C      1  0.5209860000000  0.4610830000000  0.5021460000000 1.0
C      1  0.4049570000000  0.5915690000000  0.5004530000000 1.0
C      1  0.4681380000000  0.3748260000000  0.4983910000000 1.0
C      1  0.6266970000000  0.5359440000000  0.5012540000000 1.0
C      1  0.4998590000000  0.5000880000000  0.5744600000000 1.0
C      1  0.5001810000000  0.5001570000000  0.5325220000000 1.0
END
