TITL C-862502-1143-50 295779.192049796 125000 -1095.74603677623 0 0 195 (C1) n - 1
REM
REM in /home/nfs/bkarasulu/CARBON/AIRSS/Generating-Clusters/TERSOFF/Higher-Symm/FIRE-HFTN
REM
REM
REM
REM
REM
REM ./C.cell (b20cbc046b6831c77cfcea5457e17084)
REM AIRSS Version 0.9.1 bugfix July 2018 build 013d7b7c2542+ Fri, 06 Jul 2018 19:26:36 +0100
REM compiler GCC version 9.2.1 20190827 (Red Hat 9.2.1-1)
REM options -cpp -mtune=generic -march=x86-64 -g -O0 -fpre-include=/usr/include/finclude/math-vector-fortran.h
REM seed 1258379833 -1981393240 -54503689 181962810 -942446265 1310922000 1998021304 744044996 -1056150172 -1455560182 512200547 -200798116 274978326 -1237284226 -584339312 1589219994 -611913062 1278489438 -591439086 1775182696 -1294433122 -1279610247 -504375603 1051255410 -1771503993 1083157738 2071302236 1097968703 580576827 -285548214 839771005 -66978986 1052010573
REM
CELL 1.54180   50.00000   50.00000   50.00000   90.00000   90.00000   90.00000
LATT -1
SFAC C  
C      1  0.4418050000000  0.4148440000000  0.4266780000000 1.0
C      1  0.4450060000000  0.5880780000000  0.4230220000000 1.0
C      1  0.4901470000000  0.5799280000000  0.4380980000000 1.0
C      1  0.4878670000000  0.4209980000000  0.4400900000000 1.0
C      1  0.4543250000000  0.5830250000000  0.5481050000000 1.0
C      1  0.4599770000000  0.4220670000000  0.5521410000000 1.0
C      1  0.4498020000000  0.4739700000000  0.4134400000000 1.0
C      1  0.4502750000000  0.5269970000000  0.4123450000000 1.0
C      1  0.4413260000000  0.4045690000000  0.4548300000000 1.0
C      1  0.4440790000000  0.5991900000000  0.4508030000000 1.0
C      1  0.6016180000000  0.5563450000000  0.4812390000000 1.0
C      1  0.6009490000000  0.4405650000000  0.4779980000000 1.0
C      1  0.4698390000000  0.5734400000000  0.4137380000000 1.0
C      1  0.4673360000000  0.4273880000000  0.4162410000000 1.0
C      1  0.4167970000000  0.5515320000000  0.5313420000000 1.0
C      1  0.4224220000000  0.4553410000000  0.5406250000000 1.0
C      1  0.4953180000000  0.4049470000000  0.5372710000000 1.0
C      1  0.4968940000000  0.5996380000000  0.5372860000000 1.0
C      1  0.5158810000000  0.4112840000000  0.4296900000000 1.0
C      1  0.5188510000000  0.5881670000000  0.4286110000000 1.0
C      1  0.5072430000000  0.5246110000000  0.4920800000000 1.0
C      1  0.5052300000000  0.4783360000000  0.4932780000000 1.0
C      1  0.5624480000000  0.4186660000000  0.4517020000000 1.0
C      1  0.5636890000000  0.5785450000000  0.4538520000000 1.0
C      1  0.4720220000000  0.5603920000000  0.5326290000000 1.0
C      1  0.4774460000000  0.4441830000000  0.5350370000000 1.0
C      1  0.4249300000000  0.5605320000000  0.5805090000000 1.0
C      1  0.4344970000000  0.4432860000000  0.5885550000000 1.0
C      1  0.5288960000000  0.4499420000000  0.5886140000000 1.0
C      1  0.5264710000000  0.5522090000000  0.5941430000000 1.0
C      1  0.5201750000000  0.6057960000000  0.5204070000000 1.0
C      1  0.5179830000000  0.3956720000000  0.5210910000000 1.0
C      1  0.4694100000000  0.5686200000000  0.5010310000000 1.0
C      1  0.4713950000000  0.4360490000000  0.5031670000000 1.0
C      1  0.4876340000000  0.4708710000000  0.5831770000000 1.0
C      1  0.4878090000000  0.5325160000000  0.5777660000000 1.0
C      1  0.5428580000000  0.4727350000000  0.4346760000000 1.0
C      1  0.5450140000000  0.5250910000000  0.4361220000000 1.0
C      1  0.4845430000000  0.5564810000000  0.4573790000000 1.0
C      1  0.4830660000000  0.4450290000000  0.4593240000000 1.0
C      1  0.4348550000000  0.4378400000000  0.5595150000000 1.0
C      1  0.4272020000000  0.5683640000000  0.5520120000000 1.0
C      1  0.4613890000000  0.5882840000000  0.5787280000000 1.0
C      1  0.4687720000000  0.4132590000000  0.5822560000000 1.0
C      1  0.4448480000000  0.5517840000000  0.4892310000000 1.0
C      1  0.4446100000000  0.4528900000000  0.4932500000000 1.0
C      1  0.5112700000000  0.4429270000000  0.6123290000000 1.0
C      1  0.5008860000000  0.5519060000000  0.6132080000000 1.0
C      1  0.5488160000000  0.5544130000000  0.5041610000000 1.0
C      1  0.5504140000000  0.4497120000000  0.5016860000000 1.0
C      1  0.3898120000000  0.4720290000000  0.4593310000000 1.0
C      1  0.3902070000000  0.5325380000000  0.4582120000000 1.0
C      1  0.4690040000000  0.6041270000000  0.5228380000000 1.0
C      1  0.4665480000000  0.4004660000000  0.5240100000000 1.0
C      1  0.5459620000000  0.5737250000000  0.4300480000000 1.0
C      1  0.5438340000000  0.4242480000000  0.4289560000000 1.0
C      1  0.6011090000000  0.4707860000000  0.5340500000000 1.0
C      1  0.6026760000000  0.5225060000000  0.5393700000000 1.0
C      1  0.4724190000000  0.6006770000000  0.4611460000000 1.0
C      1  0.4700810000000  0.4022010000000  0.4635210000000 1.0
C      1  0.4331740000000  0.5337820000000  0.5143200000000 1.0
C      1  0.4368580000000  0.4710380000000  0.5200910000000 1.0
C      1  0.5726410000000  0.5406990000000  0.5163910000000 1.0
C      1  0.5739360000000  0.4667830000000  0.4966110000000 1.0
C      1  0.5332050000000  0.6159870000000  0.4731760000000 1.0
C      1  0.5305560000000  0.3848260000000  0.4742920000000 1.0
C      1  0.5691230000000  0.5329810000000  0.3948080000000 1.0
C      1  0.5705270000000  0.4640560000000  0.3960690000000 1.0
C      1  0.4818540000000  0.4522730000000  0.6067060000000 1.0
C      1  0.4691910000000  0.5454370000000  0.6018990000000 1.0
C      1  0.4890080000000  0.5930870000000  0.5835300000000 1.0
C      1  0.4975440000000  0.4078190000000  0.5854200000000 1.0
C      1  0.4389810000000  0.4703130000000  0.4413680000000 1.0
C      1  0.4397330000000  0.5316990000000  0.4399870000000 1.0
C      1  0.5738540000000  0.5261410000000  0.5974500000000 1.0
C      1  0.5781720000000  0.4716040000000  0.5883830000000 1.0
C      1  0.5121770000000  0.6197580000000  0.4936330000000 1.0
C      1  0.5096200000000  0.3820060000000  0.4948140000000 1.0
C      1  0.5378170000000  0.3903900000000  0.5441290000000 1.0
C      1  0.5371500000000  0.6058530000000  0.5475260000000 1.0
C      1  0.4102950000000  0.5385240000000  0.4376960000000 1.0
C      1  0.4095420000000  0.4642610000000  0.4392930000000 1.0
C      1  0.5623600000000  0.4054580000000  0.5484150000000 1.0
C      1  0.5630130000000  0.5927200000000  0.5507340000000 1.0
C      1  0.5236010000000  0.4769010000000  0.5471730000000 1.0
C      1  0.5287440000000  0.5313250000000  0.5499870000000 1.0
C      1  0.5780330000000  0.5544260000000  0.4633020000000 1.0
C      1  0.5779160000000  0.4423970000000  0.4592250000000 1.0
C      1  0.4923980000000  0.4780020000000  0.4247510000000 1.0
C      1  0.4940920000000  0.5249930000000  0.4252320000000 1.0
C      1  0.5257780000000  0.4382020000000  0.4829560000000 1.0
C      1  0.5249910000000  0.5649910000000  0.4841650000000 1.0
C      1  0.5096420000000  0.5445150000000  0.4699110000000 1.0
C      1  0.5079040000000  0.4580720000000  0.4701690000000 1.0
C      1  0.6314410000000  0.5265470000000  0.5090920000000 1.0
C      1  0.6276630000000  0.4772150000000  0.5021460000000 1.0
C      1  0.5606840000000  0.5822400000000  0.5018150000000 1.0
C      1  0.5592990000000  0.4203400000000  0.5008770000000 1.0
C      1  0.3938120000000  0.4547110000000  0.4829170000000 1.0
C      1  0.3941830000000  0.5517270000000  0.4801400000000 1.0
C      1  0.4569370000000  0.5454760000000  0.4620600000000 1.0
C      1  0.4559640000000  0.4566020000000  0.4640980000000 1.0
C      1  0.5531130000000  0.4042310000000  0.4757630000000 1.0
C      1  0.5558470000000  0.5968760000000  0.4759620000000 1.0
C      1  0.4816840000000  0.6121440000000  0.4898270000000 1.0
C      1  0.4800550000000  0.3918550000000  0.4915640000000 1.0
C      1  0.5651660000000  0.5288870000000  0.4572680000000 1.0
C      1  0.5625490000000  0.4675410000000  0.4561990000000 1.0
C      1  0.5509270000000  0.5458010000000  0.4159280000000 1.0
C      1  0.5491920000000  0.4520620000000  0.4147230000000 1.0
C      1  0.5759890000000  0.5917370000000  0.5246450000000 1.0
C      1  0.5749410000000  0.4106280000000  0.5230970000000 1.0
C      1  0.5125660000000  0.5472250000000  0.3732090000000 1.0
C      1  0.5118840000000  0.4510730000000  0.3759240000000 1.0
C      1  0.4182790000000  0.4383430000000  0.4866190000000 1.0
C      1  0.4191940000000  0.5672640000000  0.4826520000000 1.0
C      1  0.4885620000000  0.5325920000000  0.3808000000000 1.0
C      1  0.4879050000000  0.4663010000000  0.3822890000000 1.0
C      1  0.5119840000000  0.5471750000000  0.5686170000000 1.0
C      1  0.5100770000000  0.4588320000000  0.5664400000000 1.0
C      1  0.5034140000000  0.4237950000000  0.5609770000000 1.0
C      1  0.5035580000000  0.5808300000000  0.5617790000000 1.0
C      1  0.5583950000000  0.4469250000000  0.5836140000000 1.0
C      1  0.5573660000000  0.5512160000000  0.5885880000000 1.0
C      1  0.4203160000000  0.4121270000000  0.4736930000000 1.0
C      1  0.4221130000000  0.5927870000000  0.4688390000000 1.0
C      1  0.4496600000000  0.5670250000000  0.5955880000000 1.0
C      1  0.4590310000000  0.4333280000000  0.6022120000000 1.0
C      1  0.5693000000000  0.4200850000000  0.5740810000000 1.0
C      1  0.5712710000000  0.5755370000000  0.5751680000000 1.0
C      1  0.5029290000000  0.5601340000000  0.5246740000000 1.0
C      1  0.5072570000000  0.4427880000000  0.5237700000000 1.0
C      1  0.5048070000000  0.5792050000000  0.5014610000000 1.0
C      1  0.5061070000000  0.4233400000000  0.5010950000000 1.0
C      1  0.5263160000000  0.5432780000000  0.5242700000000 1.0
C      1  0.5292500000000  0.4614930000000  0.5229780000000 1.0
C      1  0.4667400000000  0.4545000000000  0.4013820000000 1.0
C      1  0.4679600000000  0.5455830000000  0.3997450000000 1.0
C      1  0.5144110000000  0.4663380000000  0.4412810000000 1.0
C      1  0.5169160000000  0.5346450000000  0.4419880000000 1.0
C      1  0.6038360000000  0.5429480000000  0.5095840000000 1.0
C      1  0.6033040000000  0.4592450000000  0.5038140000000 1.0
C      1  0.4840190000000  0.4991730000000  0.3680930000000 1.0
C      1  0.4184960000000  0.5009230000000  0.4209030000000 1.0
C      1  0.6173860000000  0.5058370000000  0.5749740000000 1.0
C      1  0.4398290000000  0.5011000000000  0.4490580000000 1.0
C      1  0.4365400000000  0.5022020000000  0.4788220000000 1.0
C      1  0.5160580000000  0.5032450000000  0.6278790000000 1.0
C      1  0.5881080000000  0.5018670000000  0.5829400000000 1.0
C      1  0.4882070000000  0.5040140000000  0.5465900000000 1.0
C      1  0.5302270000000  0.5020060000000  0.4938180000000 1.0
C      1  0.6029850000000  0.5012550000000  0.4142310000000 1.0
C      1  0.4592960000000  0.5064500000000  0.4960520000000 1.0
C      1  0.5121370000000  0.4993130000000  0.3527880000000 1.0
C      1  0.4319230000000  0.4798670000000  0.6288780000000 1.0
C      1  0.5351510000000  0.5134140000000  0.6076520000000 1.0
C      1  0.4077440000000  0.5050670000000  0.5444800000000 1.0
C      1  0.5816880000000  0.5090300000000  0.4903500000000 1.0
C      1  0.4883800000000  0.4938070000000  0.6214590000000 1.0
C      1  0.4256750000000  0.5023320000000  0.5208590000000 1.0
C      1  0.3725200000000  0.4894940000000  0.5726980000000 1.0
C      1  0.6321010000000  0.4937440000000  0.5508530000000 1.0
C      1  0.4127940000000  0.4943950000000  0.4948600000000 1.0
C      1  0.5791750000000  0.4983910000000  0.3945690000000 1.0
C      1  0.5633530000000  0.4997430000000  0.3665590000000 1.0
C      1  0.4633800000000  0.4923010000000  0.5557530000000 1.0
C      1  0.4419140000000  0.5003100000000  0.3984800000000 1.0
C      1  0.4857850000000  0.5033930000000  0.4883340000000 1.0
C      1  0.5001010000000  0.5014790000000  0.4065390000000 1.0
C      1  0.6325510000000  0.4993710000000  0.5203940000000 1.0
C      1  0.5257320000000  0.4998810000000  0.4636240000000 1.0
C      1  0.3776220000000  0.5036900000000  0.4629190000000 1.0
C      1  0.5387120000000  0.5024950000000  0.5552590000000 1.0
C      1  0.6009830000000  0.5119420000000  0.4416620000000 1.0
C      1  0.3849000000000  0.4984850000000  0.4915670000000 1.0
C      1  0.5269730000000  0.5007490000000  0.3986390000000 1.0
C      1  0.5605100000000  0.4991220000000  0.5345230000000 1.0
C      1  0.4534120000000  0.4997080000000  0.3708650000000 1.0
C      1  0.3789470000000  0.4987540000000  0.5431260000000 1.0
C      1  0.3980500000000  0.4945030000000  0.5902530000000 1.0
C      1  0.4945170000000  0.5011060000000  0.4597410000000 1.0
C      1  0.4181250000000  0.5048970000000  0.5714490000000 1.0
C      1  0.4581030000000  0.5149020000000  0.6015280000000 1.0
C      1  0.5449330000000  0.4991990000000  0.4210780000000 1.0
C      1  0.4543590000000  0.4995780000000  0.6279230000000 1.0
C      1  0.5456060000000  0.4978110000000  0.5846890000000 1.0
C      1  0.5347770000000  0.5005940000000  0.3713940000000 1.0
C      1  0.5911950000000  0.4968600000000  0.4650420000000 1.0
C      1  0.4868670000000  0.5007200000000  0.5895330000000 1.0
C      1  0.3672320000000  0.4969290000000  0.5154980000000 1.0
C      1  0.5561810000000  0.5035390000000  0.5060870000000 1.0
C      1  0.5882620000000  0.4967310000000  0.5412670000000 1.0
C      1  0.4460150000000  0.5039100000000  0.5760870000000 1.0
C      1  0.4042650000000  0.4843830000000  0.6176430000000 1.0
C      1  0.4727200000000  0.5014120000000  0.4383660000000 1.0
END
