TITL C-862132-7359-80 -1.46924606754658e-07 125000 -15.2218750216474 0 0 7 (D3h) n - 1
REM
REM in /home/nfs/bkarasulu/CARBON/AIRSS/Generating-Clusters/TERSOFF/Higher-Symm/FIRE-HFTN
REM
REM
REM
REM
REM
REM ./C.cell (b20cbc046b6831c77cfcea5457e17084)
REM AIRSS Version 0.9.1 bugfix July 2018 build 013d7b7c2542+ Fri, 06 Jul 2018 19:26:36 +0100
REM compiler GCC version 9.2.1 20190827 (Red Hat 9.2.1-1)
REM options -cpp -mtune=generic -march=x86-64 -g -O0 -fpre-include=/usr/include/finclude/math-vector-fortran.h
REM seed -961615783 750525841 1894417573 -44232648 679015023 703450418 1601956815 207340197 -1055500737 1318882057 -1364440772 -1772082945 -1391634218 708782894 1112437383 974426285 -1729365061 -1514413530 -1528212976 1504446615 -563120870 -877193268 1770680495 418831652 -655990565 1676261144 94724034 1539619428 1934953201 -1493398533 -83112147 634465284 2135326330
REM
CELL 1.54180   50.00000   50.00000   50.00000   90.00000   90.00000   90.00000
LATT -1
SFAC C  
C      1  0.5155930000000  0.5153950000000  0.5282640000000 1.0
C      1  0.4678440000000  0.5153950000000  0.5006960000000 1.0
C      1  0.5155930000000  0.4815220000000  0.5282640000000 1.0
C      1  0.4678440000000  0.4815220000000  0.5006960000000 1.0
C      1  0.5155930000000  0.5153950000000  0.4731280000000 1.0
C      1  0.5155930000000  0.4815220000000  0.4731280000000 1.0
C      1  0.4996770000000  0.4984580000000  0.5006960000000 1.0
END
