TITL C-862133-5440-525 4.48290624049608e-06 125000 -753.941895252252 0 0 125 (C3) n - 1
REM
REM in /home/nfs/bkarasulu/CARBON/AIRSS/Generating-Clusters/TERSOFF/Higher-Symm/FIRE-HFTN
REM
REM
REM
REM
REM
REM ./C.cell (b20cbc046b6831c77cfcea5457e17084)
REM AIRSS Version 0.9.1 bugfix July 2018 build 013d7b7c2542+ Fri, 06 Jul 2018 19:26:36 +0100
REM compiler GCC version 9.2.1 20190827 (Red Hat 9.2.1-1)
REM options -cpp -mtune=generic -march=x86-64 -g -O0 -fpre-include=/usr/include/finclude/math-vector-fortran.h
REM seed -1999691929 646003405 372660847 1910349963 355586253 1654389551 -2101797083 -961413236 137766927 -780161417 1259521718 -44935907 -454422428 462818408 -273067422 -1130453097 194555402 1421531427 -673790379 299577385 1808192655 1359799040 716306242 1934307117 1459773805 -1917748653 -101562528 -881475376 -1292476835 241920733 -1936600554 1428987327 -204066460
REM
CELL 1.54180   50.00000   50.00000   50.00000   90.00000   90.00000   90.00000
LATT -1
SFAC C  
C      1  0.5007360000000  0.4347390000000  0.5374870000000 1.0
C      1  0.5007360000000  0.5660310000000  0.5377780000000 1.0
C      1  0.5007360000000  0.5006360000000  0.4239300000000 1.0
C      1  0.4852180000000  0.5203070000000  0.5901210000000 1.0
C      1  0.4852180000000  0.5688290000000  0.4373560000000 1.0
C      1  0.4852180000000  0.4122700000000  0.4717180000000 1.0
C      1  0.5342810000000  0.4730330000000  0.4872920000000 1.0
C      1  0.5342810000000  0.5034130000000  0.5297120000000 1.0
C      1  0.5342810000000  0.5249600000000  0.4821920000000 1.0
C      1  0.5540030000000  0.5582940000000  0.5576740000000 1.0
C      1  0.5540030000000  0.5217350000000  0.4206830000000 1.0
C      1  0.5540030000000  0.4213770000000  0.5208390000000 1.0
C      1  0.4632650000000  0.5468960000000  0.4875750000000 1.0
C      1  0.4632650000000  0.4667270000000  0.4656030000000 1.0
C      1  0.4632650000000  0.4877830000000  0.5460170000000 1.0
C      1  0.4066690000000  0.5160610000000  0.5206420000000 1.0
C      1  0.4066700000000  0.5107810000000  0.4757730000000 1.0
C      1  0.4066700000000  0.4745640000000  0.5027800000000 1.0
C      1  0.4858490000000  0.5686420000000  0.4860880000000 1.0
C      1  0.4858490000000  0.4545660000000  0.4475140000000 1.0
C      1  0.4858490000000  0.4781980000000  0.5655940000000 1.0
C      1  0.5526170000000  0.4300810000000  0.4482830000000 1.0
C      1  0.5526170000000  0.4911060000000  0.5864130000000 1.0
C      1  0.5526170000000  0.5802180000000  0.4644990000000 1.0
C      1  0.4552830000000  0.4854860000000  0.4076250000000 1.0
C      1  0.4552830000000  0.4281930000000  0.5587600000000 1.0
C      1  0.4552830000000  0.5877270000000  0.5328100000000 1.0
C      1  0.5043960000000  0.4825130000000  0.6098510000000 1.0
C      1  0.5043960000000  0.6048120000000  0.4602220000000 1.0
C      1  0.5043960000000  0.4140800000000  0.4291220000000 1.0
C      1  0.5460400000000  0.4773880000000  0.5408560000000 1.0
C      1  0.5460400000000  0.5476240000000  0.4991580000000 1.0
C      1  0.5460400000000  0.4763940000000  0.4591810000000 1.0
C      1  0.5045760000000  0.4358600000000  0.4673030000000 1.0
C      1  0.5045760000000  0.5046890000000  0.5718990000000 1.0
C      1  0.5045760000000  0.5608570000000  0.4599930000000 1.0
C      1  0.4551430000000  0.5186260000000  0.5386860000000 1.0
C      1  0.4551430000000  0.5251260000000  0.4645300000000 1.0
C      1  0.4551430000000  0.4576540000000  0.4959790000000 1.0
C      1  0.5115130000000  0.5623670000000  0.5871420000000 1.0
C      1  0.5115130000000  0.5452190000000  0.4024220000000 1.0
C      1  0.5115130000000  0.3938200000000  0.5096320000000 1.0
C      1  0.5670090000000  0.5477290000000  0.4275700000000 1.0
C      1  0.5670090000000  0.4143440000000  0.4948840000000 1.0
C      1  0.5670090000000  0.5393320000000  0.5767410000000 1.0
C      1  0.4442680000000  0.5382210000000  0.5620550000000 1.0
C      1  0.4442680000000  0.5355660000000  0.4358750000000 1.0
C      1  0.4442680000000  0.4276180000000  0.5012650000000 1.0
C      1  0.4653680000000  0.5581570000000  0.5712410000000 1.0
C      1  0.4653680000000  0.5335530000000  0.4140180000000 1.0
C      1  0.4653680000000  0.4096960000000  0.5139370000000 1.0
C      1  0.4974530000000  0.4528980000000  0.5143350000000 1.0
C      1  0.4974530000000  0.5369000000000  0.5336280000000 1.0
C      1  0.4974530000000  0.5116070000000  0.4512330000000 1.0
C      1  0.5686250000000  0.5623190000000  0.5330240000000 1.0
C      1  0.5686250000000  0.4983750000000  0.4295210000000 1.0
C      1  0.5686250000000  0.4407110000000  0.5366500000000 1.0
C      1  0.5846850000000  0.4972140000000  0.5409960000000 1.0
C      1  0.5846850000000  0.5378320000000  0.4819180000000 1.0
C      1  0.5846850000000  0.4663590000000  0.4762810000000 1.0
C      1  0.6114980000000  0.5250630000000  0.4838690000000 1.0
C      1  0.6114980000000  0.4744340000000  0.4863640000000 1.0
C      1  0.6114980000000  0.5019090000000  0.5289630000000 1.0
C      1  0.4752530000000  0.5760290000000  0.5502360000000 1.0
C      1  0.4752530000000  0.5064260000000  0.4090420000000 1.0
C      1  0.4752530000000  0.4189510000000  0.5399170000000 1.0
C      1  0.4772560000000  0.4276570000000  0.4334650000000 1.0
C      1  0.4772560000000  0.4794860000000  0.5959220000000 1.0
C      1  0.4772560000000  0.5942630000000  0.4698080000000 1.0
C      1  0.3993530000000  0.4592550000000  0.4794840000000 1.0
C      1  0.3993530000000  0.5035400000000  0.5455470000000 1.0
C      1  0.3993530000000  0.5386100000000  0.4741640000000 1.0
C      1  0.4328360000000  0.4433460000000  0.5484640000000 1.0
C      1  0.4328360000000  0.5712330000000  0.5248360000000 1.0
C      1  0.4328360000000  0.4868270000000  0.4258960000000 1.0
C      1  0.5254870000000  0.5833990000000  0.4527810000000 1.0
C      1  0.5254870000000  0.4183430000000  0.4513870000000 1.0
C      1  0.5254870000000  0.4996640000000  0.5950270000000 1.0
C      1  0.5459740000000  0.4560740000000  0.4386290000000 1.0
C      1  0.5459740000000  0.4697490000000  0.5687300000000 1.0
C      1  0.5459740000000  0.5755820000000  0.4918370000000 1.0
C      1  0.4368590000000  0.5626740000000  0.4497090000000 1.0
C      1  0.4368590000000  0.4260450000000  0.4708720000000 1.0
C      1  0.4368590000000  0.5126870000000  0.5786150000000 1.0
C      1  0.4370380000000  0.4729650000000  0.5447860000000 1.0
C      1  0.4370380000000  0.5532380000000  0.5010230000000 1.0
C      1  0.4370380000000  0.4752020000000  0.4533860000000 1.0
C      1  0.4856370000000  0.3986320000000  0.4968570000000 1.0
C      1  0.4856370000000  0.5488970000000  0.5893620000000 1.0
C      1  0.4856370000000  0.5538770000000  0.4129760000000 1.0
C      1  0.5244790000000  0.5202740000000  0.4115540000000 1.0
C      1  0.5244790000000  0.4142010000000  0.5266680000000 1.0
C      1  0.5244790000000  0.5669300000000  0.5609730000000 1.0
C      1  0.5136440000000  0.4522350000000  0.4906070000000 1.0
C      1  0.5136440000000  0.5166830000000  0.5460660000000 1.0
C      1  0.5136440000000  0.5324880000000  0.4625220000000 1.0
C      1  0.5710360000000  0.5099040000000  0.5718200000000 1.0
C      1  0.5710360000000  0.5581810000000  0.4555160000000 1.0
C      1  0.5710360000000  0.4333200000000  0.4718590000000 1.0
C      1  0.4205200000000  0.4505130000000  0.4613250000000 1.0
C      1  0.4205200000000  0.4921850000000  0.5621980000000 1.0
C      1  0.4205200000000  0.5587070000000  0.4756730000000 1.0
C      1  0.4235590000000  0.5548540000000  0.5478170000000 1.0
C      1  0.4235590000000  0.5149190000000  0.4285900000000 1.0
C      1  0.4235590000000  0.4316330000000  0.5227880000000 1.0
C      1  0.4593890000000  0.5828240000000  0.4468530000000 1.0
C      1  0.4593890000000  0.4134970000000  0.4548490000000 1.0
C      1  0.4593890000000  0.5050850000000  0.5974930000000 1.0
C      1  0.5699390000000  0.5399050000000  0.5137200000000 1.0
C      1  0.5699390000000  0.4928640000000  0.4585840000000 1.0
C      1  0.5699390000000  0.4686360000000  0.5268910000000 1.0
C      1  0.5025020000000  0.4517050000000  0.5619910000000 1.0
C      1  0.5025020000000  0.5787680000000  0.5108330000000 1.0
C      1  0.5025020000000  0.4709330000000  0.4263720000000 1.0
C      1  0.5631550000000  0.4683580000000  0.4978180000000 1.0
C      1  0.5631550000000  0.5148670000000  0.5284970000000 1.0
C      1  0.5631550000000  0.5181810000000  0.4728800000000 1.0
C      1  0.4339110000000  0.5257940000000  0.5157660000000 1.0
C      1  0.4339110000000  0.5016920000000  0.4697830000000 1.0
C      1  0.4339110000000  0.4739200000000  0.5136470000000 1.0
C      1  0.5268020000000  0.5918460000000  0.5044830000000 1.0
C      1  0.5268020000000  0.4588950000000  0.4182210000000 1.0
C      1  0.5268020000000  0.4506650000000  0.5764910000000 1.0
C      1  0.5283600000000  0.5004690000000  0.4997320000000 1.0
C      1  0.6164790000000  0.5004690000000  0.4997320000000 1.0
END
