TITL C-862506-1665-1184 1.27556549436735e-05 125000 -12.3085327188513 0 0 4 (D(inf)h) n - 1
REM
REM in /home/nfs/bkarasulu/CARBON/AIRSS/Generating-Clusters/TERSOFF/Higher-Symm/FIRE-HFTN
REM
REM
REM
REM
REM
REM ./C.cell (b20cbc046b6831c77cfcea5457e17084)
REM AIRSS Version 0.9.1 bugfix July 2018 build 013d7b7c2542+ Fri, 06 Jul 2018 19:26:36 +0100
REM compiler GCC version 9.2.1 20190827 (Red Hat 9.2.1-1)
REM options -cpp -mtune=generic -march=x86-64 -g -O0 -fpre-include=/usr/include/finclude/math-vector-fortran.h
REM seed 639305947 -640905882 -1786540394 24048773 -194811835 -959721318 -1764835931 -428314945 -1744534018 -818124875 304941768 442743278 -273863169 -1390529000 -151359235 -1013091088 -577180990 727709369 -1952183136 613071455 9673409 -1829389641 -702530059 -2053881790 568948460 -1917885559 358558475 -780485135 -237439882 -278344109 -562383810 685040685 1260254763
REM
CELL 1.54180   50.00000   50.00000   50.00000   90.00000   90.00000   90.00000
LATT -1
SFAC C  
C      1  0.4988380000000  0.4545730000000  0.4977760000000 1.0
C      1  0.4988380000000  0.5454270000000  0.4977760000000 1.0
C      1  0.4988380000000  0.4845060000000  0.4977760000000 1.0
C      1  0.4988380000000  0.5154940000000  0.4977760000000 1.0
END
