TITL C-862506-1665-1153 5.85728319866176e-05 125000 -266.737574421791 0 0 58 (C1) n - 1
REM
REM in /home/nfs/bkarasulu/CARBON/AIRSS/Generating-Clusters/TERSOFF/Higher-Symm/FIRE-HFTN
REM
REM
REM
REM
REM
REM ./C.cell (b20cbc046b6831c77cfcea5457e17084)
REM AIRSS Version 0.9.1 bugfix July 2018 build 013d7b7c2542+ Fri, 06 Jul 2018 19:26:36 +0100
REM compiler GCC version 9.2.1 20190827 (Red Hat 9.2.1-1)
REM options -cpp -mtune=generic -march=x86-64 -g -O0 -fpre-include=/usr/include/finclude/math-vector-fortran.h
REM seed 1881209259 593554354 792075811 234286988 -1158985637 -1001695346 -251784756 -1834756592 1972808795 -1846524450 -1045800227 1202598682 -1501545105 1194366194 967676851 -532767994 -1681682363 468510641 -497616002 -642580241 -511966392 1517338302 -1423845263 1726121043 -1435872291 -2019092781 2027725893 -1897577820 -526117504 -524626120 828738028 1603745152 1012468662
REM
CELL 1.54180   50.00000   50.00000   50.00000   90.00000   90.00000   90.00000
LATT -1
SFAC C  
C      1  0.5233380000000  0.5029770000000  0.5423290000000 1.0
C      1  0.4963900000000  0.5471280000000  0.5198340000000 1.0
C      1  0.5505190000000  0.5328930000000  0.4977000000000 1.0
C      1  0.4768680000000  0.4996950000000  0.5409360000000 1.0
C      1  0.5243620000000  0.5027620000000  0.4592130000000 1.0
C      1  0.4797510000000  0.4975990000000  0.4577960000000 1.0
C      1  0.5046240000000  0.4551930000000  0.5214170000000 1.0
C      1  0.5065120000000  0.4534240000000  0.4796580000000 1.0
C      1  0.4963730000000  0.5476580000000  0.4780000000000 1.0
C      1  0.4517980000000  0.4685730000000  0.4960440000000 1.0
C      1  0.5555740000000  0.4785090000000  0.5044600000000 1.0
C      1  0.4464320000000  0.5231180000000  0.5011630000000 1.0
C      1  0.4974630000000  0.5236320000000  0.5409160000000 1.0
C      1  0.5475860000000  0.5060740000000  0.5222500000000 1.0
C      1  0.5233970000000  0.5554030000000  0.4969640000000 1.0
C      1  0.5025890000000  0.4790160000000  0.5421340000000 1.0
C      1  0.5004120000000  0.5233410000000  0.4581860000000 1.0
C      1  0.5036820000000  0.4768550000000  0.4586150000000 1.0
C      1  0.4533620000000  0.4958980000000  0.5201410000000 1.0
C      1  0.4557300000000  0.4963530000000  0.4783700000000 1.0
C      1  0.5476610000000  0.5046240000000  0.4804390000000 1.0
C      1  0.4787580000000  0.4462260000000  0.4974660000000 1.0
C      1  0.4687780000000  0.5502790000000  0.5017140000000 1.0
C      1  0.5330480000000  0.4515580000000  0.5046000000000 1.0
C      1  0.5645880000000  0.4919530000000  0.4539310000000 1.0
C      1  0.4917370000000  0.4626750000000  0.5699860000000 1.0
C      1  0.4554600000000  0.5543410000000  0.4714760000000 1.0
C      1  0.4395200000000  0.5074560000000  0.4510180000000 1.0
C      1  0.5584430000000  0.5249620000000  0.5491270000000 1.0
C      1  0.4421810000000  0.4768420000000  0.5469950000000 1.0
C      1  0.5085440000000  0.5395600000000  0.5679700000000 1.0
C      1  0.4833550000000  0.5325150000000  0.4315990000000 1.0
C      1  0.5210690000000  0.4655150000000  0.4326220000000 1.0
C      1  0.5474570000000  0.4455250000000  0.4749670000000 1.0
C      1  0.4689620000000  0.4343280000000  0.5288040000000 1.0
C      1  0.5322490000000  0.5672190000000  0.5283210000000 1.0
C      1  0.4776290000000  0.5577530000000  0.4505100000000 1.0
C      1  0.4666520000000  0.4823700000000  0.5669630000000 1.0
C      1  0.5678240000000  0.4684610000000  0.4735690000000 1.0
C      1  0.5257040000000  0.4414940000000  0.4534540000000 1.0
C      1  0.5080180000000  0.5638100000000  0.5470070000000 1.0
C      1  0.4924810000000  0.4387210000000  0.5481270000000 1.0
C      1  0.5336220000000  0.5201030000000  0.5689290000000 1.0
C      1  0.5405360000000  0.4906040000000  0.4327700000000 1.0
C      1  0.4636800000000  0.5073320000000  0.4293830000000 1.0
C      1  0.4349680000000  0.5317040000000  0.4693740000000 1.0
C      1  0.4464730000000  0.4549100000000  0.5259340000000 1.0
C      1  0.5552940000000  0.5469580000000  0.5277230000000 1.0
C      1  0.5302230000000  0.5810690000000  0.4814820000000 1.0
C      1  0.5810740000000  0.4722580000000  0.5204520000000 1.0
C      1  0.5069620000000  0.4611830000000  0.5946520000000 1.0
C      1  0.4727140000000  0.4201780000000  0.4822190000000 1.0
C      1  0.4202360000000  0.5297310000000  0.5159140000000 1.0
C      1  0.4624200000000  0.4911390000000  0.4053280000000 1.0
C      1  0.5753880000000  0.5435840000000  0.4835260000000 1.0
C      1  0.5435060000000  0.4272650000000  0.5199030000000 1.0
C      1  0.4575420000000  0.5750810000000  0.5154700000000 1.0
C      1  0.4275680000000  0.4575380000000  0.4811510000000 1.0
END
