TITL C-862131-2149-50 -6.20961446162102e-05 125000 -548.608935780225 0 0 106 (C5) n - 1
REM
REM in /home/nfs/bkarasulu/CARBON/AIRSS/Generating-Clusters/TERSOFF/Higher-Symm/FIRE-HFTN
REM
REM
REM
REM
REM
REM ./C.cell (b20cbc046b6831c77cfcea5457e17084)
REM AIRSS Version 0.9.1 bugfix July 2018 build 013d7b7c2542+ Fri, 06 Jul 2018 19:26:36 +0100
REM compiler GCC version 9.2.1 20190827 (Red Hat 9.2.1-1)
REM options -cpp -mtune=generic -march=x86-64 -g -O0 -fpre-include=/usr/include/finclude/math-vector-fortran.h
REM seed -584535624 -631310737 -1548970213 -1945754797 -1358456699 -1398606425 -1664417866 -590064405 -2047150882 1241982087 1307316687 -684029293 1387835534 2098612948 380589996 -1374821500 49550042 1299944401 1583281619 -552520154 -1761691870 991701320 375693392 -1994037490 454539719 79578262 -518466983 -2040758357 -2010237051 -1909722656 -769235605 -1644031834 -1349820971
REM
CELL 1.54180   50.00000   50.00000   50.00000   90.00000   90.00000   90.00000
LATT -1
SFAC C  
C      1  0.5530530000000  0.4930460000000  0.5436730000000 1.0
C      1  0.5226840000000  0.5480220000000  0.5436730000000 1.0
C      1  0.4610150000000  0.5361270000000  0.5436730000000 1.0
C      1  0.4532710000000  0.4738000000000  0.5436730000000 1.0
C      1  0.5101540000000  0.4471750000000  0.5436730000000 1.0
C      1  0.4422280000000  0.4332950000000  0.5447640000000 1.0
C      1  0.5452640000000  0.4241560000000  0.5447640000000 1.0
C      1  0.5857950000000  0.5193250000000  0.5447640000000 1.0
C      1  0.5078100000000  0.5872820000000  0.5447640000000 1.0
C      1  0.4190800000000  0.5341120000000  0.5447630000000 1.0
C      1  0.5375930000000  0.4077820000000  0.4966170000000 1.0
C      1  0.5989980000000  0.5069700000000  0.4966170000000 1.0
C      1  0.5236400000000  0.5960200000000  0.4966170000000 1.0
C      1  0.4156610000000  0.5518680000000  0.4966170000000 1.0
C      1  0.4242850000000  0.4355300000000  0.4966170000000 1.0
C      1  0.5173350000000  0.4769630000000  0.5736430000000 1.0
C      1  0.5269420000000  0.5090810000000  0.5736430000000 1.0
C      1  0.4993650000000  0.5281440000000  0.5736430000000 1.0
C      1  0.4727140000000  0.5078070000000  0.5736430000000 1.0
C      1  0.4838200000000  0.4761750000000  0.5736430000000 1.0
C      1  0.5705970000000  0.5615840000000  0.5215080000000 1.0
C      1  0.4629220000000  0.5858850000000  0.5215080000000 1.0
C      1  0.4065370000000  0.4909910000000  0.5215080000000 1.0
C      1  0.4793630000000  0.4080410000000  0.5215080000000 1.0
C      1  0.5807580000000  0.4516700000000  0.5215080000000 1.0
C      1  0.4275840000000  0.4912450000000  0.5455320000000 1.0
C      1  0.4856250000000  0.4281370000000  0.5455330000000 1.0
C      1  0.5635800000000  0.4638350000000  0.5455330000000 1.0
C      1  0.5537190000000  0.5490070000000  0.5455330000000 1.0
C      1  0.4696680000000  0.5659470000000  0.5455320000000 1.0
C      1  0.5091550000000  0.4749400000000  0.4221460000000 1.0
C      1  0.5263390000000  0.5006770000000  0.4221460000000 1.0
C      1  0.5071720000000  0.5249730000000  0.4221460000000 1.0
C      1  0.4781430000000  0.5142510000000  0.4221460000000 1.0
C      1  0.4793680000000  0.4833300000000  0.4221460000000 1.0
C      1  0.5525490000000  0.5254300000000  0.5074360000000 1.0
C      1  0.4917300000000  0.5575490000000  0.5074360000000 1.0
C      1  0.4423890000000  0.5096310000000  0.5074360000000 1.0
C      1  0.4727130000000  0.4478980000000  0.5074360000000 1.0
C      1  0.5407960000000  0.4576620000000  0.5074360000000 1.0
C      1  0.4284310000000  0.4600960000000  0.4502880000000 1.0
C      1  0.5155120000000  0.4193160000000  0.4502880000000 1.0
C      1  0.5812050000000  0.4895330000000  0.4502880000000 1.0
C      1  0.5347250000000  0.5737090000000  0.4502880000000 1.0
C      1  0.4403050000000  0.5555160000000  0.4502880000000 1.0
C      1  0.5257510000000  0.5495470000000  0.5087860000000 1.0
C      1  0.4605120000000  0.5395150000000  0.5087860000000 1.0
C      1  0.4498930000000  0.4743690000000  0.5087860000000 1.0
C      1  0.5085690000000  0.4441380000000  0.5087860000000 1.0
C      1  0.5554520000000  0.4906010000000  0.5087860000000 1.0
C      1  0.4764430000000  0.4877150000000  0.4948480000000 1.0
C      1  0.5040810000000  0.4735130000000  0.4948480000000 1.0
C      1  0.5261280000000  0.4954090000000  0.4948480000000 1.0
C      1  0.5121170000000  0.5231440000000  0.4948480000000 1.0
C      1  0.4814090000000  0.5183890000000  0.4948480000000 1.0
C      1  0.5192460000000  0.4491620000000  0.4399480000000 1.0
C      1  0.5539740000000  0.5023070000000  0.4399480000000 1.0
C      1  0.5141610000000  0.5517580000000  0.4399480000000 1.0
C      1  0.4548270000000  0.5291760000000  0.4399470000000 1.0
C      1  0.4579700000000  0.4657670000000  0.4399470000000 1.0
C      1  0.4986140000000  0.4685330000000  0.4622790000000 1.0
C      1  0.5291750000000  0.4886710000000  0.4622790000000 1.0
C      1  0.5194660000000  0.5239590000000  0.4622790000000 1.0
C      1  0.4829050000000  0.5256310000000  0.4622790000000 1.0
C      1  0.4700180000000  0.4913760000000  0.4622790000000 1.0
C      1  0.5651210000000  0.5310970000000  0.4387370000000 1.0
C      1  0.4902250000000  0.5712560000000  0.4387370000000 1.0
C      1  0.4288870000000  0.5124360000000  0.4387370000000 1.0
C      1  0.4658740000000  0.4359240000000  0.4387370000000 1.0
C      1  0.5500710000000  0.4474570000000  0.4387370000000 1.0
C      1  0.4798520000000  0.5829400000000  0.4657610000000 1.0
C      1  0.4145690000000  0.5061820000000  0.4657610000000 1.0
C      1  0.4673980000000  0.4203740000000  0.4657610000000 1.0
C      1  0.5653300000000  0.4441010000000  0.4657610000000 1.0
C      1  0.5730280000000  0.5445720000000  0.4657610000000 1.0
C      1  0.5383730000000  0.4494130000000  0.5632980000000 1.0
C      1  0.5596450000000  0.5205770000000  0.5632980000000 1.0
C      1  0.4985380000000  0.5627980000000  0.5632980000000 1.0
C      1  0.4395000000000  0.5177290000000  0.5632980000000 1.0
C      1  0.4641200000000  0.4476530000000  0.5632980000000 1.0
C      1  0.4573570000000  0.5810640000000  0.4902710000000 1.0
C      1  0.4094020000000  0.4842080000000  0.4902710000000 1.0
C      1  0.4867000000000  0.4086700000000  0.4902710000000 1.0
C      1  0.5824270000000  0.4588410000000  0.4902720000000 1.0
C      1  0.5642920000000  0.5653870000000  0.4902710000000 1.0
C      1  0.5139900000000  0.4108050000000  0.4793570000000 1.0
C      1  0.5888290000000  0.4854560000000  0.4793570000000 1.0
C      1  0.5409590000000  0.5797000000000  0.4793570000000 1.0
C      1  0.4365340000000  0.5632960000000  0.4793570000000 1.0
C      1  0.4198660000000  0.4589130000000  0.4793570000000 1.0
C      1  0.5466430000000  0.4279370000000  0.5157690000000 1.0
C      1  0.5826260000000  0.5218050000000  0.5157690000000 1.0
C      1  0.5044720000000  0.5850330000000  0.5157690000000 1.0
C      1  0.4201870000000  0.5302430000000  0.5157690000000 1.0
C      1  0.4462500000000  0.4331520000000  0.5157690000000 1.0
C      1  0.4649480000000  0.5052220000000  0.5324650000000 1.0
C      1  0.4838780000000  0.4679910000000  0.5324650000000 1.0
C      1  0.5251370000000  0.4744900000000  0.5324650000000 1.0
C      1  0.5317060000000  0.5157370000000  0.5324650000000 1.0
C      1  0.4945070000000  0.5347310000000  0.5324650000000 1.0
C      1  0.5501630000000  0.5278750000000  0.4778140000000 1.0
C      1  0.4886670000000  0.5560350000000  0.4778140000000 1.0
C      1  0.4428820000000  0.5062510000000  0.4778140000000 1.0
C      1  0.4760810000000  0.4473230000000  0.4778140000000 1.0
C      1  0.5423840000000  0.4606870000000  0.4778140000000 1.0
C      1  0.5000350000000  0.4996340000000  0.5274430000000 1.0
END
