TITL C-862128-1543-70 -0.00223592567268468 125000 -355.701542221477 0 0 65 (C1) n - 1
REM
REM in /home/nfs/bkarasulu/CARBON/AIRSS/Generating-Clusters/TERSOFF/Higher-Symm/FIRE-HFTN
REM
REM
REM
REM
REM
REM ./C.cell (b20cbc046b6831c77cfcea5457e17084)
REM AIRSS Version 0.9.1 bugfix July 2018 build 013d7b7c2542+ Fri, 06 Jul 2018 19:26:36 +0100
REM compiler GCC version 9.2.1 20190827 (Red Hat 9.2.1-1)
REM options -cpp -mtune=generic -march=x86-64 -g -O0 -fpre-include=/usr/include/finclude/math-vector-fortran.h
REM seed 1744304499 -580778420 1236418963 6917695 1581983783 1895101833 -57081154 -348754519 1709137348 1970715694 -1059889362 -56614455 -719555335 118716359 1395451114 -2055499969 322575123 -374340291 -21122446 -48873624 1027600138 -1930593431 288770532 1554899171 -1165502249 -1588188069 96086176 730057876 1351060012 -1057633361 -1102951793 981312192 2026316458
REM
CELL 1.54180   50.00000   50.00000   50.00000   90.00000   90.00000   90.00000
LATT -1
SFAC C  
C      1  0.5347830000000  0.4920840000000  0.4782310000000 1.0
C      1  0.5109120000000  0.5179940000000  0.4830660000000 1.0
C      1  0.5285000000000  0.5189240000000  0.5118500000000 1.0
C      1  0.5092620000000  0.4939510000000  0.5246330000000 1.0
C      1  0.5301550000000  0.4772420000000  0.5064530000000 1.0
C      1  0.4684460000000  0.4798220000000  0.4766590000000 1.0
C      1  0.4752160000000  0.5153840000000  0.4781470000000 1.0
C      1  0.4683840000000  0.5285750000000  0.5086200000000 1.0
C      1  0.4735450000000  0.4983810000000  0.5279370000000 1.0
C      1  0.4654670000000  0.4698200000000  0.5111250000000 1.0
C      1  0.4150620000000  0.4801320000000  0.5161490000000 1.0
C      1  0.4164900000000  0.4784770000000  0.4862760000000 1.0
C      1  0.4189780000000  0.5063070000000  0.4760280000000 1.0
C      1  0.4172110000000  0.5249160000000  0.4991820000000 1.0
C      1  0.4178290000000  0.5087720000000  0.5239420000000 1.0
C      1  0.5827220000000  0.4846330000000  0.5166740000000 1.0
C      1  0.5866100000000  0.4772450000000  0.4878570000000 1.0
C      1  0.5908540000000  0.5020940000000  0.4722650000000 1.0
C      1  0.5828170000000  0.5219780000000  0.4937880000000 1.0
C      1  0.5890200000000  0.5139250000000  0.5216200000000 1.0
C      1  0.4814280000000  0.4603940000000  0.5659380000000 1.0
C      1  0.4840410000000  0.4287060000000  0.4820870000000 1.0
C      1  0.4877170000000  0.4934520000000  0.4235810000000 1.0
C      1  0.4833070000000  0.5691950000000  0.4717410000000 1.0
C      1  0.4870690000000  0.5502300000000  0.5583620000000 1.0
C      1  0.5048770000000  0.4532380000000  0.5501100000000 1.0
C      1  0.5073480000000  0.4438390000000  0.4737990000000 1.0
C      1  0.5093900000000  0.5093520000000  0.4342060000000 1.0
C      1  0.5070040000000  0.5654930000000  0.4887090000000 1.0
C      1  0.5086540000000  0.5310270000000  0.5585970000000 1.0
C      1  0.5605890000000  0.4668960000000  0.4794750000000 1.0
C      1  0.5791390000000  0.5027240000000  0.4448920000000 1.0
C      1  0.5558340000000  0.5311650000000  0.4917900000000 1.0
C      1  0.5771540000000  0.5295830000000  0.5437750000000 1.0
C      1  0.5562200000000  0.4765750000000  0.5256170000000 1.0
C      1  0.4398840000000  0.4623150000000  0.4787240000000 1.0
C      1  0.4441670000000  0.5096920000000  0.4601210000000 1.0
C      1  0.4412980000000  0.5408770000000  0.4959030000000 1.0
C      1  0.4430570000000  0.5148230000000  0.5390170000000 1.0
C      1  0.4388430000000  0.4685350000000  0.5286470000000 1.0
C      1  0.4751470000000  0.5563400000000  0.5305530000000 1.0
C      1  0.4714540000000  0.4901970000000  0.5632800000000 1.0
C      1  0.4724730000000  0.4354700000000  0.5103090000000 1.0
C      1  0.4760300000000  0.4717840000000  0.4422720000000 1.0
C      1  0.4729630000000  0.5439140000000  0.4554910000000 1.0
C      1  0.5261360000000  0.5400430000000  0.5335420000000 1.0
C      1  0.5193820000000  0.4801590000000  0.5520570000000 1.0
C      1  0.5218110000000  0.4482720000000  0.5002970000000 1.0
C      1  0.5279280000000  0.4879640000000  0.4484510000000 1.0
C      1  0.5198180000000  0.5452050000000  0.4699360000000 1.0
C      1  0.4457200000000  0.5506940000000  0.4690240000000 1.0
C      1  0.4487340000000  0.5433010000000  0.5426860000000 1.0
C      1  0.4439110000000  0.4765150000000  0.5561710000000 1.0
C      1  0.4447540000000  0.4375890000000  0.4939590000000 1.0
C      1  0.4494720000000  0.4889110000000  0.4403150000000 1.0
C      1  0.5481780000000  0.5466460000000  0.4689900000000 1.0
C      1  0.5541190000000  0.5482790000000  0.5409610000000 1.0
C      1  0.5483080000000  0.4787380000000  0.5533140000000 1.0
C      1  0.5503780000000  0.4422740000000  0.4923730000000 1.0
C      1  0.5556030000000  0.4865180000000  0.4360080000000 1.0
C      1  0.5047730000000  0.5595290000000  0.5181450000000 1.0
C      1  0.5059230000000  0.4641060000000  0.4519610000000 1.0
C      1  0.5025330000000  0.5024430000000  0.5652040000000 1.0
C      1  0.5032780000000  0.5361070000000  0.4459520000000 1.0
C      1  0.5021900000000  0.4402340000000  0.5231580000000 1.0
END
