TITL C-862130-1496-657 1.11707852170317 125000 -1112.76366573713 0 0 191 (C1) n - 1
REM
REM in /home/nfs/bkarasulu/CARBON/AIRSS/Generating-Clusters/TERSOFF/Higher-Symm/FIRE-HFTN
REM
REM
REM
REM
REM
REM ./C.cell (b20cbc046b6831c77cfcea5457e17084)
REM AIRSS Version 0.9.1 bugfix July 2018 build 013d7b7c2542+ Fri, 06 Jul 2018 19:26:36 +0100
REM compiler GCC version 9.2.1 20190827 (Red Hat 9.2.1-1)
REM options -cpp -mtune=generic -march=x86-64 -g -O0 -fpre-include=/usr/include/finclude/math-vector-fortran.h
REM seed 2067355741 1418214880 -1587026886 -2107949105 1514240986 309367112 684882179 1349110165 -1608491844 235438516 -1551984809 419986431 -1489832447 948480101 -806045690 1861710083 220800141 789918659 1241726250 -1371971655 -1415573566 231617872 583611349 680323838 -1823827221 -1512542977 -1318358595 1059369900 448383954 -1670106859 -1824625354 1459054460 1393572827
REM
CELL 1.54180   50.00000   50.00000   50.00000   90.00000   90.00000   90.00000
LATT -1
SFAC C  
C      1  0.4560650000000  0.4845790000000  0.4662440000000 1.0
C      1  0.5331820000000  0.5332860000000  0.5355320000000 1.0
C      1  0.4687320000000  0.5461690000000  0.5141440000000 1.0
C      1  0.5340300000000  0.4478140000000  0.4788390000000 1.0
C      1  0.5736430000000  0.4472860000000  0.4154440000000 1.0
C      1  0.4249170000000  0.5481830000000  0.5882870000000 1.0
C      1  0.4706020000000  0.5646050000000  0.6053720000000 1.0
C      1  0.5285410000000  0.4327790000000  0.3934790000000 1.0
C      1  0.5447070000000  0.4360450000000  0.4184110000000 1.0
C      1  0.4529010000000  0.5595750000000  0.5818980000000 1.0
C      1  0.5628850000000  0.5006950000000  0.4812900000000 1.0
C      1  0.4289900000000  0.4992390000000  0.5238430000000 1.0
C      1  0.4947320000000  0.6033100000000  0.4224030000000 1.0
C      1  0.5189600000000  0.3947820000000  0.5645370000000 1.0
C      1  0.5467730000000  0.4136980000000  0.4380880000000 1.0
C      1  0.4483480000000  0.5802620000000  0.5610100000000 1.0
C      1  0.5155970000000  0.4206800000000  0.5307050000000 1.0
C      1  0.4786260000000  0.6089940000000  0.4607540000000 1.0
C      1  0.3858220000000  0.5533440000000  0.5226720000000 1.0
C      1  0.6105650000000  0.4293560000000  0.4807630000000 1.0
C      1  0.4609820000000  0.4750400000000  0.5604940000000 1.0
C      1  0.5389920000000  0.5228850000000  0.4403190000000 1.0
C      1  0.4895510000000  0.4536040000000  0.4429880000000 1.0
C      1  0.5106610000000  0.5423900000000  0.5525870000000 1.0
C      1  0.4678440000000  0.4327120000000  0.5921400000000 1.0
C      1  0.5421780000000  0.5708500000000  0.4235760000000 1.0
C      1  0.4448830000000  0.4108570000000  0.5327540000000 1.0
C      1  0.5545030000000  0.6111620000000  0.4812510000000 1.0
C      1  0.4919690000000  0.5131200000000  0.4487870000000 1.0
C      1  0.5087690000000  0.4878000000000  0.5518730000000 1.0
C      1  0.5899790000000  0.5486670000000  0.4841660000000 1.0
C      1  0.4098340000000  0.4501390000000  0.5173790000000 1.0
C      1  0.4940200000000  0.3835270000000  0.5549420000000 1.0
C      1  0.5183410000000  0.6173570000000  0.4328150000000 1.0
C      1  0.5049470000000  0.6074510000000  0.4742730000000 1.0
C      1  0.4882500000000  0.4122740000000  0.5248900000000 1.0
C      1  0.5765760000000  0.4836710000000  0.5842430000000 1.0
C      1  0.4255500000000  0.5197070000000  0.4141510000000 1.0
C      1  0.4561010000000  0.4024480000000  0.4467960000000 1.0
C      1  0.5356750000000  0.5998780000000  0.5443490000000 1.0
C      1  0.5305490000000  0.6092610000000  0.5173660000000 1.0
C      1  0.4592770000000  0.3886350000000  0.4863060000000 1.0
C      1  0.4813950000000  0.4859010000000  0.4102960000000 1.0
C      1  0.5190710000000  0.5157150000000  0.5874670000000 1.0
C      1  0.4593420000000  0.5585880000000  0.4324100000000 1.0
C      1  0.5451510000000  0.4431600000000  0.5626750000000 1.0
C      1  0.4620930000000  0.5149460000000  0.6216280000000 1.0
C      1  0.5400390000000  0.4826420000000  0.3800120000000 1.0
C      1  0.5394310000000  0.4033780000000  0.5267360000000 1.0
C      1  0.4528970000000  0.6065880000000  0.4746980000000 1.0
C      1  0.4974480000000  0.5763490000000  0.5981220000000 1.0
C      1  0.5006470000000  0.4215900000000  0.3984280000000 1.0
C      1  0.4808730000000  0.5702100000000  0.5275890000000 1.0
C      1  0.5178740000000  0.4244530000000  0.4681050000000 1.0
C      1  0.5913690000000  0.4524060000000  0.4387730000000 1.0
C      1  0.4052020000000  0.5415390000000  0.5673850000000 1.0
C      1  0.4987870000000  0.5868460000000  0.5711680000000 1.0
C      1  0.4984910000000  0.4089510000000  0.4247290000000 1.0
C      1  0.5371390000000  0.5393930000000  0.4941820000000 1.0
C      1  0.4617200000000  0.4704720000000  0.5070880000000 1.0
C      1  0.4697590000000  0.4027260000000  0.5484560000000 1.0
C      1  0.5312840000000  0.6077120000000  0.4590960000000 1.0
C      1  0.5891630000000  0.5073560000000  0.4916690000000 1.0
C      1  0.4037420000000  0.4911000000000  0.5104140000000 1.0
C      1  0.5225510000000  0.5469890000000  0.4520230000000 1.0
C      1  0.4779300000000  0.4507940000000  0.5469520000000 1.0
C      1  0.5217410000000  0.4227920000000  0.5721420000000 1.0
C      1  0.4857840000000  0.5773310000000  0.4339490000000 1.0
C      1  0.5522950000000  0.4445250000000  0.5021670000000 1.0
C      1  0.4507670000000  0.5503350000000  0.4906320000000 1.0
C      1  0.4264660000000  0.5873160000000  0.4631060000000 1.0
C      1  0.5731580000000  0.4143560000000  0.5332940000000 1.0
C      1  0.4451460000000  0.4230120000000  0.5058260000000 1.0
C      1  0.5635040000000  0.5892490000000  0.5007330000000 1.0
C      1  0.4647480000000  0.4074330000000  0.5785530000000 1.0
C      1  0.5448730000000  0.5824890000000  0.4497950000000 1.0
C      1  0.5900880000000  0.5878880000000  0.5183220000000 1.0
C      1  0.4283890000000  0.4070060000000  0.4832890000000 1.0
C      1  0.4618200000000  0.5404080000000  0.4592720000000 1.0
C      1  0.5394200000000  0.4550910000000  0.5342030000000 1.0
C      1  0.4764100000000  0.4376940000000  0.3905330000000 1.0
C      1  0.5229320000000  0.5635160000000  0.6070030000000 1.0
C      1  0.4376230000000  0.5062680000000  0.6033590000000 1.0
C      1  0.5628610000000  0.4894450000000  0.4008410000000 1.0
C      1  0.5308990000000  0.4768650000000  0.4681940000000 1.0
C      1  0.4734520000000  0.5161920000000  0.5228260000000 1.0
C      1  0.5454820000000  0.5279450000000  0.5812850000000 1.0
C      1  0.4543840000000  0.4752590000000  0.4154630000000 1.0
C      1  0.5407860000000  0.5111150000000  0.4973420000000 1.0
C      1  0.4543060000000  0.4981230000000  0.5102280000000 1.0
C      1  0.5902510000000  0.4314610000000  0.4593840000000 1.0
C      1  0.4051390000000  0.5586930000000  0.5439770000000 1.0
C      1  0.6041070000000  0.4793180000000  0.4441600000000 1.0
C      1  0.3918030000000  0.5149780000000  0.5659280000000 1.0
C      1  0.5015110000000  0.4285880000000  0.4458370000000 1.0
C      1  0.4977010000000  0.5670580000000  0.5496750000000 1.0
C      1  0.5705120000000  0.4687700000000  0.5095250000000 1.0
C      1  0.4295920000000  0.5287270000000  0.4834970000000 1.0
C      1  0.4872270000000  0.4756460000000  0.6019240000000 1.0
C      1  0.5156620000000  0.5237720000000  0.3963860000000 1.0
C      1  0.5346350000000  0.4537840000000  0.3733090000000 1.0
C      1  0.4666600000000  0.5442810000000  0.6267920000000 1.0
C      1  0.5512100000000  0.4845700000000  0.5281700000000 1.0
C      1  0.4450460000000  0.5117200000000  0.4618450000000 1.0
C      1  0.5973260000000  0.4603330000000  0.5215970000000 1.0
C      1  0.4030000000000  0.5417210000000  0.4747450000000 1.0
C      1  0.5339770000000  0.4623290000000  0.4289300000000 1.0
C      1  0.4638060000000  0.5334690000000  0.5716680000000 1.0
C      1  0.4948350000000  0.5197640000000  0.4806120000000 1.0
C      1  0.5074850000000  0.4793760000000  0.5218690000000 1.0
C      1  0.4824710000000  0.4598210000000  0.3716410000000 1.0
C      1  0.5189980000000  0.5411050000000  0.6261490000000 1.0
C      1  0.5773700000000  0.5395440000000  0.4098380000000 1.0
C      1  0.4249940000000  0.4564300000000  0.5924090000000 1.0
C      1  0.5133010000000  0.5450310000000  0.4792070000000 1.0
C      1  0.4852720000000  0.4604390000000  0.5200850000000 1.0
C      1  0.5124050000000  0.5145020000000  0.6155650000000 1.0
C      1  0.4895500000000  0.4861070000000  0.3824600000000 1.0
C      1  0.4166230000000  0.4435470000000  0.4246720000000 1.0
C      1  0.5838170000000  0.5603100000000  0.5743810000000 1.0
C      1  0.5608460000000  0.5022180000000  0.4511870000000 1.0
C      1  0.4334810000000  0.4939880000000  0.5530180000000 1.0
C      1  0.5985230000000  0.5368210000000  0.4555120000000 1.0
C      1  0.4008270000000  0.4586240000000  0.5474310000000 1.0
C      1  0.5495070000000  0.5432960000000  0.4180320000000 1.0
C      1  0.4530950000000  0.4566000000000  0.5856820000000 1.0
C      1  0.4133600000000  0.5595160000000  0.4520200000000 1.0
C      1  0.5878520000000  0.4408920000000  0.5434900000000 1.0
C      1  0.4117730000000  0.4711880000000  0.4637270000000 1.0
C      1  0.5847120000000  0.5329180000000  0.5358990000000 1.0
C      1  0.5607510000000  0.5578980000000  0.4966720000000 1.0
C      1  0.4397440000000  0.4521190000000  0.5013230000000 1.0
C      1  0.4767020000000  0.3914710000000  0.4304200000000 1.0
C      1  0.5173070000000  0.6074380000000  0.5649600000000 1.0
C      1  0.4805010000000  0.5962220000000  0.5151550000000 1.0
C      1  0.5125860000000  0.4007230000000  0.4842030000000 1.0
C      1  0.5585170000000  0.5497100000000  0.5288160000000 1.0
C      1  0.4389800000000  0.4592420000000  0.4710460000000 1.0
C      1  0.5699110000000  0.4205350000000  0.5035780000000 1.0
C      1  0.4319510000000  0.5737990000000  0.4904820000000 1.0
C      1  0.6056090000000  0.4868260000000  0.5323030000000 1.0
C      1  0.3891450000000  0.5160700000000  0.4693340000000 1.0
C      1  0.5631940000000  0.3985900000000  0.4847950000000 1.0
C      1  0.4306240000000  0.5907400000000  0.5146240000000 1.0
C      1  0.4158570000000  0.4841910000000  0.5971530000000 1.0
C      1  0.5839440000000  0.5105830000000  0.4093010000000 1.0
C      1  0.4270210000000  0.5786370000000  0.5406570000000 1.0
C      1  0.5678500000000  0.4116790000000  0.4586030000000 1.0
C      1  0.5485380000000  0.5596280000000  0.5819940000000 1.0
C      1  0.4514050000000  0.4448560000000  0.4150730000000 1.0
C      1  0.5369710000000  0.3913740000000  0.4984530000000 1.0
C      1  0.4547860000000  0.6059440000000  0.5049460000000 1.0
C      1  0.4093080000000  0.4723230000000  0.4342400000000 1.0
C      1  0.5902860000000  0.5322070000000  0.5645910000000 1.0
C      1  0.5900410000000  0.5061670000000  0.4409260000000 1.0
C      1  0.4062600000000  0.4886630000000  0.5665260000000 1.0
C      1  0.4857190000000  0.3998160000000  0.4982580000000 1.0
C      1  0.5052490000000  0.6056300000000  0.5027280000000 1.0
C      1  0.5951920000000  0.5524830000000  0.4298770000000 1.0
C      1  0.4085470000000  0.4426830000000  0.5721300000000 1.0
C      1  0.4187780000000  0.4208680000000  0.4523600000000 1.0
C      1  0.5852250000000  0.5837840000000  0.5496060000000 1.0
C      1  0.6165250000000  0.4498500000000  0.5010410000000 1.0
C      1  0.3897740000000  0.5596100000000  0.4947020000000 1.0
C      1  0.4953190000000  0.5239580000000  0.5690780000000 1.0
C      1  0.5031700000000  0.4746830000000  0.4288840000000 1.0
C      1  0.5531490000000  0.4756880000000  0.6008880000000 1.0
C      1  0.4480780000000  0.5264400000000  0.3956000000000 1.0
C      1  0.4950640000000  0.5306340000000  0.4173130000000 1.0
C      1  0.5069440000000  0.4700540000000  0.5795550000000 1.0
C      1  0.4995200000000  0.4439660000000  0.5670050000000 1.0
C      1  0.5042990000000  0.5547740000000  0.4319090000000 1.0
C      1  0.5341030000000  0.4604400000000  0.5860530000000 1.0
C      1  0.4687920000000  0.5418290000000  0.4084330000000 1.0
C      1  0.4872810000000  0.4996060000000  0.6186050000000 1.0
C      1  0.5156540000000  0.4994520000000  0.3804630000000 1.0
C      1  0.4443800000000  0.5128630000000  0.5754330000000 1.0
C      1  0.5541520000000  0.4822610000000  0.4281030000000 1.0
C      1  0.5709400000000  0.5128650000000  0.5762000000000 1.0
C      1  0.4300920000000  0.4909840000000  0.4227680000000 1.0
C      1  0.4823340000000  0.5024700000000  0.5503250000000 1.0
C      1  0.5173770000000  0.4964840000000  0.4467230000000 1.0
C      1  0.3990950000000  0.4913750000000  0.4810950000000 1.0
C      1  0.5954260000000  0.5106920000000  0.5196310000000 1.0
C      1  0.6062630000000  0.5676260000000  0.5020550000000 1.0
C      1  0.4032560000000  0.4223520000000  0.5036450000000 1.0
C      1  0.5745450000000  0.4531760000000  0.5675750000000 1.0
C      1  0.4298850000000  0.5474310000000  0.4310900000000 1.0
C      1  0.5535520000000  0.5761700000000  0.5501230000000 1.0
C      1  0.4495500000000  0.4333060000000  0.4483880000000 1.0
C      1  0.5138080000000  0.4987950000000  0.4993720000000 1.0
END
