TITL C-862500-986-59 0.104442283318635 125000 -1088.39402185351 0 0 188 (C1) n - 1
REM
REM in /home/nfs/bkarasulu/CARBON/AIRSS/Generating-Clusters/TERSOFF/Higher-Symm/FIRE-HFTN
REM
REM
REM
REM
REM
REM ./C.cell (b20cbc046b6831c77cfcea5457e17084)
REM AIRSS Version 0.9.1 bugfix July 2018 build 013d7b7c2542+ Fri, 06 Jul 2018 19:26:36 +0100
REM compiler GCC version 9.2.1 20190827 (Red Hat 9.2.1-1)
REM options -cpp -mtune=generic -march=x86-64 -g -O0 -fpre-include=/usr/include/finclude/math-vector-fortran.h
REM seed -1041757988 -1320414555 647420221 925100439 771687566 -145479995 649879941 -808205002 -566446667 262669247 -2127509964 -1372721189 1983719645 337876935 -753229815 -1613242511 947772155 -999463454 126939636 -1831345034 -1838268454 1269333135 -1762986965 -9724509 204177706 -1665864450 25717914 -1089606466 -1167256273 1169657522 -1551910187 -470751149 -1536649667
REM
CELL 1.54180   50.00000   50.00000   50.00000   90.00000   90.00000   90.00000
LATT -1
SFAC C  
C      1  0.4396650000000  0.4313240000000  0.4976590000000 1.0
C      1  0.4383040000000  0.5334580000000  0.5618860000000 1.0
C      1  0.4380780000000  0.5373770000000  0.4423220000000 1.0
C      1  0.6250450000000  0.5132420000000  0.5138100000000 1.0
C      1  0.6254710000000  0.5065750000000  0.4786550000000 1.0
C      1  0.6280390000000  0.4791610000000  0.5022320000000 1.0
C      1  0.4955950000000  0.4656970000000  0.6130900000000 1.0
C      1  0.4964310000000  0.6184340000000  0.4737270000000 1.0
C      1  0.4982880000000  0.4194890000000  0.4123760000000 1.0
C      1  0.4299770000000  0.5752600000000  0.5885820000000 1.0
C      1  0.4308190000000  0.5373210000000  0.3927060000000 1.0
C      1  0.4280840000000  0.3886070000000  0.5212370000000 1.0
C      1  0.4122540000000  0.4633300000000  0.5305300000000 1.0
C      1  0.4080610000000  0.5492440000000  0.5190270000000 1.0
C      1  0.4109970000000  0.4929170000000  0.4519530000000 1.0
C      1  0.4297120000000  0.5883120000000  0.4893680000000 1.0
C      1  0.4335600000000  0.4481680000000  0.4338550000000 1.0
C      1  0.4318970000000  0.4690490000000  0.5778780000000 1.0
C      1  0.5427590000000  0.4879690000000  0.5570500000000 1.0
C      1  0.5407250000000  0.5564270000000  0.4785590000000 1.0
C      1  0.5446740000000  0.4534710000000  0.4625780000000 1.0
C      1  0.4802010000000  0.5541800000000  0.4205930000000 1.0
C      1  0.4795680000000  0.3996350000000  0.4932380000000 1.0
C      1  0.4805750000000  0.5408480000000  0.5869500000000 1.0
C      1  0.4574650000000  0.5351860000000  0.6067720000000 1.0
C      1  0.4568420000000  0.5745640000000  0.4171840000000 1.0
C      1  0.4551150000000  0.3889320000000  0.4770900000000 1.0
C      1  0.6033270000000  0.4650200000000  0.4241810000000 1.0
C      1  0.6040700000000  0.4491670000000  0.5716400000000 1.0
C      1  0.6020680000000  0.5891020000000  0.5093380000000 1.0
C      1  0.5034110000000  0.4980500000000  0.5874760000000 1.0
C      1  0.5024910000000  0.5802240000000  0.4555700000000 1.0
C      1  0.5057960000000  0.4214410000000  0.4536520000000 1.0
C      1  0.5548790000000  0.5550730000000  0.4155560000000 1.0
C      1  0.5554890000000  0.3996030000000  0.4968380000000 1.0
C      1  0.5554430000000  0.5442950000000  0.5868580000000 1.0
C      1  0.5734350000000  0.5649990000000  0.5455160000000 1.0
C      1  0.5759000000000  0.5094100000000  0.4156890000000 1.0
C      1  0.5761150000000  0.4236540000000  0.5353500000000 1.0
C      1  0.5541170000000  0.4268750000000  0.4308840000000 1.0
C      1  0.5521980000000  0.4749650000000  0.5973770000000 1.0
C      1  0.5527130000000  0.5995970000000  0.4722900000000 1.0
C      1  0.4404820000000  0.5907570000000  0.5668730000000 1.0
C      1  0.4428310000000  0.5113590000000  0.3913510000000 1.0
C      1  0.4393920000000  0.4005290000000  0.5446940000000 1.0
C      1  0.4707840000000  0.4272930000000  0.4977960000000 1.0
C      1  0.4697730000000  0.5315340000000  0.5612240000000 1.0
C      1  0.4701890000000  0.5360570000000  0.4414010000000 1.0
C      1  0.5205320000000  0.4040870000000  0.5343400000000 1.0
C      1  0.5205030000000  0.5725300000000  0.5630230000000 1.0
C      1  0.5207190000000  0.5186870000000  0.4039600000000 1.0
C      1  0.4655040000000  0.4925490000000  0.5462800000000 1.0
C      1  0.4618450000000  0.5483100000000  0.4806290000000 1.0
C      1  0.4678410000000  0.4590270000000  0.4705100000000 1.0
C      1  0.4339450000000  0.4007210000000  0.4961510000000 1.0
C      1  0.4353160000000  0.5472750000000  0.5891930000000 1.0
C      1  0.4348820000000  0.5531810000000  0.4160250000000 1.0
C      1  0.5976460000000  0.5254850000000  0.5221240000000 1.0
C      1  0.5992370000000  0.5088730000000  0.4619440000000 1.0
C      1  0.6037720000000  0.4605940000000  0.5113870000000 1.0
C      1  0.4617230000000  0.3866460000000  0.5575430000000 1.0
C      1  0.4643370000000  0.6066650000000  0.5721850000000 1.0
C      1  0.4652690000000  0.5074890000000  0.3732990000000 1.0
C      1  0.4830490000000  0.6121280000000  0.5511530000000 1.0
C      1  0.4844420000000  0.4868340000000  0.3785230000000 1.0
C      1  0.4810580000000  0.4005840000000  0.5736590000000 1.0
C      1  0.5155890000000  0.4466500000000  0.4632810000000 1.0
C      1  0.5133860000000  0.4933170000000  0.5608990000000 1.0
C      1  0.5113500000000  0.5583260000000  0.4715240000000 1.0
C      1  0.5258320000000  0.4686030000000  0.5240460000000 1.0
C      1  0.5227350000000  0.5343880000000  0.5093420000000 1.0
C      1  0.5292010000000  0.4922130000000  0.4663900000000 1.0
C      1  0.5121290000000  0.4920470000000  0.3880980000000 1.0
C      1  0.5097370000000  0.4050590000000  0.5653110000000 1.0
C      1  0.5107420000000  0.6005310000000  0.5493940000000 1.0
C      1  0.4372370000000  0.5458140000000  0.5339460000000 1.0
C      1  0.4392940000000  0.5071410000000  0.4472610000000 1.0
C      1  0.4416490000000  0.4524590000000  0.5201290000000 1.0
C      1  0.5779820000000  0.4399480000000  0.5607340000000 1.0
C      1  0.5754200000000  0.5814510000000  0.5205680000000 1.0
C      1  0.5787670000000  0.4793850000000  0.4149070000000 1.0
C      1  0.5776930000000  0.4192110000000  0.4850870000000 1.0
C      1  0.5756560000000  0.5240620000000  0.5740720000000 1.0
C      1  0.5769020000000  0.5558090000000  0.4384520000000 1.0
C      1  0.4900380000000  0.4435520000000  0.5438040000000 1.0
C      1  0.4884100000000  0.5647510000000  0.5247790000000 1.0
C      1  0.4931210000000  0.4881330000000  0.4336910000000 1.0
C      1  0.4703470000000  0.6101920000000  0.5253320000000 1.0
C      1  0.4730960000000  0.4659030000000  0.3946270000000 1.0
C      1  0.4697840000000  0.4252180000000  0.5839500000000 1.0
C      1  0.5254250000000  0.4340790000000  0.4101400000000 1.0
C      1  0.5228380000000  0.4547760000000  0.6033270000000 1.0
C      1  0.5234740000000  0.6138780000000  0.4879670000000 1.0
C      1  0.5189540000000  0.5883110000000  0.4331840000000 1.0
C      1  0.5213590000000  0.3976960000000  0.4583900000000 1.0
C      1  0.5204050000000  0.5121160000000  0.6060780000000 1.0
C      1  0.4718330000000  0.4470830000000  0.5656070000000 1.0
C      1  0.4706040000000  0.5842830000000  0.5133360000000 1.0
C      1  0.4748000000000  0.4687860000000  0.4229970000000 1.0
C      1  0.5781840000000  0.5004630000000  0.5216000000000 1.0
C      1  0.5805820000000  0.5266990000000  0.4771390000000 1.0
C      1  0.5795310000000  0.4757020000000  0.4949630000000 1.0
C      1  0.5394140000000  0.5160710000000  0.4533230000000 1.0
C      1  0.5415320000000  0.4480020000000  0.5110490000000 1.0
C      1  0.5393470000000  0.5301730000000  0.5331110000000 1.0
C      1  0.5571350000000  0.4564850000000  0.4890900000000 1.0
C      1  0.5540230000000  0.5060310000000  0.5375210000000 1.0
C      1  0.5550240000000  0.5344510000000  0.4672410000000 1.0
C      1  0.5162690000000  0.5230830000000  0.4362050000000 1.0
C      1  0.5176480000000  0.4289170000000  0.5130640000000 1.0
C      1  0.5162080000000  0.5420770000000  0.5501080000000 1.0
C      1  0.4239510000000  0.4284580000000  0.4537120000000 1.0
C      1  0.4233780000000  0.4961660000000  0.5864830000000 1.0
C      1  0.4240010000000  0.5782880000000  0.4614350000000 1.0
C      1  0.5915550000000  0.4321250000000  0.5107900000000 1.0
C      1  0.5887400000000  0.5390860000000  0.5483930000000 1.0
C      1  0.5907120000000  0.5251930000000  0.4364150000000 1.0
C      1  0.5529750000000  0.4039600000000  0.5272320000000 1.0
C      1  0.5520310000000  0.5677190000000  0.5674330000000 1.0
C      1  0.5522800000000  0.5263810000000  0.4047660000000 1.0
C      1  0.3807140000000  0.4809370000000  0.4948000000000 1.0
C      1  0.3792070000000  0.5057960000000  0.5212240000000 1.0
C      1  0.3789020000000  0.5164510000000  0.4863160000000 1.0
C      1  0.5294070000000  0.3900090000000  0.4849340000000 1.0
C      1  0.5292780000000  0.5389030000000  0.6006310000000 1.0
C      1  0.5280290000000  0.5689610000000  0.4136600000000 1.0
C      1  0.4513430000000  0.5050960000000  0.6038880000000 1.0
C      1  0.4508100000000  0.5882670000000  0.4441310000000 1.0
C      1  0.4507900000000  0.4072710000000  0.4527020000000 1.0
C      1  0.5001580000000  0.4777100000000  0.5109600000000 1.0
C      1  0.4946870000000  0.5189460000000  0.5058360000000 1.0
C      1  0.5017630000000  0.4957270000000  0.4810460000000 1.0
C      1  0.5196180000000  0.4814440000000  0.4401840000000 1.0
C      1  0.5159120000000  0.4538930000000  0.5467660000000 1.0
C      1  0.5139130000000  0.5619850000000  0.5132320000000 1.0
C      1  0.3927330000000  0.5303000000000  0.5398070000000 1.0
C      1  0.3941180000000  0.5194720000000  0.4562650000000 1.0
C      1  0.3948430000000  0.4528730000000  0.5064820000000 1.0
C      1  0.4953790000000  0.4662290000000  0.4708960000000 1.0
C      1  0.4934110000000  0.4915690000000  0.5382210000000 1.0
C      1  0.4899440000000  0.5415340000000  0.4841250000000 1.0
C      1  0.4203840000000  0.4740370000000  0.4267970000000 1.0
C      1  0.4170900000000  0.4503170000000  0.5597500000000 1.0
C      1  0.4165450000000  0.5809340000000  0.5155900000000 1.0
C      1  0.4382090000000  0.5781940000000  0.5393090000000 1.0
C      1  0.4425170000000  0.4948660000000  0.4166010000000 1.0
C      1  0.4384380000000  0.4308840000000  0.5460880000000 1.0
C      1  0.4468460000000  0.5117620000000  0.5269940000000 1.0
C      1  0.4474270000000  0.5186580000000  0.4787210000000 1.0
C      1  0.4578240000000  0.4716100000000  0.4971600000000 1.0
C      1  0.5244130000000  0.4251030000000  0.5857990000000 1.0
C      1  0.5244920000000  0.6094840000000  0.5220590000000 1.0
C      1  0.5275060000000  0.4649470000000  0.3948090000000 1.0
C      1  0.4175330000000  0.4446350000000  0.4806180000000 1.0
C      1  0.4163130000000  0.5120930000000  0.5598770000000 1.0
C      1  0.4162340000000  0.5473710000000  0.4620920000000 1.0
C      1  0.5790700000000  0.5766190000000  0.4631850000000 1.0
C      1  0.5796040000000  0.4310670000000  0.4562280000000 1.0
C      1  0.5778360000000  0.4937430000000  0.5802060000000 1.0
C      1  0.4073280000000  0.5332570000000  0.4935690000000 1.0
C      1  0.4111590000000  0.4801000000000  0.4791380000000 1.0
C      1  0.4095180000000  0.4930680000000  0.5303750000000 1.0
C      1  0.4892080000000  0.4443040000000  0.5126440000000 1.0
C      1  0.4868920000000  0.5359330000000  0.5371000000000 1.0
C      1  0.4876740000000  0.5129810000000  0.4514040000000 1.0
C      1  0.5909520000000  0.4805970000000  0.4687300000000 1.0
C      1  0.5962490000000  0.4805400000000  0.5342990000000 1.0
C      1  0.5919400000000  0.5417660000000  0.4970580000000 1.0
C      1  0.4782330000000  0.4210900000000  0.4382520000000 1.0
C      1  0.4764550000000  0.4856240000000  0.5961620000000 1.0
C      1  0.4765590000000  0.5949120000000  0.4637590000000 1.0
C      1  0.5971390000000  0.4568390000000  0.4517130000000 1.0
C      1  0.5978100000000  0.4772630000000  0.5634890000000 1.0
C      1  0.5980040000000  0.5692770000000  0.4873260000000 1.0
C      1  0.4588980000000  0.5796100000000  0.4873560000000 1.0
C      1  0.4625150000000  0.4495550000000  0.4405880000000 1.0
C      1  0.4606390000000  0.4731180000000  0.5713280000000 1.0
C      1  0.5064810000000  0.3892870000000  0.5048890000000 1.0
C      1  0.5070880000000  0.5559100000000  0.5895410000000 1.0
C      1  0.5062880000000  0.5498410000000  0.4054190000000 1.0
C      1  0.5546490000000  0.5785410000000  0.4972760000000 1.0
C      1  0.5597600000000  0.4596660000000  0.4328070000000 1.0
C      1  0.5561290000000  0.4598520000000  0.5682590000000 1.0
C      1  0.5372330000000  0.4727650000000  0.4214010000000 1.0
C      1  0.5336320000000  0.4432380000000  0.5644350000000 1.0
C      1  0.5322640000000  0.5822200000000  0.5140970000000 1.0
C      1  0.4642150000000  0.5022790000000  0.5016090000000 1.0
C      1  0.4224840000000  0.5053640000000  0.5008110000000 1.0
END
