TITL C-862133-5440-159 1.34527594334558e-05 125000 -985.712217915556 0 0 175 (C1) n - 1
REM
REM in /home/nfs/bkarasulu/CARBON/AIRSS/Generating-Clusters/TERSOFF/Higher-Symm/FIRE-HFTN
REM
REM
REM
REM
REM
REM ./C.cell (b20cbc046b6831c77cfcea5457e17084)
REM AIRSS Version 0.9.1 bugfix July 2018 build 013d7b7c2542+ Fri, 06 Jul 2018 19:26:36 +0100
REM compiler GCC version 9.2.1 20190827 (Red Hat 9.2.1-1)
REM options -cpp -mtune=generic -march=x86-64 -g -O0 -fpre-include=/usr/include/finclude/math-vector-fortran.h
REM seed -1407822805 617782827 864370257 133671976 -1710432242 1734012174 643893911 1555799897 541710327 42007464 -300542658 -1475550621 1703417737 -1868809548 -365452742 1329577743 -1073399953 -873192417 1617854042 -37106709 -1299977518 457359909 1280304559 -1165901049 1601453595 -1226878832 -1873246207 -2147113549 2035009901 -1814276370 47384231 940241164 453240577
REM
CELL 1.54180   50.00000   50.00000   50.00000   90.00000   90.00000   90.00000
LATT -1
SFAC C  
C      1  0.6124750000000  0.4994050000000  0.4779720000000 1.0
C      1  0.4765270000000  0.6147570000000  0.5004390000000 1.0
C      1  0.4998900000000  0.4789060000000  0.6099560000000 1.0
C      1  0.6133840000000  0.5030660000000  0.5228490000000 1.0
C      1  0.3896280000000  0.5024170000000  0.4790030000000 1.0
C      1  0.3880600000000  0.4979410000000  0.5225930000000 1.0
C      1  0.4749880000000  0.3868640000000  0.5007140000000 1.0
C      1  0.5258510000000  0.3874910000000  0.4996320000000 1.0
C      1  0.5259000000000  0.6148480000000  0.5018450000000 1.0
C      1  0.4999130000000  0.5267970000000  0.3896550000000 1.0
C      1  0.5032550000000  0.5261260000000  0.6130320000000 1.0
C      1  0.5010320000000  0.4749220000000  0.3904580000000 1.0
C      1  0.6132120000000  0.4755960000000  0.4994800000000 1.0
C      1  0.4770910000000  0.5015310000000  0.6103890000000 1.0
C      1  0.4998410000000  0.6137860000000  0.4786460000000 1.0
C      1  0.6145040000000  0.5264520000000  0.5008400000000 1.0
C      1  0.3868760000000  0.4744330000000  0.5005630000000 1.0
C      1  0.3878630000000  0.5265720000000  0.5004650000000 1.0
C      1  0.4783530000000  0.5031080000000  0.3908490000000 1.0
C      1  0.5226360000000  0.4985990000000  0.3908530000000 1.0
C      1  0.5264430000000  0.5033510000000  0.6128830000000 1.0
C      1  0.4983400000000  0.3877040000000  0.5231870000000 1.0
C      1  0.5030060000000  0.6149030000000  0.5249290000000 1.0
C      1  0.5020750000000  0.3890490000000  0.4782160000000 1.0
C      1  0.5529200000000  0.6006400000000  0.5054440000000 1.0
C      1  0.5079440000000  0.5544450000000  0.6013820000000 1.0
C      1  0.5999680000000  0.5078340000000  0.5501060000000 1.0
C      1  0.5554970000000  0.3971510000000  0.4919220000000 1.0
C      1  0.4471060000000  0.3993890000000  0.5052870000000 1.0
C      1  0.4490270000000  0.6014550000000  0.4949530000000 1.0
C      1  0.5099770000000  0.4451760000000  0.3991880000000 1.0
C      1  0.4933130000000  0.4491440000000  0.6004860000000 1.0
C      1  0.4915730000000  0.5560160000000  0.4004500000000 1.0
C      1  0.6000680000000  0.4948480000000  0.4503280000000 1.0
C      1  0.3991710000000  0.4928050000000  0.5513530000000 1.0
C      1  0.4008360000000  0.5071790000000  0.4507090000000 1.0
C      1  0.5551680000000  0.5097660000000  0.6011220000000 1.0
C      1  0.5082470000000  0.6024900000000  0.5528380000000 1.0
C      1  0.6005000000000  0.5534400000000  0.5055840000000 1.0
C      1  0.5521260000000  0.4925850000000  0.4004380000000 1.0
C      1  0.4492790000000  0.5087750000000  0.4011490000000 1.0
C      1  0.4485380000000  0.4955380000000  0.5993320000000 1.0
C      1  0.5072720000000  0.4002440000000  0.4500770000000 1.0
C      1  0.4949600000000  0.6003050000000  0.4517130000000 1.0
C      1  0.4931290000000  0.3994710000000  0.5518430000000 1.0
C      1  0.6027560000000  0.4466140000000  0.4925800000000 1.0
C      1  0.3983820000000  0.5561300000000  0.4928610000000 1.0
C      1  0.3990280000000  0.4463970000000  0.5058010000000 1.0
C      1  0.4810370000000  0.4407040000000  0.5355970000000 1.0
C      1  0.5362200000000  0.4800770000000  0.4419640000000 1.0
C      1  0.4366440000000  0.5380060000000  0.4825530000000 1.0
C      1  0.4838050000000  0.5535930000000  0.4642470000000 1.0
C      1  0.5163420000000  0.5597390000000  0.5386860000000 1.0
C      1  0.5157090000000  0.4399430000000  0.4623830000000 1.0
C      1  0.5371420000000  0.5184340000000  0.5628170000000 1.0
C      1  0.4616510000000  0.5154790000000  0.4418610000000 1.0
C      1  0.4615160000000  0.4836430000000  0.5567870000000 1.0
C      1  0.4389780000000  0.4604530000000  0.5147670000000 1.0
C      1  0.5598030000000  0.4579970000000  0.4835610000000 1.0
C      1  0.5581360000000  0.5377310000000  0.5167200000000 1.0
C      1  0.4821650000000  0.5375950000000  0.4397000000000 1.0
C      1  0.5395700000000  0.4360280000000  0.4818490000000 1.0
C      1  0.4400670000000  0.4817700000000  0.5361240000000 1.0
C      1  0.4808730000000  0.4610740000000  0.5575930000000 1.0
C      1  0.5153570000000  0.5392460000000  0.5614020000000 1.0
C      1  0.5160600000000  0.4579280000000  0.4387400000000 1.0
C      1  0.5373990000000  0.5594510000000  0.5160580000000 1.0
C      1  0.4603220000000  0.4394980000000  0.5139300000000 1.0
C      1  0.4607200000000  0.5552530000000  0.4840040000000 1.0
C      1  0.4402090000000  0.5150620000000  0.4630200000000 1.0
C      1  0.5556830000000  0.4811660000000  0.4648470000000 1.0
C      1  0.5540210000000  0.5160580000000  0.5381450000000 1.0
C      1  0.4601880000000  0.4209920000000  0.4382750000000 1.0
C      1  0.4478270000000  0.4678620000000  0.4273970000000 1.0
C      1  0.4269630000000  0.4492440000000  0.4672810000000 1.0
C      1  0.4690210000000  0.5743220000000  0.5552350000000 1.0
C      1  0.5379300000000  0.5756240000000  0.4400360000000 1.0
C      1  0.5309330000000  0.4285450000000  0.5508130000000 1.0
C      1  0.4408460000000  0.5418350000000  0.5778220000000 1.0
C      1  0.5503750000000  0.5295760000000  0.4286110000000 1.0
C      1  0.5530690000000  0.4685430000000  0.5785810000000 1.0
C      1  0.4211180000000  0.5535060000000  0.5311030000000 1.0
C      1  0.5709560000000  0.5486430000000  0.4687510000000 1.0
C      1  0.5760950000000  0.4440550000000  0.5329050000000 1.0
C      1  0.4663200000000  0.4439340000000  0.4184380000000 1.0
C      1  0.4504540000000  0.4270530000000  0.4652690000000 1.0
C      1  0.4225200000000  0.4600340000000  0.4410440000000 1.0
C      1  0.4680780000000  0.5510000000000  0.5756950000000 1.0
C      1  0.5298710000000  0.4495960000000  0.5716860000000 1.0
C      1  0.5308090000000  0.5525260000000  0.4207450000000 1.0
C      1  0.4471790000000  0.5701860000000  0.5320540000000 1.0
C      1  0.5551980000000  0.4215490000000  0.5320890000000 1.0
C      1  0.5480370000000  0.5707590000000  0.4671040000000 1.0
C      1  0.4278350000000  0.5321430000000  0.5521820000000 1.0
C      1  0.5699910000000  0.4687240000000  0.5529290000000 1.0
C      1  0.5748930000000  0.5384610000000  0.4423920000000 1.0
C      1  0.4798430000000  0.5074750000000  0.5514470000000 1.0
C      1  0.5663680000000  0.4651390000000  0.5113060000000 1.0
C      1  0.5062840000000  0.5460020000000  0.4818090000000 1.0
C      1  0.4729200000000  0.4870100000000  0.4456490000000 1.0
C      1  0.5301210000000  0.4915230000000  0.5727710000000 1.0
C      1  0.5256730000000  0.5087880000000  0.4457150000000 1.0
C      1  0.5632170000000  0.5281390000000  0.4889210000000 1.0
C      1  0.4284140000000  0.5312100000000  0.5102200000000 1.0
C      1  0.4336770000000  0.4696980000000  0.4876140000000 1.0
C      1  0.5101830000000  0.4436040000000  0.5263270000000 1.0
C      1  0.4943570000000  0.4490680000000  0.4804170000000 1.0
C      1  0.4890100000000  0.5671660000000  0.5323890000000 1.0
C      1  0.4709530000000  0.5507470000000  0.5127160000000 1.0
C      1  0.5477600000000  0.5042150000000  0.4819680000000 1.0
C      1  0.5097520000000  0.4722980000000  0.5569750000000 1.0
C      1  0.4701900000000  0.4345770000000  0.4863440000000 1.0
C      1  0.5281960000000  0.5630750000000  0.4880640000000 1.0
C      1  0.5324790000000  0.4278790000000  0.5089480000000 1.0
C      1  0.5506710000000  0.4872820000000  0.5285240000000 1.0
C      1  0.4451480000000  0.5111250000000  0.5281790000000 1.0
C      1  0.4487930000000  0.4935180000000  0.4816370000000 1.0
C      1  0.5085240000000  0.5304960000000  0.4305640000000 1.0
C      1  0.4895990000000  0.4655260000000  0.4297530000000 1.0
C      1  0.4877010000000  0.5304070000000  0.5674340000000 1.0
C      1  0.4182040000000  0.4687400000000  0.5561960000000 1.0
C      1  0.5595680000000  0.4159090000000  0.4664100000000 1.0
C      1  0.4677730000000  0.5587530000000  0.4205570000000 1.0
C      1  0.4182700000000  0.5332200000000  0.4450960000000 1.0
C      1  0.5800260000000  0.5309620000000  0.5529070000000 1.0
C      1  0.5809810000000  0.4713210000000  0.4466990000000 1.0
C      1  0.5564570000000  0.5820550000000  0.5301850000000 1.0
C      1  0.4463510000000  0.5817750000000  0.4717340000000 1.0
C      1  0.4428920000000  0.4172690000000  0.5310530000000 1.0
C      1  0.4687760000000  0.4442140000000  0.5818590000000 1.0
C      1  0.5350530000000  0.4416440000000  0.4179620000000 1.0
C      1  0.5327880000000  0.5584590000000  0.5821370000000 1.0
C      1  0.4178800000000  0.5595420000000  0.4681260000000 1.0
C      1  0.5569550000000  0.4690850000000  0.4197400000000 1.0
C      1  0.4687460000000  0.4185600000000  0.5561140000000 1.0
C      1  0.4171450000000  0.4425700000000  0.5314370000000 1.0
C      1  0.5814870000000  0.5560290000000  0.5298790000000 1.0
C      1  0.5836890000000  0.4429370000000  0.4677750000000 1.0
C      1  0.5581920000000  0.5343250000000  0.5815280000000 1.0
C      1  0.4444160000000  0.4707400000000  0.5811940000000 1.0
C      1  0.4441060000000  0.5334280000000  0.4198940000000 1.0
C      1  0.4722010000000  0.5803640000000  0.4493290000000 1.0
C      1  0.5335210000000  0.4174000000000  0.4446970000000 1.0
C      1  0.5324540000000  0.5827730000000  0.5555470000000 1.0
C      1  0.5952410000000  0.5173040000000  0.4323950000000 1.0
C      1  0.4327750000000  0.5934710000000  0.5179090000000 1.0
C      1  0.5162750000000  0.4317670000000  0.5932620000000 1.0
C      1  0.5925510000000  0.4848330000000  0.5665230000000 1.0
C      1  0.4055610000000  0.4850410000000  0.4321820000000 1.0
C      1  0.4064470000000  0.5159320000000  0.5676620000000 1.0
C      1  0.4313770000000  0.4077670000000  0.4812620000000 1.0
C      1  0.5742670000000  0.4028330000000  0.5146700000000 1.0
C      1  0.5672880000000  0.5912280000000  0.4811570000000 1.0
C      1  0.5139860000000  0.5756790000000  0.4055340000000 1.0
C      1  0.4838600000000  0.5711040000000  0.5943830000000 1.0
C      1  0.4881230000000  0.4255370000000  0.4042150000000 1.0
C      1  0.5971930000000  0.4282620000000  0.5154120000000 1.0
C      1  0.4299310000000  0.5175220000000  0.5944190000000 1.0
C      1  0.5167830000000  0.5968150000000  0.4326970000000 1.0
C      1  0.5914590000000  0.5686450000000  0.4815950000000 1.0
C      1  0.4068790000000  0.4298580000000  0.4819240000000 1.0
C      1  0.4038280000000  0.5757530000000  0.5157090000000 1.0
C      1  0.4322350000000  0.4860050000000  0.4079620000000 1.0
C      1  0.5689890000000  0.5155240000000  0.4077190000000 1.0
C      1  0.5737200000000  0.4867400000000  0.5950160000000 1.0
C      1  0.5165110000000  0.4072780000000  0.5681720000000 1.0
C      1  0.4848640000000  0.5965940000000  0.5710080000000 1.0
C      1  0.4855620000000  0.4040630000000  0.4310180000000 1.0
C      1  0.4961630000000  0.5304550000000  0.5045020000000 1.0
C      1  0.5021680000000  0.4961300000000  0.5361800000000 1.0
C      1  0.5321370000000  0.4951120000000  0.5042120000000 1.0
C      1  0.5039760000000  0.4639870000000  0.5027640000000 1.0
C      1  0.4990910000000  0.4976220000000  0.4672760000000 1.0
C      1  0.4649190000000  0.5024320000000  0.5039060000000 1.0
C      1  0.4991690000000  0.4965880000000  0.5036470000000 1.0
END
