TITL C-862133-5440-1343 0.417258843733127 125000 -863.513984197183 0 0 147 (C1) n - 1
REM
REM in /home/nfs/bkarasulu/CARBON/AIRSS/Generating-Clusters/TERSOFF/Higher-Symm/FIRE-HFTN
REM
REM
REM
REM
REM
REM ./C.cell (b20cbc046b6831c77cfcea5457e17084)
REM AIRSS Version 0.9.1 bugfix July 2018 build 013d7b7c2542+ Fri, 06 Jul 2018 19:26:36 +0100
REM compiler GCC version 9.2.1 20190827 (Red Hat 9.2.1-1)
REM options -cpp -mtune=generic -march=x86-64 -g -O0 -fpre-include=/usr/include/finclude/math-vector-fortran.h
REM seed -1469114587 -732776684 -412294256 2063133218 -830881514 1112872434 -1775325704 -1978884264 -1647633089 1336119164 -1546389049 -1658290421 -539325547 94026665 1037397532 -1241848683 1019469422 147482142 -1169342718 541509393 2025531520 1476574932 -1413222390 1299827374 2053050026 1522456435 577957444 1547039116 -642261464 -1603111951 1874093778 33960526 3335490
REM
CELL 1.54180   50.00000   50.00000   50.00000   90.00000   90.00000   90.00000
LATT -1
SFAC C  
C      1  0.4087770000000  0.4439400000000  0.4904610000000 1.0
C      1  0.6150900000000  0.5266360000000  0.5089170000000 1.0
C      1  0.3772510000000  0.5074020000000  0.4788520000000 1.0
C      1  0.5733670000000  0.5329100000000  0.4985580000000 1.0
C      1  0.5516740000000  0.4386410000000  0.5624480000000 1.0
C      1  0.4745220000000  0.5969920000000  0.4748780000000 1.0
C      1  0.4817060000000  0.4790590000000  0.5479720000000 1.0
C      1  0.4296650000000  0.4292120000000  0.5323820000000 1.0
C      1  0.4803550000000  0.5244730000000  0.4000180000000 1.0
C      1  0.5286140000000  0.4943810000000  0.3971120000000 1.0
C      1  0.4689380000000  0.5399020000000  0.5339480000000 1.0
C      1  0.4064270000000  0.5494540000000  0.5042650000000 1.0
C      1  0.5760030000000  0.4441340000000  0.5435970000000 1.0
C      1  0.3845580000000  0.4862670000000  0.4987980000000 1.0
C      1  0.5747960000000  0.4403450000000  0.4234360000000 1.0
C      1  0.4562020000000  0.5553130000000  0.4307370000000 1.0
C      1  0.5411430000000  0.5777810000000  0.4354550000000 1.0
C      1  0.5146190000000  0.5432530000000  0.4732160000000 1.0
C      1  0.5262630000000  0.5012180000000  0.4467010000000 1.0
C      1  0.5236580000000  0.4798260000000  0.5953960000000 1.0
C      1  0.5737740000000  0.5757310000000  0.4779620000000 1.0
C      1  0.5708560000000  0.5213330000000  0.6009480000000 1.0
C      1  0.5487150000000  0.4371190000000  0.4636960000000 1.0
C      1  0.4956440000000  0.4849220000000  0.6118210000000 1.0
C      1  0.3931580000000  0.5253710000000  0.5133190000000 1.0
C      1  0.5497550000000  0.4127870000000  0.4801410000000 1.0
C      1  0.5255250000000  0.5311630000000  0.4485350000000 1.0
C      1  0.5425930000000  0.4874720000000  0.4686070000000 1.0
C      1  0.5006760000000  0.4214490000000  0.5543570000000 1.0
C      1  0.5774810000000  0.5222870000000  0.4704530000000 1.0
C      1  0.5273480000000  0.4695970000000  0.5478390000000 1.0
C      1  0.4305460000000  0.5098520000000  0.4959730000000 1.0
C      1  0.5984610000000  0.5027010000000  0.5163730000000 1.0
C      1  0.4672160000000  0.4883580000000  0.5246200000000 1.0
C      1  0.5471050000000  0.5795350000000  0.4657070000000 1.0
C      1  0.5224540000000  0.5825650000000  0.5648970000000 1.0
C      1  0.3961080000000  0.4744210000000  0.4501620000000 1.0
C      1  0.4595620000000  0.4656840000000  0.4798600000000 1.0
C      1  0.4660210000000  0.5491180000000  0.4807160000000 1.0
C      1  0.4138970000000  0.4619190000000  0.4303970000000 1.0
C      1  0.5694530000000  0.5025380000000  0.4307800000000 1.0
C      1  0.4800460000000  0.5033060000000  0.5025800000000 1.0
C      1  0.4272380000000  0.4490000000000  0.5121020000000 1.0
C      1  0.4399150000000  0.5784960000000  0.4397730000000 1.0
C      1  0.5019300000000  0.4922960000000  0.4859690000000 1.0
C      1  0.4583450000000  0.5615990000000  0.5508300000000 1.0
C      1  0.4120880000000  0.5549950000000  0.4741720000000 1.0
C      1  0.5737680000000  0.5407670000000  0.4476220000000 1.0
C      1  0.5364280000000  0.4591750000000  0.4766260000000 1.0
C      1  0.5778810000000  0.4804370000000  0.5734520000000 1.0
C      1  0.4681320000000  0.4733900000000  0.5725770000000 1.0
C      1  0.4550550000000  0.4462610000000  0.5730180000000 1.0
C      1  0.5455260000000  0.5318820000000  0.5898870000000 1.0
C      1  0.5871830000000  0.4663880000000  0.4667660000000 1.0
C      1  0.5029400000000  0.4461320000000  0.3891650000000 1.0
C      1  0.4647030000000  0.5647510000000  0.5975020000000 1.0
C      1  0.5514400000000  0.4653350000000  0.5819300000000 1.0
C      1  0.4987860000000  0.5934920000000  0.5225640000000 1.0
C      1  0.4948640000000  0.4466020000000  0.5030290000000 1.0
C      1  0.4762760000000  0.4010410000000  0.5088210000000 1.0
C      1  0.4165820000000  0.5589360000000  0.5543570000000 1.0
C      1  0.4492180000000  0.4691570000000  0.5068910000000 1.0
C      1  0.5766140000000  0.5275590000000  0.5513030000000 1.0
C      1  0.4076670000000  0.4982260000000  0.5184570000000 1.0
C      1  0.4213250000000  0.5646260000000  0.5250150000000 1.0
C      1  0.4900340000000  0.4377350000000  0.5760410000000 1.0
C      1  0.5225720000000  0.4530600000000  0.5016650000000 1.0
C      1  0.4139070000000  0.5331120000000  0.4527860000000 1.0
C      1  0.5014820000000  0.5895740000000  0.4647730000000 1.0
C      1  0.4986930000000  0.5916350000000  0.5505620000000 1.0
C      1  0.5359870000000  0.4531130000000  0.5263090000000 1.0
C      1  0.4478390000000  0.5391910000000  0.5917520000000 1.0
C      1  0.5582160000000  0.4153540000000  0.5071130000000 1.0
C      1  0.5304170000000  0.4189680000000  0.5500830000000 1.0
C      1  0.5918590000000  0.4550340000000  0.4950110000000 1.0
C      1  0.4778690000000  0.4419020000000  0.4801390000000 1.0
C      1  0.4309870000000  0.5770970000000  0.4679760000000 1.0
C      1  0.4833350000000  0.5079700000000  0.4261450000000 1.0
C      1  0.4631990000000  0.4053750000000  0.4549410000000 1.0
C      1  0.5739710000000  0.5104170000000  0.6275730000000 1.0
C      1  0.5088280000000  0.4483450000000  0.5960480000000 1.0
C      1  0.5419430000000  0.5053600000000  0.5190360000000 1.0
C      1  0.5603490000000  0.4596450000000  0.4037890000000 1.0
C      1  0.5702730000000  0.5145140000000  0.5223680000000 1.0
C      1  0.5164960000000  0.5771350000000  0.5929850000000 1.0
C      1  0.5982260000000  0.5476240000000  0.5466530000000 1.0
C      1  0.5123040000000  0.5893980000000  0.4369010000000 1.0
C      1  0.4613760000000  0.5058370000000  0.3872490000000 1.0
C      1  0.4784460000000  0.4224790000000  0.4325030000000 1.0
C      1  0.4709830000000  0.4897720000000  0.5966920000000 1.0
C      1  0.4902460000000  0.5444400000000  0.5147040000000 1.0
C      1  0.4593050000000  0.5234200000000  0.4952090000000 1.0
C      1  0.5263390000000  0.3967040000000  0.4748840000000 1.0
C      1  0.4246650000000  0.4969220000000  0.4711010000000 1.0
C      1  0.5752710000000  0.4378020000000  0.5149610000000 1.0
C      1  0.5777340000000  0.5624030000000  0.5050590000000 1.0
C      1  0.4573270000000  0.5066110000000  0.4407720000000 1.0
C      1  0.5044590000000  0.4837490000000  0.4297820000000 1.0
C      1  0.4400290000000  0.5305960000000  0.4381370000000 1.0
C      1  0.5302420000000  0.4102980000000  0.4292510000000 1.0
C      1  0.5472660000000  0.5476100000000  0.4364750000000 1.0
C      1  0.5814620000000  0.5089210000000  0.5762590000000 1.0
C      1  0.4769560000000  0.4133200000000  0.5368060000000 1.0
C      1  0.4749120000000  0.4680610000000  0.4162470000000 1.0
C      1  0.4735450000000  0.5836630000000  0.5610760000000 1.0
C      1  0.4797420000000  0.4408830000000  0.4081490000000 1.0
C      1  0.4991100000000  0.5706280000000  0.5054770000000 1.0
C      1  0.5559660000000  0.4887410000000  0.4080810000000 1.0
C      1  0.5709950000000  0.4923050000000  0.4617420000000 1.0
C      1  0.4987860000000  0.4716240000000  0.4582310000000 1.0
C      1  0.4965460000000  0.5304050000000  0.5998040000000 1.0
C      1  0.4525650000000  0.4259810000000  0.5484770000000 1.0
C      1  0.3974740000000  0.5064760000000  0.4561170000000 1.0
C      1  0.5922280000000  0.4664400000000  0.5521860000000 1.0
C      1  0.4947960000000  0.5597490000000  0.6020110000000 1.0
C      1  0.4249880000000  0.4755690000000  0.4067350000000 1.0
C      1  0.5287280000000  0.4589820000000  0.4197010000000 1.0
C      1  0.5275220000000  0.4972400000000  0.5425510000000 1.0
C      1  0.6052210000000  0.5536920000000  0.5186300000000 1.0
C      1  0.4750720000000  0.5485720000000  0.4533600000000 1.0
C      1  0.5550630000000  0.5758040000000  0.5231720000000 1.0
C      1  0.5443190000000  0.5671520000000  0.5508440000000 1.0
C      1  0.4342900000000  0.5117450000000  0.5538440000000 1.0
C      1  0.4701390000000  0.5515720000000  0.4051100000000 1.0
C      1  0.4953650000000  0.4383270000000  0.4562260000000 1.0
C      1  0.4446710000000  0.5796450000000  0.5154570000000 1.0
C      1  0.5525530000000  0.5415620000000  0.5621140000000 1.0
C      1  0.4471700000000  0.4828800000000  0.4572470000000 1.0
C      1  0.5122750000000  0.4742090000000  0.3807820000000 1.0
C      1  0.4706150000000  0.5187800000000  0.5951940000000 1.0
C      1  0.4282580000000  0.5356880000000  0.5693770000000 1.0
C      1  0.6084340000000  0.4809870000000  0.5328540000000 1.0
C      1  0.3921290000000  0.4640960000000  0.4794270000000 1.0
C      1  0.4558480000000  0.5138420000000  0.5362020000000 1.0
C      1  0.5299010000000  0.5019750000000  0.4918550000000 1.0
C      1  0.5122380000000  0.4077780000000  0.4523720000000 1.0
C      1  0.4533720000000  0.4828850000000  0.4030770000000 1.0
C      1  0.5368030000000  0.5890970000000  0.5052730000000 1.0
C      1  0.5411110000000  0.4037300000000  0.5277200000000 1.0
C      1  0.4656420000000  0.4151200000000  0.4838690000000 1.0
C      1  0.4163570000000  0.4893020000000  0.5482300000000 1.0
C      1  0.4544380000000  0.5771790000000  0.4875090000000 1.0
C      1  0.5461050000000  0.4347490000000  0.4344180000000 1.0
C      1  0.5942310000000  0.4501200000000  0.4431110000000 1.0
C      1  0.5215930000000  0.5158270000000  0.5945550000000 1.0
C      1  0.5196120000000  0.5731220000000  0.4824210000000 1.0
C      1  0.4244510000000  0.4604610000000  0.5599520000000 1.0
END
