TITL C-862130-1496-582 2.82831935824039e-06 125000 -15.9241980963073 0 0 5 (D(inf)h) n - 1
REM
REM in /home/nfs/bkarasulu/CARBON/AIRSS/Generating-Clusters/TERSOFF/Higher-Symm/FIRE-HFTN
REM
REM
REM
REM
REM
REM ./C.cell (b20cbc046b6831c77cfcea5457e17084)
REM AIRSS Version 0.9.1 bugfix July 2018 build 013d7b7c2542+ Fri, 06 Jul 2018 19:26:36 +0100
REM compiler GCC version 9.2.1 20190827 (Red Hat 9.2.1-1)
REM options -cpp -mtune=generic -march=x86-64 -g -O0 -fpre-include=/usr/include/finclude/math-vector-fortran.h
REM seed 781359073 -69936743 929396426 -1777140074 1392869127 -2079587992 -202303831 -91149899 977296510 -902945108 829686901 -1894777684 -1241169039 -1289186416 1992014879 674010369 1046593750 1018530597 125557080 -956812972 1655065513 -1577562511 -1360493276 -1700794768 1768734417 -1301482586 -2019633695 -121119907 1445614682 -327450671 -1488039852 675063116 205400680
REM
CELL 1.54180   50.00000   50.00000   50.00000   90.00000   90.00000   90.00000
LATT -1
SFAC C  
C      1  0.5005050000000  0.5000000000000  0.4996010000000 1.0
C      1  0.5005050000000  0.5609220000000  0.4996010000000 1.0
C      1  0.5005050000000  0.5309890000000  0.4996010000000 1.0
C      1  0.5005050000000  0.4690110000000  0.4996010000000 1.0
C      1  0.5005050000000  0.4390780000000  0.4996010000000 1.0
END
