TITL C-862503-991-819 13.6589308685188 125000 -918.959177192067 0 0 160 (C1) n - 1
REM
REM in /home/nfs/bkarasulu/CARBON/AIRSS/Generating-Clusters/TERSOFF/Higher-Symm/FIRE-HFTN
REM
REM
REM
REM
REM
REM ./C.cell (b20cbc046b6831c77cfcea5457e17084)
REM AIRSS Version 0.9.1 bugfix July 2018 build 013d7b7c2542+ Fri, 06 Jul 2018 19:26:36 +0100
REM compiler GCC version 9.2.1 20190827 (Red Hat 9.2.1-1)
REM options -cpp -mtune=generic -march=x86-64 -g -O0 -fpre-include=/usr/include/finclude/math-vector-fortran.h
REM seed 1949683302 20748903 -1525548300 -1545351306 -373777013 -1718478788 1753887268 -997450980 -1948742166 1475417878 1643993517 -736648044 -1701456691 507260955 1819226411 127496201 1849805637 -1614539680 416045663 1433120865 1718024595 1101211075 -1532790507 1353984477 688715588 -663438828 978152040 -1387930167 -149196948 -1164877953 1015677624 -380861859 1777363595
REM
CELL 1.54180   50.00000   50.00000   50.00000   90.00000   90.00000   90.00000
LATT -1
SFAC C  
C      1  0.4765330000000  0.4462890000000  0.4592820000000 1.0
C      1  0.5495680000000  0.4470070000000  0.4983260000000 1.0
C      1  0.4737930000000  0.4474890000000  0.5432670000000 1.0
C      1  0.4070090000000  0.4396880000000  0.5174420000000 1.0
C      1  0.5333030000000  0.4412670000000  0.4108580000000 1.0
C      1  0.5578490000000  0.4384240000000  0.5689580000000 1.0
C      1  0.5836920000000  0.5416910000000  0.5146750000000 1.0
C      1  0.4443320000000  0.5421400000000  0.5635780000000 1.0
C      1  0.4731200000000  0.5416600000000  0.4222930000000 1.0
C      1  0.4632240000000  0.3860490000000  0.4597210000000 1.0
C      1  0.5576580000000  0.3869320000000  0.4834430000000 1.0
C      1  0.4806430000000  0.3865910000000  0.5610460000000 1.0
C      1  0.5662480000000  0.5511220000000  0.4146260000000 1.0
C      1  0.5361210000000  0.5510370000000  0.5940170000000 1.0
C      1  0.3937030000000  0.5493730000000  0.4842020000000 1.0
C      1  0.5310460000000  0.5637810000000  0.5133840000000 1.0
C      1  0.4701020000000  0.5607660000000  0.5172880000000 1.0
C      1  0.4990880000000  0.5607690000000  0.4685620000000 1.0
C      1  0.4653200000000  0.6042590000000  0.5013520000000 1.0
C      1  0.5176060000000  0.6032740000000  0.4725470000000 1.0
C      1  0.5173040000000  0.6010870000000  0.5327020000000 1.0
C      1  0.5536150000000  0.5240420000000  0.5517580000000 1.0
C      1  0.4246590000000  0.5247240000000  0.5196030000000 1.0
C      1  0.5213050000000  0.5253410000000  0.4268320000000 1.0
C      1  0.5384980000000  0.4983300000000  0.5959250000000 1.0
C      1  0.3952740000000  0.4967210000000  0.4846870000000 1.0
C      1  0.5661790000000  0.4985030000000  0.4162040000000 1.0
C      1  0.4765300000000  0.4938950000000  0.5513070000000 1.0
C      1  0.4674480000000  0.4928910000000  0.4569590000000 1.0
C      1  0.5556610000000  0.4941970000000  0.4937930000000 1.0
C      1  0.4952780000000  0.4095800000000  0.4299920000000 1.0
C      1  0.5605040000000  0.4099360000000  0.5261100000000 1.0
C      1  0.4407510000000  0.4094930000000  0.5435660000000 1.0
C      1  0.5234850000000  0.4784350000000  0.5373110000000 1.0
C      1  0.4534310000000  0.4784860000000  0.5035690000000 1.0
C      1  0.5216100000000  0.4799880000000  0.4595800000000 1.0
C      1  0.4799670000000  0.4353040000000  0.4859820000000 1.0
C      1  0.5248960000000  0.4349110000000  0.4884620000000 1.0
C      1  0.4933670000000  0.4356040000000  0.5256800000000 1.0
C      1  0.4178550000000  0.5572600000000  0.4329810000000 1.0
C      1  0.6014500000000  0.5575310000000  0.4600490000000 1.0
C      1  0.4828410000000  0.5594300000000  0.6052220000000 1.0
C      1  0.5486510000000  0.5574740000000  0.5384310000000 1.0
C      1  0.4389520000000  0.5582550000000  0.5203290000000 1.0
C      1  0.5127100000000  0.5580900000000  0.4402070000000 1.0
C      1  0.4597010000000  0.4728790000000  0.5366830000000 1.0
C      1  0.4890120000000  0.4722060000000  0.4504260000000 1.0
C      1  0.5503250000000  0.4723080000000  0.5144440000000 1.0
C      1  0.5503330000000  0.5469290000000  0.4764650000000 1.0
C      1  0.4939750000000  0.5465110000000  0.5528470000000 1.0
C      1  0.4567450000000  0.5454110000000  0.4703890000000 1.0
C      1  0.5435620000000  0.5250110000000  0.5819630000000 1.0
C      1  0.4036320000000  0.5240320000000  0.4956510000000 1.0
C      1  0.5521130000000  0.5255160000000  0.4187760000000 1.0
C      1  0.4916080000000  0.6133900000000  0.5448770000000 1.0
C      1  0.4666770000000  0.6136370000000  0.4724670000000 1.0
C      1  0.5421230000000  0.6130280000000  0.4877310000000 1.0
C      1  0.5222580000000  0.4555460000000  0.5830940000000 1.0
C      1  0.4160090000000  0.4542130000000  0.4791110000000 1.0
C      1  0.5614120000000  0.4569880000000  0.4377840000000 1.0
C      1  0.4439710000000  0.4274250000000  0.5668540000000 1.0
C      1  0.4726050000000  0.4262890000000  0.4211170000000 1.0
C      1  0.5824990000000  0.4258910000000  0.5135710000000 1.0
C      1  0.4565150000000  0.5905410000000  0.4551620000000 1.0
C      1  0.5648700000000  0.5921690000000  0.4842660000000 1.0
C      1  0.4792460000000  0.5910560000000  0.5610210000000 1.0
C      1  0.5359450000000  0.6190920000000  0.5160310000000 1.0
C      1  0.4729220000000  0.6229520000000  0.5243270000000 1.0
C      1  0.4941850000000  0.6216730000000  0.4654280000000 1.0
C      1  0.4474610000000  0.4098080000000  0.4663990000000 1.0
C      1  0.5613970000000  0.4117180000000  0.4676370000000 1.0
C      1  0.4948830000000  0.4117610000000  0.5655040000000 1.0
C      1  0.4909170000000  0.3904240000000  0.4529970000000 1.0
C      1  0.5447250000000  0.3908390000000  0.5093210000000 1.0
C      1  0.4620940000000  0.3889470000000  0.5388800000000 1.0
C      1  0.4396220000000  0.5871290000000  0.5054870000000 1.0
C      1  0.5271490000000  0.5851710000000  0.4490590000000 1.0
C      1  0.5320480000000  0.5794710000000  0.5523150000000 1.0
C      1  0.6064980000000  0.4733910000000  0.5171650000000 1.0
C      1  0.4303030000000  0.4751740000000  0.5851750000000 1.0
C      1  0.4625840000000  0.4738670000000  0.3996800000000 1.0
C      1  0.5315100000000  0.4183370000000  0.4624730000000 1.0
C      1  0.5138460000000  0.4168410000000  0.5395480000000 1.0
C      1  0.4569930000000  0.4168860000000  0.4959900000000 1.0
C      1  0.5419410000000  0.5710320000000  0.4874690000000 1.0
C      1  0.4876900000000  0.5699210000000  0.5388970000000 1.0
C      1  0.4712190000000  0.5690680000000  0.4725720000000 1.0
C      1  0.4270250000000  0.5254200000000  0.4346720000000 1.0
C      1  0.5954210000000  0.5259090000000  0.4681900000000 1.0
C      1  0.4789950000000  0.5273730000000  0.5972620000000 1.0
C      1  0.4103910000000  0.5731570000000  0.4787730000000 1.0
C      1  0.5642220000000  0.5746340000000  0.4323880000000 1.0
C      1  0.5227630000000  0.5732890000000  0.5794480000000 1.0
C      1  0.4259250000000  0.5774020000000  0.4540490000000 1.0
C      1  0.5793930000000  0.5780610000000  0.4574230000000 1.0
C      1  0.4948970000000  0.5792500000000  0.5859140000000 1.0
C      1  0.5210750000000  0.4239120000000  0.4333570000000 1.0
C      1  0.5440420000000  0.4234100000000  0.5456030000000 1.0
C      1  0.4334140000000  0.4233370000000  0.5183300000000 1.0
C      1  0.4827780000000  0.4984690000000  0.3944790000000 1.0
C      1  0.6012400000000  0.4977780000000  0.5370240000000 1.0
C      1  0.4156330000000  0.4992430000000  0.5699430000000 1.0
C      1  0.5231930000000  0.4909340000000  0.4302950000000 1.0
C      1  0.5487420000000  0.4899530000000  0.5524950000000 1.0
C      1  0.4270070000000  0.4897850000000  0.5164670000000 1.0
C      1  0.5022710000000  0.4688800000000  0.4170010000000 1.0
C      1  0.5720130000000  0.4682370000000  0.5430220000000 1.0
C      1  0.4241810000000  0.4689850000000  0.5421330000000 1.0
C      1  0.5498430000000  0.4714950000000  0.5807460000000 1.0
C      1  0.4029120000000  0.4708750000000  0.5028920000000 1.0
C      1  0.5466930000000  0.4726550000000  0.4148290000000 1.0
C      1  0.5765270000000  0.5669680000000  0.5269730000000 1.0
C      1  0.4367550000000  0.5667550000000  0.5506850000000 1.0
C      1  0.4875360000000  0.5665690000000  0.4232570000000 1.0
C      1  0.5085060000000  0.4832810000000  0.3880270000000 1.0
C      1  0.5936340000000  0.4829970000000  0.5625630000000 1.0
C      1  0.3967040000000  0.4841110000000  0.5514360000000 1.0
C      1  0.5090750000000  0.3959600000000  0.5099830000000 1.0
C      1  0.4748890000000  0.3951140000000  0.5121150000000 1.0
C      1  0.5119980000000  0.3969020000000  0.4747510000000 1.0
C      1  0.4723490000000  0.4983650000000  0.5817590000000 1.0
C      1  0.4436620000000  0.4967410000000  0.4375250000000 1.0
C      1  0.5843750000000  0.4975160000000  0.4821660000000 1.0
C      1  0.5762640000000  0.4343480000000  0.4845470000000 1.0
C      1  0.4730350000000  0.4353420000000  0.5724380000000 1.0
C      1  0.4522880000000  0.4333510000000  0.4431020000000 1.0
C      1  0.4433920000000  0.4557100000000  0.4876980000000 1.0
C      1  0.5420860000000  0.4587600000000  0.4586450000000 1.0
C      1  0.5153210000000  0.4559760000000  0.5550110000000 1.0
C      1  0.4574800000000  0.4780590000000  0.5951340000000 1.0
C      1  0.4402560000000  0.4762560000000  0.4180920000000 1.0
C      1  0.6027990000000  0.4767940000000  0.4885440000000 1.0
C      1  0.4638880000000  0.4993220000000  0.4855900000000 1.0
C      1  0.5323840000000  0.5011560000000  0.4770030000000 1.0
C      1  0.5028630000000  0.5000190000000  0.5390980000000 1.0
C      1  0.4802790000000  0.4494720000000  0.4048000000000 1.0
C      1  0.5929330000000  0.4484400000000  0.5293640000000 1.0
C      1  0.4257920000000  0.4503970000000  0.5678060000000 1.0
C      1  0.4090040000000  0.4602100000000  0.4518650000000 1.0
C      1  0.5893660000000  0.4621550000000  0.4436480000000 1.0
C      1  0.5031190000000  0.4627140000000  0.6032830000000 1.0
C      1  0.5310370000000  0.5279560000000  0.4683380000000 1.0
C      1  0.5109850000000  0.5270440000000  0.5411550000000 1.0
C      1  0.4580010000000  0.5263060000000  0.4911440000000 1.0
C      1  0.4723190000000  0.5387050000000  0.5702750000000 1.0
C      1  0.4533430000000  0.5371920000000  0.4429440000000 1.0
C      1  0.5757160000000  0.5382660000000  0.4870350000000 1.0
C      1  0.4303860000000  0.4528100000000  0.4329550000000 1.0
C      1  0.5957210000000  0.4539910000000  0.4715810000000 1.0
C      1  0.4757630000000  0.4549880000000  0.5958530000000 1.0
C      1  0.4294820000000  0.5201690000000  0.5529040000000 1.0
C      1  0.4904020000000  0.5202650000000  0.4143540000000 1.0
C      1  0.5806600000000  0.5197650000000  0.5329940000000 1.0
C      1  0.4717870000000  0.5896950000000  0.4299120000000 1.0
C      1  0.5793990000000  0.5901770000000  0.5100000000000 1.0
C      1  0.4499930000000  0.5902580000000  0.5607100000000 1.0
C      1  0.3976400000000  0.4882000000000  0.4556580000000 1.0
C      1  0.5909260000000  0.4902660000000  0.4317610000000 1.0
C      1  0.5126040000000  0.4907990000000  0.6097340000000 1.0
C      1  0.4996910000000  0.5933480000000  0.5021780000000 1.0
END
