TITL C-862128-1543-1485 38.2951466887429 125000 -893.642239577275 0 0 148 (C1) n - 1
REM
REM in /home/nfs/bkarasulu/CARBON/AIRSS/Generating-Clusters/TERSOFF/Higher-Symm/FIRE-HFTN
REM
REM
REM
REM
REM
REM ./C.cell (b20cbc046b6831c77cfcea5457e17084)
REM AIRSS Version 0.9.1 bugfix July 2018 build 013d7b7c2542+ Fri, 06 Jul 2018 19:26:36 +0100
REM compiler GCC version 9.2.1 20190827 (Red Hat 9.2.1-1)
REM options -cpp -mtune=generic -march=x86-64 -g -O0 -fpre-include=/usr/include/finclude/math-vector-fortran.h
REM seed 1997816666 703641195 1980977295 1988666571 -749404558 -496458819 2146204070 -261851955 72755613 -1203664069 1008389373 1499333759 2003773856 -1508068053 -512815595 2030919210 -1406781691 1927990014 -1583407943 -1336471755 534710746 578822639 930294367 -1552816688 -2037510785 -1368165359 1407413339 -782759292 -384097270 1428685939 -2144843426 -1179416516 249785408
REM
CELL 1.54180   50.00000   50.00000   50.00000   90.00000   90.00000   90.00000
LATT -1
SFAC C  
C      1  0.4899170000000  0.5187290000000  0.4224880000000 1.0
C      1  0.4950150000000  0.5589990000000  0.4449400000000 1.0
C      1  0.4917200000000  0.5847060000000  0.4817810000000 1.0
C      1  0.4918510000000  0.5783910000000  0.5297090000000 1.0
C      1  0.4874120000000  0.5445990000000  0.5579300000000 1.0
C      1  0.4870070000000  0.5070440000000  0.5806820000000 1.0
C      1  0.4917200000000  0.4597130000000  0.5725540000000 1.0
C      1  0.4895980000000  0.4277310000000  0.5404120000000 1.0
C      1  0.4941040000000  0.4191990000000  0.4957510000000 1.0
C      1  0.4895770000000  0.4353220000000  0.4531970000000 1.0
C      1  0.4924580000000  0.4722420000000  0.4267690000000 1.0
C      1  0.5370900000000  0.5044440000000  0.5936110000000 1.0
C      1  0.5396040000000  0.4531240000000  0.5868890000000 1.0
C      1  0.5410070000000  0.4223230000000  0.5449350000000 1.0
C      1  0.5437170000000  0.4090780000000  0.4946550000000 1.0
C      1  0.5409730000000  0.4301760000000  0.4471430000000 1.0
C      1  0.5403790000000  0.4670390000000  0.4103820000000 1.0
C      1  0.5401170000000  0.5188490000000  0.4085320000000 1.0
C      1  0.5441330000000  0.5644410000000  0.4328030000000 1.0
C      1  0.5432420000000  0.5870940000000  0.4795430000000 1.0
C      1  0.5424130000000  0.5854350000000  0.5314470000000 1.0
C      1  0.5381090000000  0.5493440000000  0.5681440000000 1.0
C      1  0.6215530000000  0.4752720000000  0.4589970000000 1.0
C      1  0.6326420000000  0.5019310000000  0.4555170000000 1.0
C      1  0.6198480000000  0.5263510000000  0.4655460000000 1.0
C      1  0.6344190000000  0.5436040000000  0.4840110000000 1.0
C      1  0.6303620000000  0.5442600000000  0.5128110000000 1.0
C      1  0.6433540000000  0.5264930000000  0.5318170000000 1.0
C      1  0.6294070000000  0.5088500000000  0.5502640000000 1.0
C      1  0.6157370000000  0.4843450000000  0.5426390000000 1.0
C      1  0.6297720000000  0.4635430000000  0.5279740000000 1.0
C      1  0.6190050000000  0.4521670000000  0.5034490000000 1.0
C      1  0.6328530000000  0.4573300000000  0.4785790000000 1.0
C      1  0.3734650000000  0.5320320000000  0.4918810000000 1.0
C      1  0.3822930000000  0.5470540000000  0.5150150000000 1.0
C      1  0.3999740000000  0.5368800000000  0.5355440000000 1.0
C      1  0.4113870000000  0.5101580000000  0.5358350000000 1.0
C      1  0.3940910000000  0.4869340000000  0.5319050000000 1.0
C      1  0.4034110000000  0.4602260000000  0.5251630000000 1.0
C      1  0.4179990000000  0.4533160000000  0.5008630000000 1.0
C      1  0.4036240000000  0.4444170000000  0.4772330000000 1.0
C      1  0.3844820000000  0.4604200000000  0.4625420000000 1.0
C      1  0.3718670000000  0.4844760000000  0.4726070000000 1.0
C      1  0.3860810000000  0.5078750000000  0.4820600000000 1.0
C      1  0.4243130000000  0.3990560000000  0.4658600000000 1.0
C      1  0.4214210000000  0.4401630000000  0.4201330000000 1.0
C      1  0.4204360000000  0.4938460000000  0.4041110000000 1.0
C      1  0.4226330000000  0.5532970000000  0.4143670000000 1.0
C      1  0.4262380000000  0.5979220000000  0.4476100000000 1.0
C      1  0.4273090000000  0.6163800000000  0.5085420000000 1.0
C      1  0.4209730000000  0.5846310000000  0.5591020000000 1.0
C      1  0.4170460000000  0.5363810000000  0.5897700000000 1.0
C      1  0.4197020000000  0.4761560000000  0.5989820000000 1.0
C      1  0.4218750000000  0.4249430000000  0.5747260000000 1.0
C      1  0.4246530000000  0.3935050000000  0.5218240000000 1.0
C      1  0.5505100000000  0.4784850000000  0.5962960000000 1.0
C      1  0.5539040000000  0.4373310000000  0.5667190000000 1.0
C      1  0.5559500000000  0.4152660000000  0.5206230000000 1.0
C      1  0.5559180000000  0.4191320000000  0.4699310000000 1.0
C      1  0.5542320000000  0.4478410000000  0.4276920000000 1.0
C      1  0.5527400000000  0.4927610000000  0.4038850000000 1.0
C      1  0.5555190000000  0.5418980000000  0.4179470000000 1.0
C      1  0.5572660000000  0.5746950000000  0.4568900000000 1.0
C      1  0.5560550000000  0.5893100000000  0.5057850000000 1.0
C      1  0.5536960000000  0.5673770000000  0.5512800000000 1.0
C      1  0.5510930000000  0.5268230000000  0.5813370000000 1.0
C      1  0.5027310000000  0.4488830000000  0.4984060000000 1.0
C      1  0.4900150000000  0.4592300000000  0.4718630000000 1.0
C      1  0.5039790000000  0.4818120000000  0.4541640000000 1.0
C      1  0.4925780000000  0.5119530000000  0.4523470000000 1.0
C      1  0.5040520000000  0.5381830000000  0.4671840000000 1.0
C      1  0.4891750000000  0.5554650000000  0.4871730000000 1.0
C      1  0.4956650000000  0.5532370000000  0.5158870000000 1.0
C      1  0.4924560000000  0.5252330000000  0.5315650000000 1.0
C      1  0.4926320000000  0.5014210000000  0.5530620000000 1.0
C      1  0.5022550000000  0.4735560000000  0.5469060000000 1.0
C      1  0.4899000000000  0.4543910000000  0.5262980000000 1.0
C      1  0.4641110000000  0.5885160000000  0.5313920000000 1.0
C      1  0.4597250000000  0.5515660000000  0.5654000000000 1.0
C      1  0.4591140000000  0.5068320000000  0.5883050000000 1.0
C      1  0.4621390000000  0.4568160000000  0.5773740000000 1.0
C      1  0.4629780000000  0.4178180000000  0.5451300000000 1.0
C      1  0.4648730000000  0.4109830000000  0.4950560000000 1.0
C      1  0.4628060000000  0.4267290000000  0.4470110000000 1.0
C      1  0.4627310000000  0.4707240000000  0.4219900000000 1.0
C      1  0.4622900000000  0.5211420000000  0.4147510000000 1.0
C      1  0.4654830000000  0.5651420000000  0.4401830000000 1.0
C      1  0.4656730000000  0.5970910000000  0.4803610000000 1.0
C      1  0.5525760000000  0.5285250000000  0.4576490000000 1.0
C      1  0.5322090000000  0.5366800000000  0.4765060000000 1.0
C      1  0.5394760000000  0.5396200000000  0.5052890000000 1.0
C      1  0.5253250000000  0.5243060000000  0.5272520000000 1.0
C      1  0.5411010000000  0.5043110000000  0.5425390000000 1.0
C      1  0.5310840000000  0.4770550000000  0.5425290000000 1.0
C      1  0.5452380000000  0.4590020000000  0.5249270000000 1.0
C      1  0.5323080000000  0.4532760000000  0.4992860000000 1.0
C      1  0.5467770000000  0.4609880000000  0.4750780000000 1.0
C      1  0.5339460000000  0.4801840000000  0.4564830000000 1.0
C      1  0.5505350000000  0.5008850000000  0.4450290000000 1.0
C      1  0.4622420000000  0.5113970000000  0.4569550000000 1.0
C      1  0.4492280000000  0.5356240000000  0.4652460000000 1.0
C      1  0.4595970000000  0.5517140000000  0.4865770000000 1.0
C      1  0.4486340000000  0.5493840000000  0.5130810000000 1.0
C      1  0.4584580000000  0.5283900000000  0.5304180000000 1.0
C      1  0.4403020000000  0.5066090000000  0.5386290000000 1.0
C      1  0.4506110000000  0.4801690000000  0.5444250000000 1.0
C      1  0.4613860000000  0.4619050000000  0.5246130000000 1.0
C      1  0.4469490000000  0.4567990000000  0.5000400000000 1.0
C      1  0.4603160000000  0.4647300000000  0.4753220000000 1.0
C      1  0.4492390000000  0.4860680000000  0.4597720000000 1.0
C      1  0.5844630000000  0.5502530000000  0.4863510000000 1.0
C      1  0.5680710000000  0.5450270000000  0.5097380000000 1.0
C      1  0.5800570000000  0.5328460000000  0.5331990000000 1.0
C      1  0.5702440000000  0.5078150000000  0.5440440000000 1.0
C      1  0.5864690000000  0.4833670000000  0.5409410000000 1.0
C      1  0.5744990000000  0.4610920000000  0.5253570000000 1.0
C      1  0.5893720000000  0.4521180000000  0.5016470000000 1.0
C      1  0.5767190000000  0.4585240000000  0.4755230000000 1.0
C      1  0.5926360000000  0.4747220000000  0.4565240000000 1.0
C      1  0.5807120000000  0.4991990000000  0.4472880000000 1.0
C      1  0.5883330000000  0.5304150000000  0.4625910000000 1.0
C      1  0.5166410000000  0.5983040000000  0.4754990000000 1.0
C      1  0.5150270000000  0.5947470000000  0.5350400000000 1.0
C      1  0.5099310000000  0.5550690000000  0.5734590000000 1.0
C      1  0.5086310000000  0.5071670000000  0.6002140000000 1.0
C      1  0.5112910000000  0.4486270000000  0.5903740000000 1.0
C      1  0.5135540000000  0.4128990000000  0.5481880000000 1.0
C      1  0.5159100000000  0.4004160000000  0.4940110000000 1.0
C      1  0.5133350000000  0.4218490000000  0.4426420000000 1.0
C      1  0.5116820000000  0.4642980000000  0.4067570000000 1.0
C      1  0.5117170000000  0.5220910000000  0.4031100000000 1.0
C      1  0.5160150000000  0.5707360000000  0.4289810000000 1.0
C      1  0.4464930000000  0.4799830000000  0.5884370000000 1.0
C      1  0.4483410000000  0.4329200000000  0.5659020000000 1.0
C      1  0.4502500000000  0.4071430000000  0.5208180000000 1.0
C      1  0.4500810000000  0.4120050000000  0.4691150000000 1.0
C      1  0.4483210000000  0.4456520000000  0.4295270000000 1.0
C      1  0.4479000000000  0.4953210000000  0.4134030000000 1.0
C      1  0.4495640000000  0.5465580000000  0.4228590000000 1.0
C      1  0.4518370000000  0.5870740000000  0.4559590000000 1.0
C      1  0.4518730000000  0.6009800000000  0.5067490000000 1.0
C      1  0.4474990000000  0.5751560000000  0.5521860000000 1.0
C      1  0.4444240000000  0.5317380000000  0.5814250000000 1.0
C      1  0.5077990000000  0.4909370000000  0.4949680000000 1.0
C      1  0.5355600000000  0.4990110000000  0.4953240000000 1.0
C      1  0.4347120000000  0.5129790000000  0.4974920000000 1.0
C      1  0.4859030000000  0.5059080000000  0.5070340000000 1.0
C      1  0.4584410000000  0.4971190000000  0.5019590000000 1.0
END
