TITL C-862503-991-471 0.00956906054474517 125000 -1098.00221410213 0 0 194 (C1) n - 1
REM
REM in /home/nfs/bkarasulu/CARBON/AIRSS/Generating-Clusters/TERSOFF/Higher-Symm/FIRE-HFTN
REM
REM
REM
REM
REM
REM ./C.cell (b20cbc046b6831c77cfcea5457e17084)
REM AIRSS Version 0.9.1 bugfix July 2018 build 013d7b7c2542+ Fri, 06 Jul 2018 19:26:36 +0100
REM compiler GCC version 9.2.1 20190827 (Red Hat 9.2.1-1)
REM options -cpp -mtune=generic -march=x86-64 -g -O0 -fpre-include=/usr/include/finclude/math-vector-fortran.h
REM seed -262833191 -657094800 1897496088 -803989190 -2033017127 -1617388084 1733413804 -34532571 1660483425 734452172 -53973819 -1018253933 -306413092 1099150132 -337175631 -1193278651 -1710297815 -275535706 -179490520 254840932 -1149390034 308730301 1090375534 -657741357 -402310551 -1636025064 -1517398979 -1120860342 -1210952887 239312136 -1244210518 -529931079 88467754
REM
CELL 1.54180   50.00000   50.00000   50.00000   90.00000   90.00000   90.00000
LATT -1
SFAC C  
C      1  0.5895240000000  0.5515610000000  0.5552090000000 1.0
C      1  0.4794850000000  0.5992700000000  0.5561930000000 1.0
C      1  0.3973430000000  0.5111280000000  0.5561390000000 1.0
C      1  0.4576980000000  0.4065640000000  0.5550000000000 1.0
C      1  0.5743490000000  0.4307240000000  0.5569460000000 1.0
C      1  0.4501110000000  0.4963810000000  0.4702990000000 1.0
C      1  0.4894210000000  0.4535110000000  0.4696350000000 1.0
C      1  0.5412980000000  0.4758350000000  0.4699410000000 1.0
C      1  0.5361560000000  0.5308390000000  0.4698540000000 1.0
C      1  0.4814570000000  0.5443740000000  0.4698950000000 1.0
C      1  0.5674170000000  0.5197150000000  0.4831360000000 1.0
C      1  0.5019450000000  0.5684600000000  0.4832570000000 1.0
C      1  0.4341310000000  0.5232530000000  0.4838010000000 1.0
C      1  0.4572320000000  0.4459840000000  0.4829650000000 1.0
C      1  0.5398150000000  0.4438470000000  0.4831860000000 1.0
C      1  0.5103440000000  0.4321010000000  0.4743540000000 1.0
C      1  0.5694140000000  0.4873400000000  0.4771410000000 1.0
C      1  0.5323740000000  0.5608300000000  0.4744170000000 1.0
C      1  0.4514950000000  0.5493590000000  0.4754780000000 1.0
C      1  0.4366180000000  0.4696630000000  0.4751780000000 1.0
C      1  0.4987980000000  0.4705120000000  0.5897900000000 1.0
C      1  0.5357960000000  0.4900390000000  0.5880380000000 1.0
C      1  0.5226920000000  0.5297910000000  0.5872650000000 1.0
C      1  0.4812850000000  0.5235940000000  0.5889060000000 1.0
C      1  0.4604530000000  0.4872820000000  0.5865210000000 1.0
C      1  0.5339590000000  0.4276320000000  0.5087920000000 1.0
C      1  0.5822810000000  0.5119800000000  0.5086080000000 1.0
C      1  0.5138200000000  0.5804330000000  0.5085560000000 1.0
C      1  0.4280740000000  0.5383030000000  0.5096080000000 1.0
C      1  0.4405370000000  0.4425690000000  0.5082110000000 1.0
C      1  0.5881140000000  0.4986170000000  0.4390120000000 1.0
C      1  0.5277810000000  0.5830530000000  0.4390780000000 1.0
C      1  0.4293610000000  0.5525120000000  0.4391380000000 1.0
C      1  0.4283820000000  0.4493950000000  0.4385990000000 1.0
C      1  0.5264920000000  0.4160780000000  0.4390540000000 1.0
C      1  0.6059970000000  0.5268040000000  0.5462930000000 1.0
C      1  0.5079150000000  0.6075470000000  0.5464000000000 1.0
C      1  0.3994700000000  0.5407200000000  0.5472120000000 1.0
C      1  0.4295250000000  0.4161890000000  0.5454140000000 1.0
C      1  0.5551540000000  0.4084110000000  0.5470990000000 1.0
C      1  0.5305830000000  0.5029290000000  0.4222320000000 1.0
C      1  0.5070390000000  0.5304930000000  0.4230340000000 1.0
C      1  0.4736190000000  0.5162330000000  0.4214080000000 1.0
C      1  0.4770220000000  0.4801240000000  0.4213510000000 1.0
C      1  0.5123620000000  0.4716250000000  0.4229830000000 1.0
C      1  0.5037610000000  0.6065680000000  0.5163690000000 1.0
C      1  0.3998030000000  0.5370190000000  0.5170190000000 1.0
C      1  0.4337810000000  0.4151690000000  0.5153620000000 1.0
C      1  0.5572090000000  0.4116630000000  0.5170620000000 1.0
C      1  0.6039060000000  0.5299290000000  0.5161610000000 1.0
C      1  0.5606700000000  0.5056480000000  0.5282040000000 1.0
C      1  0.5143240000000  0.5583240000000  0.5283560000000 1.0
C      1  0.4486710000000  0.5293750000000  0.5295740000000 1.0
C      1  0.4528120000000  0.4603320000000  0.5286270000000 1.0
C      1  0.5225980000000  0.4470930000000  0.5288470000000 1.0
C      1  0.4710820000000  0.4943220000000  0.5566100000000 1.0
C      1  0.4950850000000  0.4737360000000  0.5581710000000 1.0
C      1  0.5256580000000  0.4879360000000  0.5555450000000 1.0
C      1  0.5205270000000  0.5200890000000  0.5552200000000 1.0
C      1  0.4876300000000  0.5240030000000  0.5579300000000 1.0
C      1  0.4525410000000  0.5750730000000  0.5086510000000 1.0
C      1  0.4109990000000  0.4775570000000  0.5075010000000 1.0
C      1  0.4941690000000  0.4122510000000  0.5076410000000 1.0
C      1  0.5851330000000  0.4651970000000  0.5091520000000 1.0
C      1  0.5584810000000  0.5695130000000  0.5070470000000 1.0
C      1  0.5224760000000  0.5592050000000  0.4196440000000 1.0
C      1  0.4498850000000  0.5400570000000  0.4188850000000 1.0
C      1  0.4468510000000  0.4651510000000  0.4188010000000 1.0
C      1  0.5170630000000  0.4390880000000  0.4198910000000 1.0
C      1  0.5648560000000  0.4969780000000  0.4181170000000 1.0
C      1  0.4583670000000  0.4890640000000  0.5231730000000 1.0
C      1  0.4969650000000  0.4635490000000  0.5233770000000 1.0
C      1  0.5398160000000  0.4848330000000  0.5225050000000 1.0
C      1  0.5275720000000  0.5323060000000  0.5220750000000 1.0
C      1  0.4787670000000  0.5302500000000  0.5234400000000 1.0
C      1  0.4822620000000  0.4385250000000  0.5081870000000 1.0
C      1  0.5560950000000  0.4631910000000  0.5092930000000 1.0
C      1  0.5525440000000  0.5415150000000  0.5079720000000 1.0
C      1  0.4772810000000  0.5598810000000  0.5086940000000 1.0
C      1  0.4327870000000  0.4966760000000  0.5085580000000 1.0
C      1  0.5238760000000  0.4884340000000  0.4942770000000 1.0
C      1  0.5189390000000  0.5184850000000  0.4941390000000 1.0
C      1  0.4886540000000  0.5229520000000  0.4923920000000 1.0
C      1  0.4727640000000  0.4960930000000  0.4932450000000 1.0
C      1  0.4951570000000  0.4751200000000  0.4922540000000 1.0
C      1  0.5504460000000  0.5508000000000  0.4113460000000 1.0
C      1  0.4672520000000  0.5639690000000  0.4115290000000 1.0
C      1  0.4294890000000  0.4889920000000  0.4112680000000 1.0
C      1  0.4893750000000  0.4296630000000  0.4116780000000 1.0
C      1  0.5643750000000  0.4672930000000  0.4109430000000 1.0
C      1  0.3844920000000  0.5121850000000  0.5062730000000 1.0
C      1  0.4539970000000  0.3944380000000  0.5056170000000 1.0
C      1  0.5846300000000  0.4218530000000  0.5070050000000 1.0
C      1  0.6008700000000  0.5587460000000  0.5056120000000 1.0
C      1  0.4753640000000  0.6123700000000  0.5067510000000 1.0
C      1  0.4645770000000  0.5877520000000  0.4317030000000 1.0
C      1  0.4056170000000  0.4939050000000  0.4308880000000 1.0
C      1  0.4772070000000  0.4084600000000  0.4309980000000 1.0
C      1  0.5798930000000  0.4493480000000  0.4317110000000 1.0
C      1  0.5726350000000  0.5607060000000  0.4307660000000 1.0
C      1  0.4978900000000  0.5278870000000  0.3891970000000 1.0
C      1  0.4728350000000  0.5064660000000  0.3881330000000 1.0
C      1  0.4857310000000  0.4759940000000  0.3881840000000 1.0
C      1  0.5184850000000  0.4792060000000  0.3895570000000 1.0
C      1  0.5262550000000  0.5110880000000  0.3888740000000 1.0
C      1  0.6169110000000  0.5144070000000  0.4793670000000 1.0
C      1  0.5221200000000  0.6152870000000  0.4796150000000 1.0
C      1  0.3971620000000  0.5567240000000  0.4800240000000 1.0
C      1  0.4138900000000  0.4195140000000  0.4786290000000 1.0
C      1  0.5494240000000  0.3932730000000  0.4801140000000 1.0
C      1  0.4809220000000  0.6001290000000  0.4548360000000 1.0
C      1  0.3982770000000  0.5134340000000  0.4539460000000 1.0
C      1  0.4565450000000  0.4080430000000  0.4540300000000 1.0
C      1  0.5741670000000  0.4292470000000  0.4547000000000 1.0
C      1  0.5903620000000  0.5489960000000  0.4535330000000 1.0
C      1  0.5408860000000  0.5045740000000  0.4517220000000 1.0
C      1  0.5073000000000  0.5294980000000  0.4547170000000 1.0
C      1  0.4671950000000  0.5177400000000  0.4527570000000 1.0
C      1  0.4716150000000  0.4761310000000  0.4529000000000 1.0
C      1  0.5133420000000  0.4730620000000  0.4544700000000 1.0
C      1  0.4613010000000  0.6077110000000  0.5335370000000 1.0
C      1  0.3839430000000  0.4971070000000  0.5329560000000 1.0
C      1  0.4682710000000  0.3900420000000  0.5321190000000 1.0
C      1  0.5943160000000  0.4327900000000  0.5341450000000 1.0
C      1  0.5920110000000  0.5710030000000  0.5322540000000 1.0
C      1  0.4411060000000  0.5814390000000  0.4792160000000 1.0
C      1  0.4023510000000  0.4691160000000  0.4777480000000 1.0
C      1  0.4997690000000  0.4000380000000  0.4785940000000 1.0
C      1  0.5966710000000  0.4672570000000  0.4790710000000 1.0
C      1  0.5604740000000  0.5816860000000  0.4777830000000 1.0
C      1  0.4156310000000  0.4432800000000  0.5499050000000 1.0
C      1  0.5252990000000  0.4047800000000  0.5520880000000 1.0
C      1  0.6001900000000  0.4968890000000  0.5507870000000 1.0
C      1  0.5347870000000  0.5932720000000  0.5504110000000 1.0
C      1  0.4219500000000  0.5611710000000  0.5521720000000 1.0
C      1  0.4013490000000  0.4537240000000  0.5260760000000 1.0
C      1  0.5113410000000  0.3948280000000  0.5276040000000 1.0
C      1  0.6064020000000  0.4798590000000  0.5273010000000 1.0
C      1  0.5524160000000  0.5938010000000  0.5263730000000 1.0
C      1  0.4275780000000  0.5777620000000  0.5279700000000 1.0
C      1  0.4074590000000  0.5409050000000  0.4563620000000 1.0
C      1  0.4326950000000  0.4247690000000  0.4557310000000 1.0
C      1  0.5506640000000  0.4124050000000  0.4566530000000 1.0
C      1  0.5992850000000  0.5211900000000  0.4558240000000 1.0
C      1  0.5099670000000  0.6003020000000  0.4565820000000 1.0
C      1  0.4528290000000  0.5331620000000  0.5970970000000 1.0
C      1  0.4467740000000  0.4615100000000  0.5960100000000 1.0
C      1  0.5159100000000  0.4460320000000  0.5959950000000 1.0
C      1  0.5630490000000  0.5005300000000  0.5956530000000 1.0
C      1  0.5205690000000  0.5586880000000  0.5958580000000 1.0
C      1  0.5424470000000  0.4595480000000  0.3931890000000 1.0
C      1  0.5517520000000  0.5283490000000  0.3927740000000 1.0
C      1  0.4895770000000  0.5578280000000  0.3935760000000 1.0
C      1  0.4419110000000  0.5079590000000  0.3928100000000 1.0
C      1  0.4752700000000  0.4469380000000  0.3927700000000 1.0
C      1  0.4222140000000  0.4994340000000  0.5699500000000 1.0
C      1  0.4751270000000  0.4276250000000  0.5693420000000 1.0
C      1  0.5607870000000  0.4557150000000  0.5695130000000 1.0
C      1  0.5625170000000  0.5453570000000  0.5685990000000 1.0
C      1  0.4772200000000  0.5715390000000  0.5698930000000 1.0
C      1  0.5026180000000  0.4010940000000  0.4471120000000 1.0
C      1  0.5945960000000  0.4712350000000  0.4476500000000 1.0
C      1  0.5562090000000  0.5815140000000  0.4467140000000 1.0
C      1  0.4398020000000  0.5785510000000  0.4476540000000 1.0
C      1  0.4061650000000  0.4671940000000  0.4463830000000 1.0
C      1  0.5660780000000  0.5296440000000  0.5951030000000 1.0
C      1  0.4937140000000  0.5701140000000  0.5960050000000 1.0
C      1  0.4299430000000  0.5142240000000  0.5966930000000 1.0
C      1  0.4624680000000  0.4371190000000  0.5956270000000 1.0
C      1  0.5452060000000  0.4499210000000  0.5960890000000 1.0
C      1  0.5893930000000  0.4356060000000  0.4797330000000 1.0
C      1  0.5888510000000  0.5660950000000  0.4783160000000 1.0
C      1  0.4644470000000  0.6031930000000  0.4798690000000 1.0
C      1  0.3893060000000  0.4989610000000  0.4786850000000 1.0
C      1  0.4681990000000  0.3960200000000  0.4789490000000 1.0
C      1  0.4486110000000  0.5542200000000  0.5729380000000 1.0
C      1  0.4282630000000  0.4655460000000  0.5705700000000 1.0
C      1  0.5080940000000  0.4259340000000  0.5722340000000 1.0
C      1  0.5757470000000  0.4866610000000  0.5706500000000 1.0
C      1  0.5374920000000  0.5672750000000  0.5705680000000 1.0
C      1  0.4129490000000  0.5772850000000  0.4949750000000 1.0
C      1  0.3982190000000  0.4404180000000  0.4927710000000 1.0
C      1  0.5243780000000  0.3860490000000  0.4950140000000 1.0
C      1  0.6165630000000  0.4884200000000  0.4938920000000 1.0
C      1  0.5471620000000  0.6075290000000  0.4934410000000 1.0
C      1  0.5620180000000  0.5136120000000  0.5558020000000 1.0
C      1  0.5074230000000  0.5619680000000  0.5561520000000 1.0
C      1  0.4422670000000  0.5248310000000  0.5573420000000 1.0
C      1  0.4560680000000  0.4526710000000  0.5560790000000 1.0
C      1  0.5301910000000  0.4462150000000  0.5565330000000 1.0
C      1  0.4958740000000  0.4997070000000  0.4582570000000 1.0
C      1  0.5061880000000  0.5031230000000  0.6339840000000 1.0
C      1  0.4988130000000  0.4998650000000  0.5258030000000 1.0
C      1  0.5061910000000  0.5026120000000  0.6045400000000 1.0
END
