TITL C-862500-986-113 25.6301906773213 125000 -711.002432800979 0 0 125 (C1) n - 1
REM
REM in /home/nfs/bkarasulu/CARBON/AIRSS/Generating-Clusters/TERSOFF/Higher-Symm/FIRE-HFTN
REM
REM
REM
REM
REM
REM ./C.cell (b20cbc046b6831c77cfcea5457e17084)
REM AIRSS Version 0.9.1 bugfix July 2018 build 013d7b7c2542+ Fri, 06 Jul 2018 19:26:36 +0100
REM compiler GCC version 9.2.1 20190827 (Red Hat 9.2.1-1)
REM options -cpp -mtune=generic -march=x86-64 -g -O0 -fpre-include=/usr/include/finclude/math-vector-fortran.h
REM seed -1315101483 174120736 -400376406 1570395200 -601917047 -2067020106 1418790011 828482366 -1068776921 -42135972 1785946403 595905930 935495158 -543350945 -1762125172 -1382989313 -1505700990 1289538990 -1011199562 -440714872 1602722019 213606905 -829911379 904849335 1847779495 1938188925 -251517185 -264414403 44788521 -1716572251 1847632877 -96978022 -2008918335
REM
CELL 1.54180   50.00000   50.00000   50.00000   90.00000   90.00000   90.00000
LATT -1
SFAC C  
C      1  0.4915200000000  0.5760490000000  0.5072330000000 1.0
C      1  0.4301830000000  0.4124150000000  0.4874820000000 1.0
C      1  0.5109710000000  0.4894080000000  0.4796730000000 1.0
C      1  0.4756040000000  0.4228280000000  0.5479640000000 1.0
C      1  0.4837170000000  0.5171340000000  0.4098650000000 1.0
C      1  0.4821190000000  0.4556190000000  0.5097520000000 1.0
C      1  0.4261330000000  0.4765210000000  0.4385340000000 1.0
C      1  0.5125050000000  0.6002570000000  0.5471340000000 1.0
C      1  0.4894870000000  0.4144540000000  0.5725140000000 1.0
C      1  0.4864550000000  0.4372730000000  0.4682380000000 1.0
C      1  0.5577360000000  0.4686650000000  0.4522840000000 1.0
C      1  0.6102320000000  0.5246730000000  0.4479770000000 1.0
C      1  0.5734130000000  0.5484380000000  0.4328860000000 1.0
C      1  0.4242140000000  0.5335570000000  0.5054970000000 1.0
C      1  0.4583210000000  0.4864700000000  0.5510640000000 1.0
C      1  0.5045260000000  0.4707340000000  0.4359170000000 1.0
C      1  0.5440090000000  0.4122040000000  0.5313470000000 1.0
C      1  0.5177360000000  0.4576320000000  0.5803900000000 1.0
C      1  0.4438050000000  0.5734470000000  0.5413750000000 1.0
C      1  0.5192770000000  0.5690280000000  0.5927970000000 1.0
C      1  0.4643400000000  0.4807410000000  0.4909760000000 1.0
C      1  0.5056120000000  0.5485940000000  0.5123590000000 1.0
C      1  0.5571710000000  0.4997790000000  0.4704740000000 1.0
C      1  0.4273060000000  0.5216220000000  0.5684130000000 1.0
C      1  0.4908710000000  0.6358480000000  0.5016260000000 1.0
C      1  0.4980190000000  0.4196640000000  0.4185790000000 1.0
C      1  0.4024060000000  0.4897570000000  0.5024120000000 1.0
C      1  0.4694600000000  0.5221940000000  0.5228370000000 1.0
C      1  0.5467460000000  0.5735390000000  0.5247090000000 1.0
C      1  0.4779700000000  0.5438720000000  0.5701510000000 1.0
C      1  0.4298670000000  0.5039360000000  0.5437670000000 1.0
C      1  0.5324240000000  0.5075390000000  0.4828310000000 1.0
C      1  0.5328020000000  0.4731980000000  0.5116670000000 1.0
C      1  0.5063240000000  0.4320150000000  0.5892070000000 1.0
C      1  0.4620180000000  0.5829920000000  0.4674930000000 1.0
C      1  0.4550040000000  0.4925330000000  0.5806330000000 1.0
C      1  0.4063110000000  0.4887030000000  0.5321100000000 1.0
C      1  0.5731350000000  0.4839550000000  0.5841630000000 1.0
C      1  0.5417630000000  0.5751650000000  0.5750270000000 1.0
C      1  0.4702250000000  0.5385820000000  0.4598290000000 1.0
C      1  0.4192650000000  0.4575670000000  0.4625830000000 1.0
C      1  0.5287780000000  0.5060510000000  0.5517340000000 1.0
C      1  0.5568290000000  0.4073840000000  0.4833470000000 1.0
C      1  0.5731930000000  0.5252060000000  0.5417380000000 1.0
C      1  0.4347260000000  0.4166990000000  0.5171340000000 1.0
C      1  0.4786650000000  0.5080210000000  0.4989410000000 1.0
C      1  0.4669270000000  0.4997380000000  0.4442080000000 1.0
C      1  0.4406630000000  0.5298570000000  0.4313040000000 1.0
C      1  0.5812970000000  0.5836090000000  0.4883870000000 1.0
C      1  0.5809260000000  0.4352050000000  0.5115920000000 1.0
C      1  0.4877590000000  0.5243110000000  0.4771580000000 1.0
C      1  0.4098060000000  0.4152010000000  0.5407830000000 1.0
C      1  0.4905870000000  0.5848870000000  0.5368050000000 1.0
C      1  0.5447680000000  0.5248630000000  0.5367520000000 1.0
C      1  0.5885900000000  0.4757800000000  0.4564360000000 1.0
C      1  0.4772610000000  0.4496970000000  0.5376780000000 1.0
C      1  0.5011520000000  0.5460690000000  0.5897740000000 1.0
C      1  0.4540150000000  0.4252880000000  0.4420360000000 1.0
C      1  0.5327350000000  0.4471870000000  0.4974750000000 1.0
C      1  0.5068740000000  0.5823950000000  0.4805790000000 1.0
C      1  0.4871040000000  0.5293800000000  0.5447910000000 1.0
C      1  0.5209540000000  0.4683370000000  0.4114860000000 1.0
C      1  0.4352720000000  0.4322630000000  0.4648270000000 1.0
C      1  0.4271190000000  0.5599860000000  0.4946350000000 1.0
C      1  0.4360810000000  0.4461180000000  0.5303090000000 1.0
C      1  0.4719260000000  0.5383260000000  0.4275190000000 1.0
C      1  0.4934620000000  0.4455680000000  0.4042830000000 1.0
C      1  0.5675560000000  0.4701940000000  0.5590270000000 1.0
C      1  0.5392930000000  0.4565170000000  0.5583110000000 1.0
C      1  0.4996600000000  0.4798030000000  0.5770270000000 1.0
C      1  0.4266260000000  0.4482220000000  0.5831020000000 1.0
C      1  0.4379950000000  0.5027830000000  0.4466700000000 1.0
C      1  0.4401160000000  0.4643110000000  0.4154120000000 1.0
C      1  0.6017060000000  0.4723000000000  0.4840800000000 1.0
C      1  0.4679120000000  0.4599030000000  0.4666420000000 1.0
C      1  0.4901440000000  0.5785000000000  0.4553880000000 1.0
C      1  0.5672010000000  0.5189540000000  0.4262680000000 1.0
C      1  0.4945980000000  0.4158440000000  0.4471450000000 1.0
C      1  0.4961500000000  0.5584220000000  0.4334230000000 1.0
C      1  0.5331700000000  0.5476840000000  0.5225800000000 1.0
C      1  0.4391050000000  0.5001130000000  0.4756670000000 1.0
C      1  0.5244820000000  0.5495480000000  0.4264720000000 1.0
C      1  0.4605020000000  0.4435910000000  0.4187230000000 1.0
C      1  0.5353220000000  0.5194700000000  0.4208190000000 1.0
C      1  0.4586180000000  0.4051090000000  0.5321590000000 1.0
C      1  0.5544860000000  0.5871580000000  0.4993080000000 1.0
C      1  0.5541590000000  0.4245620000000  0.5072590000000 1.0
C      1  0.4154030000000  0.4455660000000  0.5553890000000 1.0
C      1  0.5147130000000  0.4675480000000  0.4617400000000 1.0
C      1  0.3966440000000  0.4663820000000  0.5470800000000 1.0
C      1  0.5531650000000  0.5008980000000  0.5961060000000 1.0
C      1  0.5388170000000  0.5885380000000  0.5492030000000 1.0
C      1  0.5813300000000  0.4798940000000  0.5330350000000 1.0
C      1  0.4411160000000  0.5788420000000  0.5125050000000 1.0
C      1  0.4374050000000  0.4735400000000  0.5948630000000 1.0
C      1  0.5490260000000  0.5650710000000  0.4332390000000 1.0
C      1  0.4540550000000  0.5254590000000  0.5832400000000 1.0
C      1  0.5235630000000  0.4772440000000  0.5392150000000 1.0
C      1  0.5402520000000  0.4263360000000  0.5557590000000 1.0
C      1  0.5147020000000  0.4014690000000  0.4628970000000 1.0
C      1  0.5972060000000  0.5519200000000  0.4509860000000 1.0
C      1  0.5025200000000  0.4368180000000  0.4953930000000 1.0
C      1  0.5210740000000  0.4986410000000  0.4047300000000 1.0
C      1  0.5298940000000  0.5086830000000  0.5809210000000 1.0
C      1  0.4173850000000  0.5107240000000  0.4901000000000 1.0
C      1  0.5495480000000  0.4642070000000  0.4226830000000 1.0
C      1  0.4644620000000  0.5913610000000  0.4975550000000 1.0
C      1  0.5878040000000  0.4625830000000  0.5094350000000 1.0
C      1  0.4411220000000  0.5245350000000  0.5266280000000 1.0
C      1  0.4701020000000  0.5710940000000  0.5546130000000 1.0
C      1  0.4662110000000  0.6206990000000  0.5012070000000 1.0
C      1  0.3997800000000  0.4653400000000  0.4849990000000 1.0
C      1  0.5924710000000  0.5342290000000  0.5229980000000 1.0
C      1  0.4381540000000  0.5646430000000  0.4671590000000 1.0
C      1  0.5049890000000  0.4059610000000  0.4912580000000 1.0
C      1  0.5920840000000  0.5019180000000  0.4399830000000 1.0
C      1  0.5831330000000  0.5097750000000  0.4804700000000 1.0
C      1  0.5406770000000  0.4162990000000  0.4608800000000 1.0
C      1  0.5881790000000  0.5344400000000  0.4947130000000 1.0
C      1  0.5128600000000  0.6321180000000  0.4831770000000 1.0
C      1  0.4905640000000  0.4877630000000  0.5491430000000 1.0
C      1  0.4788800000000  0.4792580000000  0.4310270000000 1.0
C      1  0.5331190000000  0.5945530000000  0.4808910000000 1.0
C      1  0.5919140000000  0.5582870000000  0.4791880000000 1.0
C      1  0.5384100000000  0.4483440000000  0.4666290000000 1.0
END
