TITL C-862500-986-173 -3.21136327013376e-05 125000 -414.877847881012 0 0 73 (S4) n - 1
REM
REM in /home/nfs/bkarasulu/CARBON/AIRSS/Generating-Clusters/TERSOFF/Higher-Symm/FIRE-HFTN
REM
REM
REM
REM
REM
REM ./C.cell (b20cbc046b6831c77cfcea5457e17084)
REM AIRSS Version 0.9.1 bugfix July 2018 build 013d7b7c2542+ Fri, 06 Jul 2018 19:26:36 +0100
REM compiler GCC version 9.2.1 20190827 (Red Hat 9.2.1-1)
REM options -cpp -mtune=generic -march=x86-64 -g -O0 -fpre-include=/usr/include/finclude/math-vector-fortran.h
REM seed -1002129788 -1679370743 -117728053 -987926951 493581399 258688658 1358850936 -968723691 -337989434 389282906 456191165 -2138039813 -1509065625 -242333522 1103647993 1094448000 -323546552 -1896019326 -1023737392 -1705380774 -1769636519 -433612182 -1073498572 -51658540 -1222118126 329557993 -688746426 578363603 -406178838 -856120449 -900274760 -617449493 775488098
REM
CELL 1.54180   50.00000   50.00000   50.00000   90.00000   90.00000   90.00000
LATT -1
SFAC C  
C      1  0.5155380000000  0.4378770000000  0.5162860000000 1.0
C      1  0.4382140000000  0.4836220000000  0.4838900000000 1.0
C      1  0.4839590000000  0.5609460000000  0.5162860000000 1.0
C      1  0.5612830000000  0.5152010000000  0.4838910000000 1.0
C      1  0.4894010000000  0.4750480000000  0.4676960000000 1.0
C      1  0.4753850000000  0.5097590000000  0.5324800000000 1.0
C      1  0.5100950000000  0.5237750000000  0.4676960000000 1.0
C      1  0.5241120000000  0.4890650000000  0.5324800000000 1.0
C      1  0.4392510000000  0.5750820000000  0.5093320000000 1.0
C      1  0.5754190000000  0.5599090000000  0.4908450000000 1.0
C      1  0.5602460000000  0.4237410000000  0.5093320000000 1.0
C      1  0.4240780000000  0.4389140000000  0.4908450000000 1.0
C      1  0.5097560000000  0.5491630000000  0.5310310000000 1.0
C      1  0.5495000000000  0.4894040000000  0.4691460000000 1.0
C      1  0.4897410000000  0.4496600000000  0.5310310000000 1.0
C      1  0.4499960000000  0.5094190000000  0.4691460000000 1.0
C      1  0.5220770000000  0.5195970000000  0.5206680000000 1.0
C      1  0.5199340000000  0.4770830000000  0.4795080000000 1.0
C      1  0.4774200000000  0.4792260000000  0.5206680000000 1.0
C      1  0.4795630000000  0.5217400000000  0.4795080000000 1.0
C      1  0.4338140000000  0.5300410000000  0.4895590000000 1.0
C      1  0.5303780000000  0.5653460000000  0.5106180000000 1.0
C      1  0.5656830000000  0.4687820000000  0.4895590000000 1.0
C      1  0.4691190000000  0.4334770000000  0.5106180000000 1.0
C      1  0.4899590000000  0.5421520000000  0.5548780000000 1.0
C      1  0.5424890000000  0.5092010000000  0.4452980000000 1.0
C      1  0.5095380000000  0.4566710000000  0.5548780000000 1.0
C      1  0.4570080000000  0.4896220000000  0.4452980000000 1.0
C      1  0.5204470000000  0.5028770000000  0.4270610000000 1.0
C      1  0.5032140000000  0.4787130000000  0.5731160000000 1.0
C      1  0.4790500000000  0.4959460000000  0.4270610000000 1.0
C      1  0.4962830000000  0.5201100000000  0.5731160000000 1.0
C      1  0.4726750000000  0.4392870000000  0.4538340000000 1.0
C      1  0.4396240000000  0.5264850000000  0.5463420000000 1.0
C      1  0.5268220000000  0.5595360000000  0.4538340000000 1.0
C      1  0.5598730000000  0.4723380000000  0.5463420000000 1.0
C      1  0.5024600000000  0.5521160000000  0.4370130000000 1.0
C      1  0.5524520000000  0.4967000000000  0.5631630000000 1.0
C      1  0.4970370000000  0.4467070000000  0.4370130000000 1.0
C      1  0.4470440000000  0.5021230000000  0.5631630000000 1.0
C      1  0.4261650000000  0.4590030000000  0.4696430000000 1.0
C      1  0.4593400000000  0.5729950000000  0.5305330000000 1.0
C      1  0.5733320000000  0.5398200000000  0.4696430000000 1.0
C      1  0.5401570000000  0.4258280000000  0.5305330000000 1.0
C      1  0.4602820000000  0.5490490000000  0.5491640000000 1.0
C      1  0.5493850000000  0.5388780000000  0.4510120000000 1.0
C      1  0.5392150000000  0.4497750000000  0.5491640000000 1.0
C      1  0.4501110000000  0.4599450000000  0.4510120000000 1.0
C      1  0.5288760000000  0.4445820000000  0.4755010000000 1.0
C      1  0.4449180000000  0.4702830000000  0.5246750000000 1.0
C      1  0.4706200000000  0.5542420000000  0.4755010000000 1.0
C      1  0.5545780000000  0.5285400000000  0.5246760000000 1.0
C      1  0.5191670000000  0.5718100000000  0.4819890000000 1.0
C      1  0.5721470000000  0.4799930000000  0.5181870000000 1.0
C      1  0.4803300000000  0.4270130000000  0.4819890000000 1.0
C      1  0.4273500000000  0.5188300000000  0.5181870000000 1.0
C      1  0.4746140000000  0.4970770000000  0.5753300000000 1.0
C      1  0.4974140000000  0.5245460000000  0.4248460000000 1.0
C      1  0.5248830000000  0.5017460000000  0.5753300000000 1.0
C      1  0.5020830000000  0.4742770000000  0.4248460000000 1.0
C      1  0.5727760000000  0.5088890000000  0.5114570000000 1.0
C      1  0.5092260000000  0.4263840000000  0.4887200000000 1.0
C      1  0.4267200000000  0.4899340000000  0.5114570000000 1.0
C      1  0.4902710000000  0.5724390000000  0.4887200000000 1.0
C      1  0.5571020000000  0.4411390000000  0.4861590000000 1.0
C      1  0.4414760000000  0.4420580000000  0.5140180000000 1.0
C      1  0.4423950000000  0.5576840000000  0.4861590000000 1.0
C      1  0.5580210000000  0.5567650000000  0.5140180000000 1.0
C      1  0.5320130000000  0.5238810000000  0.4891580000000 1.0
C      1  0.5242170000000  0.4671470000000  0.5110180000000 1.0
C      1  0.4674840000000  0.4749430000000  0.4891580000000 1.0
C      1  0.4752790000000  0.5316760000000  0.5110180000000 1.0
C      1  0.4997480000000  0.4994120000000  0.5000880000000 1.0
END
