TITL C-862134-6730-668 0.000211780533579207 125000 -331.830121653222 0 0 65 (C2h) n - 1
REM
REM in /home/nfs/bkarasulu/CARBON/AIRSS/Generating-Clusters/TERSOFF/Higher-Symm/FIRE-HFTN
REM
REM
REM
REM
REM
REM ./C.cell (b20cbc046b6831c77cfcea5457e17084)
REM AIRSS Version 0.9.1 bugfix July 2018 build 013d7b7c2542+ Fri, 06 Jul 2018 19:26:36 +0100
REM compiler GCC version 9.2.1 20190827 (Red Hat 9.2.1-1)
REM options -cpp -mtune=generic -march=x86-64 -g -O0 -fpre-include=/usr/include/finclude/math-vector-fortran.h
REM seed 2141929975 -919774948 -2117328530 1264554757 1395225751 -2091513877 -741418212 581460658 -417354681 897916415 1352514512 812864036 -1974480315 -1039955728 -1134360375 -854097783 -509311569 1480239621 1417379377 -17134281 -22657454 1717351738 169640223 1004689537 139169766 942552740 474186676 -1914755982 -772457495 269110647 55167001 849278369 898882183
REM
CELL 1.54180   50.00000   50.00000   50.00000   90.00000   90.00000   90.00000
LATT -1
SFAC C  
C      1  0.4864470000000  0.4837280000000  0.4158890000000 1.0
C      1  0.5133780000000  0.4837280000000  0.5851950000000 1.0
C      1  0.4864470000000  0.5155840000000  0.4158890000000 1.0
C      1  0.5133780000000  0.5155840000000  0.5851950000000 1.0
C      1  0.4812840000000  0.4839930000000  0.5851800000000 1.0
C      1  0.5185410000000  0.4839930000000  0.4159040000000 1.0
C      1  0.4812840000000  0.5153190000000  0.5851800000000 1.0
C      1  0.5185410000000  0.5153190000000  0.4159040000000 1.0
C      1  0.4437320000000  0.4838540000000  0.4860020000000 1.0
C      1  0.5560940000000  0.4838540000000  0.5150820000000 1.0
C      1  0.4437320000000  0.5154590000000  0.4860020000000 1.0
C      1  0.5560940000000  0.5154590000000  0.5150820000000 1.0
C      1  0.4501010000000  0.4720090000000  0.5174070000000 1.0
C      1  0.5497250000000  0.4720090000000  0.4836770000000 1.0
C      1  0.4501010000000  0.5273040000000  0.5174070000000 1.0
C      1  0.5497250000000  0.5273040000000  0.4836770000000 1.0
C      1  0.4861770000000  0.4455810000000  0.5178000000000 1.0
C      1  0.5136490000000  0.4455810000000  0.4832840000000 1.0
C      1  0.4861770000000  0.5537310000000  0.5178000000000 1.0
C      1  0.5136490000000  0.5537310000000  0.4832840000000 1.0
C      1  0.4808840000000  0.4476230000000  0.4836060000000 1.0
C      1  0.5189420000000  0.4476230000000  0.5174780000000 1.0
C      1  0.4808840000000  0.5516900000000  0.4836060000000 1.0
C      1  0.5189420000000  0.5516900000000  0.5174780000000 1.0
C      1  0.4493160000000  0.5152720000000  0.4502880000000 1.0
C      1  0.5505090000000  0.5152720000000  0.5507960000000 1.0
C      1  0.4493160000000  0.4840400000000  0.4502880000000 1.0
C      1  0.5505090000000  0.4840400000000  0.5507960000000 1.0
C      1  0.4478490000000  0.5144170000000  0.5462410000000 1.0
C      1  0.5519760000000  0.5144170000000  0.4548420000000 1.0
C      1  0.4478490000000  0.4848960000000  0.5462410000000 1.0
C      1  0.5519760000000  0.4848960000000  0.4548420000000 1.0
C      1  0.4669600000000  0.4694700000000  0.5643420000000 1.0
C      1  0.5328660000000  0.4694700000000  0.4367420000000 1.0
C      1  0.4669600000000  0.5298430000000  0.5643420000000 1.0
C      1  0.5328660000000  0.5298430000000  0.4367420000000 1.0
C      1  0.4715000000000  0.4692920000000  0.4367630000000 1.0
C      1  0.5283260000000  0.4692920000000  0.5643210000000 1.0
C      1  0.4715000000000  0.5300210000000  0.4367630000000 1.0
C      1  0.5283260000000  0.5300210000000  0.5643210000000 1.0
C      1  0.5578820000000  0.4434120000000  0.4821520000000 1.0
C      1  0.4419440000000  0.4434120000000  0.5189310000000 1.0
C      1  0.5578820000000  0.5559000000000  0.4821520000000 1.0
C      1  0.4419440000000  0.5559000000000  0.5189310000000 1.0
C      1  0.5829430000000  0.4690160000000  0.5186710000000 1.0
C      1  0.4168830000000  0.4690160000000  0.4824130000000 1.0
C      1  0.5829430000000  0.5302970000000  0.5186710000000 1.0
C      1  0.4168830000000  0.5302970000000  0.4824130000000 1.0
C      1  0.5173140000000  0.5214030000000  0.4774020000000 1.0
C      1  0.4825120000000  0.5214030000000  0.5236820000000 1.0
C      1  0.5173140000000  0.4779100000000  0.4774020000000 1.0
C      1  0.4825120000000  0.4779100000000  0.5236820000000 1.0
C      1  0.5241500000000  0.5206510000000  0.5186030000000 1.0
C      1  0.4756750000000  0.5206510000000  0.4824800000000 1.0
C      1  0.5241500000000  0.4786620000000  0.5186030000000 1.0
C      1  0.4756750000000  0.4786620000000  0.4824800000000 1.0
C      1  0.5178240000000  0.5524870000000  0.4491820000000 1.0
C      1  0.4820020000000  0.5524870000000  0.5519020000000 1.0
C      1  0.5178240000000  0.4468250000000  0.4491820000000 1.0
C      1  0.4820020000000  0.4468250000000  0.5519020000000 1.0
C      1  0.5138070000000  0.5508610000000  0.5492770000000 1.0
C      1  0.4860190000000  0.5508610000000  0.4518060000000 1.0
C      1  0.5138070000000  0.4484520000000  0.5492770000000 1.0
C      1  0.4860190000000  0.4484520000000  0.4518060000000 1.0
C      1  0.4999130000000  0.4996560000000  0.5005420000000 1.0
END
