TITL C-862500-986-1207 3.20062277043992 125000 -470.699309857242 0 0 95 (C1) n - 1
REM
REM in /home/nfs/bkarasulu/CARBON/AIRSS/Generating-Clusters/TERSOFF/Higher-Symm/FIRE-HFTN
REM
REM
REM
REM
REM
REM ./C.cell (b20cbc046b6831c77cfcea5457e17084)
REM AIRSS Version 0.9.1 bugfix July 2018 build 013d7b7c2542+ Fri, 06 Jul 2018 19:26:36 +0100
REM compiler GCC version 9.2.1 20190827 (Red Hat 9.2.1-1)
REM options -cpp -mtune=generic -march=x86-64 -g -O0 -fpre-include=/usr/include/finclude/math-vector-fortran.h
REM seed 975719951 -120214756 227959384 8515732 755329370 -902727048 -727182980 123835349 1563603375 -1699366891 -746396423 -176303212 933467316 574629748 -543237347 -395411608 423888539 1886215397 884817445 -1377837162 -636555861 216551748 642909990 -1008660875 520938460 768389121 -612272151 489359454 -255111407 511206903 -1105663874 -900560550 557904683
REM
CELL 1.54180   50.00000   50.00000   50.00000   90.00000   90.00000   90.00000
LATT -1
SFAC C  
C      1  0.5312210000000  0.5381640000000  0.4909370000000 1.0
C      1  0.4686750000000  0.5377840000000  0.4909680000000 1.0
C      1  0.4473030000000  0.4827290000000  0.4914090000000 1.0
C      1  0.5004870000000  0.4672720000000  0.4873060000000 1.0
C      1  0.5539110000000  0.4847820000000  0.4898670000000 1.0
C      1  0.5319670000000  0.4637090000000  0.4893170000000 1.0
C      1  0.4690980000000  0.4620440000000  0.4912180000000 1.0
C      1  0.4500430000000  0.5137390000000  0.4894050000000 1.0
C      1  0.5001650000000  0.5362750000000  0.4873460000000 1.0
C      1  0.5498970000000  0.5142210000000  0.4871680000000 1.0
C      1  0.5003360000000  0.4645540000000  0.4325600000000 1.0
C      1  0.5532450000000  0.4833060000000  0.4272040000000 1.0
C      1  0.5327160000000  0.5379080000000  0.4282410000000 1.0
C      1  0.4682870000000  0.5382010000000  0.4270770000000 1.0
C      1  0.4463500000000  0.4842590000000  0.4277800000000 1.0
C      1  0.5023120000000  0.5377850000000  0.4307020000000 1.0
C      1  0.5533260000000  0.5128040000000  0.4242280000000 1.0
C      1  0.5294510000000  0.4616950000000  0.4252190000000 1.0
C      1  0.4665600000000  0.4629190000000  0.4273880000000 1.0
C      1  0.4484190000000  0.5164380000000  0.4246120000000 1.0
C      1  0.5701770000000  0.5745800000000  0.5291610000000 1.0
C      1  0.4514710000000  0.5904830000000  0.5278550000000 1.0
C      1  0.3938380000000  0.4847900000000  0.5303770000000 1.0
C      1  0.4848400000000  0.4078200000000  0.5250750000000 1.0
C      1  0.5900040000000  0.4474410000000  0.5289090000000 1.0
C      1  0.5675890000000  0.4248520000000  0.5275460000000 1.0
C      1  0.4534510000000  0.4086240000000  0.5283620000000 1.0
C      1  0.3963990000000  0.5162890000000  0.5278050000000 1.0
C      1  0.4828530000000  0.5929800000000  0.5252000000000 1.0
C      1  0.5898350000000  0.5496080000000  0.5268440000000 1.0
C      1  0.5860240000000  0.4661490000000  0.5524660000000 1.0
C      1  0.5512520000000  0.5705220000000  0.5528740000000 1.0
C      1  0.4469960000000  0.5711160000000  0.5508760000000 1.0
C      1  0.4103550000000  0.4745040000000  0.5539400000000 1.0
C      1  0.4999560000000  0.4214010000000  0.5464090000000 1.0
C      1  0.5854350000000  0.5299990000000  0.5489680000000 1.0
C      1  0.5471640000000  0.4284640000000  0.5493160000000 1.0
C      1  0.4484950000000  0.4279810000000  0.5511050000000 1.0
C      1  0.4133340000000  0.5279690000000  0.5496610000000 1.0
C      1  0.4982510000000  0.5805650000000  0.5472090000000 1.0
C      1  0.4245920000000  0.5146720000000  0.4468910000000 1.0
C      1  0.4619060000000  0.4383780000000  0.4474250000000 1.0
C      1  0.5500720000000  0.4462580000000  0.4467190000000 1.0
C      1  0.5700080000000  0.5299870000000  0.4458580000000 1.0
C      1  0.4935980000000  0.5637660000000  0.4486960000000 1.0
C      1  0.4220450000000  0.4829300000000  0.4479300000000 1.0
C      1  0.4626160000000  0.5620230000000  0.4470800000000 1.0
C      1  0.5509110000000  0.5554250000000  0.4480420000000 1.0
C      1  0.5728560000000  0.4688280000000  0.4466070000000 1.0
C      1  0.4925940000000  0.4386540000000  0.4496550000000 1.0
C      1  0.4485510000000  0.4424010000000  0.4743420000000 1.0
C      1  0.5404800000000  0.4371510000000  0.4743390000000 1.0
C      1  0.5782880000000  0.5174620000000  0.4724120000000 1.0
C      1  0.5056980000000  0.5679250000000  0.4759560000000 1.0
C      1  0.4266850000000  0.5289500000000  0.4736710000000 1.0
C      1  0.4490300000000  0.5574730000000  0.4737100000000 1.0
C      1  0.5414070000000  0.5642510000000  0.4753660000000 1.0
C      1  0.5806360000000  0.4811590000000  0.4727800000000 1.0
C      1  0.5052980000000  0.4339230000000  0.4765830000000 1.0
C      1  0.4239090000000  0.4690460000000  0.4745560000000 1.0
C      1  0.5569600000000  0.5155540000000  0.5506040000000 1.0
C      1  0.5001320000000  0.5487330000000  0.5506170000000 1.0
C      1  0.4440240000000  0.5178620000000  0.5520490000000 1.0
C      1  0.4634890000000  0.4563810000000  0.5523320000000 1.0
C      1  0.5327350000000  0.4571120000000  0.5519010000000 1.0
C      1  0.5578190000000  0.4825860000000  0.5523820000000 1.0
C      1  0.4994890000000  0.4534750000000  0.5502000000000 1.0
C      1  0.4423850000000  0.4818000000000  0.5533020000000 1.0
C      1  0.4642990000000  0.5436620000000  0.5521800000000 1.0
C      1  0.5335990000000  0.5429470000000  0.5532060000000 1.0
C      1  0.5420600000000  0.4575350000000  0.5195160000000 1.0
C      1  0.5602280000000  0.5217120000000  0.5164670000000 1.0
C      1  0.4987830000000  0.5517360000000  0.5166970000000 1.0
C      1  0.4372270000000  0.5130850000000  0.5185750000000 1.0
C      1  0.4692110000000  0.4464110000000  0.5195790000000 1.0
C      1  0.5402010000000  0.5462870000000  0.5205070000000 1.0
C      1  0.5656590000000  0.4801540000000  0.5186340000000 1.0
C      1  0.5007860000000  0.4505780000000  0.5162380000000 1.0
C      1  0.4344540000000  0.4813120000000  0.5203430000000 1.0
C      1  0.4673510000000  0.5527020000000  0.5191450000000 1.0
C      1  0.4559270000000  0.4165490000000  0.4933310000000 1.0
C      1  0.5656070000000  0.4328600000000  0.4950100000000 1.0
C      1  0.5891810000000  0.5413120000000  0.4932830000000 1.0
C      1  0.4888880000000  0.5883510000000  0.4932660000000 1.0
C      1  0.4031350000000  0.5174890000000  0.4944840000000 1.0
C      1  0.4557330000000  0.5833080000000  0.4929990000000 1.0
C      1  0.5673170000000  0.5664990000000  0.4956740000000 1.0
C      1  0.5895650000000  0.4561520000000  0.4940480000000 1.0
C      1  0.4892220000000  0.4130950000000  0.4934310000000 1.0
C      1  0.4011160000000  0.4836570000000  0.4951310000000 1.0
C      1  0.5871180000000  0.5038790000000  0.5161530000000 1.0
C      1  0.4377670000000  0.5437620000000  0.5187580000000 1.0
C      1  0.5248160000000  0.4302830000000  0.5137080000000 1.0
C      1  0.4383310000000  0.4511400000000  0.5175930000000 1.0
C      1  0.5227190000000  0.5726520000000  0.5140200000000 1.0
END
