TITL C-862128-1543-206 3.06333418217731e-07 125000 -514.795711763022 0 0 90 (C2) n - 1
REM
REM in /home/nfs/bkarasulu/CARBON/AIRSS/Generating-Clusters/TERSOFF/Higher-Symm/FIRE-HFTN
REM
REM
REM
REM
REM
REM ./C.cell (b20cbc046b6831c77cfcea5457e17084)
REM AIRSS Version 0.9.1 bugfix July 2018 build 013d7b7c2542+ Fri, 06 Jul 2018 19:26:36 +0100
REM compiler GCC version 9.2.1 20190827 (Red Hat 9.2.1-1)
REM options -cpp -mtune=generic -march=x86-64 -g -O0 -fpre-include=/usr/include/finclude/math-vector-fortran.h
REM seed -1222569053 2100803027 -1709136901 316834727 736630592 -1200822607 454687672 824481407 534155567 -1954723543 -1197104882 818702237 145355771 -1331593384 -1582626400 -1545259592 -414240218 1781634299 930166244 -1583329009 -1313402170 -505019784 272238450 -177675062 839516604 -1042351107 1409980815 1263633224 -1985837158 -2000016537 -1123901817 -1430592093 -717986535
REM
CELL 1.54180   50.00000   50.00000   50.00000   90.00000   90.00000   90.00000
LATT -1
SFAC C  
C      1  0.4944340000000  0.4683090000000  0.5686060000000 1.0
C      1  0.4684640000000  0.5721270000000  0.5022930000000 1.0
C      1  0.5673080000000  0.4943940000000  0.4655130000000 1.0
C      1  0.4990180000000  0.4639300000000  0.4233400000000 1.0
C      1  0.4990270000000  0.5354190000000  0.5768110000000 1.0
C      1  0.4944270000000  0.5310400000000  0.4315460000000 1.0
C      1  0.5353410000000  0.5663770000000  0.5033100000000 1.0
C      1  0.5353380000000  0.4329700000000  0.4968370000000 1.0
C      1  0.4684610000000  0.4272220000000  0.4978610000000 1.0
C      1  0.4330970000000  0.4982110000000  0.5349170000000 1.0
C      1  0.4330930000000  0.5011390000000  0.4652410000000 1.0
C      1  0.5673120000000  0.5049530000000  0.5346310000000 1.0
C      1  0.5728750000000  0.4672910000000  0.5005110000000 1.0
C      1  0.4962700000000  0.5650220000000  0.4688380000000 1.0
C      1  0.4642590000000  0.5006900000000  0.5749930000000 1.0
C      1  0.4340720000000  0.4645690000000  0.5015100000000 1.0
C      1  0.5728760000000  0.5320560000000  0.4996310000000 1.0
C      1  0.4340730000000  0.5347820000000  0.4986480000000 1.0
C      1  0.5031080000000  0.5683500000000  0.5384440000000 1.0
C      1  0.4962720000000  0.4343270000000  0.5313130000000 1.0
C      1  0.5031010000000  0.4309980000000  0.4617070000000 1.0
C      1  0.5315700000000  0.4938850000000  0.4300040000000 1.0
C      1  0.4642510000000  0.4986600000000  0.4251620000000 1.0
C      1  0.5315780000000  0.5054630000000  0.5701430000000 1.0
C      1  0.4547420000000  0.4306750000000  0.4713570000000 1.0
C      1  0.4334230000000  0.4731630000000  0.4530160000000 1.0
C      1  0.4720890000000  0.4506780000000  0.4276670000000 1.0
C      1  0.5449850000000  0.4360400000000  0.5257720000000 1.0
C      1  0.5449840000000  0.5633070000000  0.4743730000000 1.0
C      1  0.4547480000000  0.5686750000000  0.5287990000000 1.0
C      1  0.5642580000000  0.4780550000000  0.5472340000000 1.0
C      1  0.5642540000000  0.5212910000000  0.4529100000000 1.0
C      1  0.4334290000000  0.5261880000000  0.5471420000000 1.0
C      1  0.5219820000000  0.4575020000000  0.5652010000000 1.0
C      1  0.5219760000000  0.5418460000000  0.4349470000000 1.0
C      1  0.4720990000000  0.5486710000000  0.5724870000000 1.0
C      1  0.4746710000000  0.4310760000000  0.4500450000000 1.0
C      1  0.4512660000000  0.4715710000000  0.4290400000000 1.0
C      1  0.4347220000000  0.4526840000000  0.4734730000000 1.0
C      1  0.5226610000000  0.4375540000000  0.5443420000000 1.0
C      1  0.4746790000000  0.5682730000000  0.5501090000000 1.0
C      1  0.5226580000000  0.5617940000000  0.4558070000000 1.0
C      1  0.5426460000000  0.4780980000000  0.5664040000000 1.0
C      1  0.4512750000000  0.5277790000000  0.5711160000000 1.0
C      1  0.5426390000000  0.5212490000000  0.4337420000000 1.0
C      1  0.5670350000000  0.4560740000000  0.5279610000000 1.0
C      1  0.4347260000000  0.5466670000000  0.5266860000000 1.0
C      1  0.5670340000000  0.5432720000000  0.4721820000000 1.0
C      1  0.4835700000000  0.4072750000000  0.5351940000000 1.0
C      1  0.4085330000000  0.5376350000000  0.4832540000000 1.0
C      1  0.5365890000000  0.4801300000000  0.4034460000000 1.0
C      1  0.5199720000000  0.4060340000000  0.4603190000000 1.0
C      1  0.5199790000000  0.5933140000000  0.5398290000000 1.0
C      1  0.4835690000000  0.5920740000000  0.4649580000000 1.0
C      1  0.5992830000000  0.5361130000000  0.5140450000000 1.0
C      1  0.5992800000000  0.4632330000000  0.4860950000000 1.0
C      1  0.4085340000000  0.4617170000000  0.5169070000000 1.0
C      1  0.4603320000000  0.4839380000000  0.5999700000000 1.0
C      1  0.4603210000000  0.5154120000000  0.4001850000000 1.0
C      1  0.5366010000000  0.5192170000000  0.5967000000000 1.0
C      1  0.5396260000000  0.4071600000000  0.4818730000000 1.0
C      1  0.4796120000000  0.5370630000000  0.4057500000000 1.0
C      1  0.4076910000000  0.4824310000000  0.5370750000000 1.0
C      1  0.4662540000000  0.4008950000000  0.5125040000000 1.0
C      1  0.5396300000000  0.5921870000000  0.5182730000000 1.0
C      1  0.4662550000000  0.5984550000000  0.4876500000000 1.0
C      1  0.5147310000000  0.5381310000000  0.6026250000000 1.0
C      1  0.4796220000000  0.4622860000000  0.5944030000000 1.0
C      1  0.5147180000000  0.4612170000000  0.3975240000000 1.0
C      1  0.5940430000000  0.4802920000000  0.4625310000000 1.0
C      1  0.4076880000000  0.5169200000000  0.4630870000000 1.0
C      1  0.5940480000000  0.5190540000000  0.5376090000000 1.0
C      1  0.5504290000000  0.4560380000000  0.4836680000000 1.0
C      1  0.4572590000000  0.5495960000000  0.4855710000000 1.0
C      1  0.4735320000000  0.5390200000000  0.4597620000000 1.0
C      1  0.5405230000000  0.4719640000000  0.4571340000000 1.0
C      1  0.5405290000000  0.5273840000000  0.5430120000000 1.0
C      1  0.4735350000000  0.4603300000000  0.5403910000000 1.0
C      1  0.5157280000000  0.5452930000000  0.5537260000000 1.0
C      1  0.4555840000000  0.4850940000000  0.5507440000000 1.0
C      1  0.4572590000000  0.4497540000000  0.5145850000000 1.0
C      1  0.5504320000000  0.5433100000000  0.5164770000000 1.0
C      1  0.4555790000000  0.5142560000000  0.4494120000000 1.0
C      1  0.5157210000000  0.4540560000000  0.4464230000000 1.0
C      1  0.4971810000000  0.4965930000000  0.4304240000000 1.0
C      1  0.5014900000000  0.4368280000000  0.4957500000000 1.0
C      1  0.4400510000000  0.4996750000000  0.5000790000000 1.0
C      1  0.4971890000000  0.5027550000000  0.5697270000000 1.0
C      1  0.5014920000000  0.5625210000000  0.5044010000000 1.0
C      1  0.5661460000000  0.4996730000000  0.5000720000000 1.0
END
