TITL C-862501-1041-1041 0.077916936557382 125000 -728.160381790246 0 0 128 (C1) n - 1
REM
REM in /home/nfs/bkarasulu/CARBON/AIRSS/Generating-Clusters/TERSOFF/Higher-Symm/FIRE-HFTN
REM
REM
REM
REM
REM
REM ./C.cell (b20cbc046b6831c77cfcea5457e17084)
REM AIRSS Version 0.9.1 bugfix July 2018 build 013d7b7c2542+ Fri, 06 Jul 2018 19:26:36 +0100
REM compiler GCC version 9.2.1 20190827 (Red Hat 9.2.1-1)
REM options -cpp -mtune=generic -march=x86-64 -g -O0 -fpre-include=/usr/include/finclude/math-vector-fortran.h
REM seed 793443080 1486021522 -14354872 -1380161123 -1540712180 -955555125 -707617080 -1326540739 -740840909 938306718 357983631 -1826281219 -464555528 -2131010171 1552880597 -1216723101 494993166 -1149543900 -796049897 -1648758653 1431261707 132929626 -1474532429 -2006859603 1995785906 -451710005 261702605 1041382145 1578082216 -614746345 -1308543644 1089825716 2129809835
REM
CELL 1.54180   50.00000   50.00000   50.00000   90.00000   90.00000   90.00000
LATT -1
SFAC C  
C      1  0.4424730000000  0.4190270000000  0.5707110000000 1.0
C      1  0.5650410000000  0.5839620000000  0.5705880000000 1.0
C      1  0.4515270000000  0.5802740000000  0.5677630000000 1.0
C      1  0.5536670000000  0.4213680000000  0.5718890000000 1.0
C      1  0.5154250000000  0.5149650000000  0.5953830000000 1.0
C      1  0.4837130000000  0.4809920000000  0.5929560000000 1.0
C      1  0.5144690000000  0.4834530000000  0.5925370000000 1.0
C      1  0.4842700000000  0.5125500000000  0.5947520000000 1.0
C      1  0.5399130000000  0.4060150000000  0.5505860000000 1.0
C      1  0.4654820000000  0.5896420000000  0.5433310000000 1.0
C      1  0.5440420000000  0.5899000000000  0.5504060000000 1.0
C      1  0.4603420000000  0.4106220000000  0.5485800000000 1.0
C      1  0.5803620000000  0.5928170000000  0.4851390000000 1.0
C      1  0.4205830000000  0.4065440000000  0.4848510000000 1.0
C      1  0.5823690000000  0.4086510000000  0.4860010000000 1.0
C      1  0.4199800000000  0.5927400000000  0.4823940000000 1.0
C      1  0.4798590000000  0.5759420000000  0.4340200000000 1.0
C      1  0.5164550000000  0.4216350000000  0.4396850000000 1.0
C      1  0.4804420000000  0.4221620000000  0.4381760000000 1.0
C      1  0.5161410000000  0.5771000000000  0.4353840000000 1.0
C      1  0.5790030000000  0.4675450000000  0.5280130000000 1.0
C      1  0.4208440000000  0.5346620000000  0.5288140000000 1.0
C      1  0.5784720000000  0.5340940000000  0.5288830000000 1.0
C      1  0.4202720000000  0.4661040000000  0.5273960000000 1.0
C      1  0.4499500000000  0.3939900000000  0.5265610000000 1.0
C      1  0.5507810000000  0.6064770000000  0.5267450000000 1.0
C      1  0.4510590000000  0.6052320000000  0.5229320000000 1.0
C      1  0.5554260000000  0.3938140000000  0.5286820000000 1.0
C      1  0.5151100000000  0.4836560000000  0.4918830000000 1.0
C      1  0.4842610000000  0.5152570000000  0.4971160000000 1.0
C      1  0.5146080000000  0.5170730000000  0.4966930000000 1.0
C      1  0.4841930000000  0.4818150000000  0.4913810000000 1.0
C      1  0.5784800000000  0.5589160000000  0.5109420000000 1.0
C      1  0.4210380000000  0.4416110000000  0.5093870000000 1.0
C      1  0.5797840000000  0.4433540000000  0.5098610000000 1.0
C      1  0.4211400000000  0.5591740000000  0.5099760000000 1.0
C      1  0.5786670000000  0.4855280000000  0.4689850000000 1.0
C      1  0.4180760000000  0.5127570000000  0.4687300000000 1.0
C      1  0.5802520000000  0.5137830000000  0.4691660000000 1.0
C      1  0.4199920000000  0.4845740000000  0.4686330000000 1.0
C      1  0.5608390000000  0.4734890000000  0.4875760000000 1.0
C      1  0.4348950000000  0.5262570000000  0.4878400000000 1.0
C      1  0.5632500000000  0.5270040000000  0.4883040000000 1.0
C      1  0.4381640000000  0.4728870000000  0.4870270000000 1.0
C      1  0.5147780000000  0.5805140000000  0.4680670000000 1.0
C      1  0.4857920000000  0.4224090000000  0.4689510000000 1.0
C      1  0.5158210000000  0.4170840000000  0.4719630000000 1.0
C      1  0.4849300000000  0.5752280000000  0.4650920000000 1.0
C      1  0.4638150000000  0.5548390000000  0.4196790000000 1.0
C      1  0.5318370000000  0.4433000000000  0.4259690000000 1.0
C      1  0.4656120000000  0.4431880000000  0.4239830000000 1.0
C      1  0.5340780000000  0.5568380000000  0.4212450000000 1.0
C      1  0.4263570000000  0.4311680000000  0.4592270000000 1.0
C      1  0.5734740000000  0.5683870000000  0.4595160000000 1.0
C      1  0.4249600000000  0.5668290000000  0.4578400000000 1.0
C      1  0.5735280000000  0.4318780000000  0.4599510000000 1.0
C      1  0.5341710000000  0.5745420000000  0.4895050000000 1.0
C      1  0.4656170000000  0.4256560000000  0.4896280000000 1.0
C      1  0.5357470000000  0.4244210000000  0.4920920000000 1.0
C      1  0.4647610000000  0.5733870000000  0.4861390000000 1.0
C      1  0.5146020000000  0.4710020000000  0.5430180000000 1.0
C      1  0.4841580000000  0.5282690000000  0.5466410000000 1.0
C      1  0.5148430000000  0.5290570000000  0.5465560000000 1.0
C      1  0.4842810000000  0.4704660000000  0.5428830000000 1.0
C      1  0.5770870000000  0.5349690000000  0.5575820000000 1.0
C      1  0.4219410000000  0.4647310000000  0.5561200000000 1.0
C      1  0.5766940000000  0.4655570000000  0.5566520000000 1.0
C      1  0.4242390000000  0.5368580000000  0.5573910000000 1.0
C      1  0.5499120000000  0.5126360000000  0.4326980000000 1.0
C      1  0.4386460000000  0.4848910000000  0.4170690000000 1.0
C      1  0.5579520000000  0.4854470000000  0.4186050000000 1.0
C      1  0.4479300000000  0.5110640000000  0.4311690000000 1.0
C      1  0.4481300000000  0.5971280000000  0.4949850000000 1.0
C      1  0.5558480000000  0.4035190000000  0.5011460000000 1.0
C      1  0.4481500000000  0.4025370000000  0.4986560000000 1.0
C      1  0.5529080000000  0.5964270000000  0.4993070000000 1.0
C      1  0.4696640000000  0.5239750000000  0.5202940000000 1.0
C      1  0.5293080000000  0.4749410000000  0.5170570000000 1.0
C      1  0.4696650000000  0.4740500000000  0.5168250000000 1.0
C      1  0.5291920000000  0.5254150000000  0.5202290000000 1.0
C      1  0.4695320000000  0.5240310000000  0.5722150000000 1.0
C      1  0.5293090000000  0.4747100000000  0.5689490000000 1.0
C      1  0.4692100000000  0.4734180000000  0.5686590000000 1.0
C      1  0.5299710000000  0.5257170000000  0.5721570000000 1.0
C      1  0.5121150000000  0.5346190000000  0.4492440000000 1.0
C      1  0.4851390000000  0.4868240000000  0.4357130000000 1.0
C      1  0.5153540000000  0.4890380000000  0.4362780000000 1.0
C      1  0.4827800000000  0.5341650000000  0.4508640000000 1.0
C      1  0.5156060000000  0.4652470000000  0.4164810000000 1.0
C      1  0.4825760000000  0.5306380000000  0.4178090000000 1.0
C      1  0.5161940000000  0.5321540000000  0.4171310000000 1.0
C      1  0.4822230000000  0.4646990000000  0.4144760000000 1.0
C      1  0.5593520000000  0.4437550000000  0.4861800000000 1.0
C      1  0.4391820000000  0.5554590000000  0.4842980000000 1.0
C      1  0.5594990000000  0.5564110000000  0.4856650000000 1.0
C      1  0.4406400000000  0.4434210000000  0.4853380000000 1.0
C      1  0.4200510000000  0.4380540000000  0.5682770000000 1.0
C      1  0.5827400000000  0.5603440000000  0.5709450000000 1.0
C      1  0.4267330000000  0.5641950000000  0.5681480000000 1.0
C      1  0.5772970000000  0.4384580000000  0.5680030000000 1.0
C      1  0.4346790000000  0.5447490000000  0.4310230000000 1.0
C      1  0.5623710000000  0.4521780000000  0.4323000000000 1.0
C      1  0.4354820000000  0.4516400000000  0.4309510000000 1.0
C      1  0.5631010000000  0.5464300000000  0.4328560000000 1.0
C      1  0.5111610000000  0.3994120000000  0.5534650000000 1.0
C      1  0.4937220000000  0.5820600000000  0.5382830000000 1.0
C      1  0.5156210000000  0.5850430000000  0.5575030000000 1.0
C      1  0.4889950000000  0.4181270000000  0.5490210000000 1.0
C      1  0.4698130000000  0.4875360000000  0.4610510000000 1.0
C      1  0.5269470000000  0.5198190000000  0.4686770000000 1.0
C      1  0.4712510000000  0.5163510000000  0.4695840000000 1.0
C      1  0.5299770000000  0.4903010000000  0.4621390000000 1.0
C      1  0.5570300000000  0.4846120000000  0.5679610000000 1.0
C      1  0.4413070000000  0.5154940000000  0.5698270000000 1.0
C      1  0.5578010000000  0.5159390000000  0.5697530000000 1.0
C      1  0.4416510000000  0.4837850000000  0.5674800000000 1.0
C      1  0.5853560000000  0.4697750000000  0.4462490000000 1.0
C      1  0.4116980000000  0.5273540000000  0.4447260000000 1.0
C      1  0.5865550000000  0.5287120000000  0.4453440000000 1.0
C      1  0.4129580000000  0.4687310000000  0.4460610000000 1.0
C      1  0.6014740000000  0.4223660000000  0.5068470000000 1.0
C      1  0.4017920000000  0.5821460000000  0.5058040000000 1.0
C      1  0.5992650000000  0.5807700000000  0.5072560000000 1.0
C      1  0.4015300000000  0.4186000000000  0.5068240000000 1.0
C      1  0.5581500000000  0.4853810000000  0.5152670000000 1.0
C      1  0.4403260000000  0.5151030000000  0.5157500000000 1.0
C      1  0.5582160000000  0.5155980000000  0.5159640000000 1.0
C      1  0.4407200000000  0.4846080000000  0.5148160000000 1.0
END
