TITL C-862507-1800-366 5.06463197844581 125000 -645.142380144453 0 0 116 (C1) n - 1
REM
REM in /home/nfs/bkarasulu/CARBON/AIRSS/Generating-Clusters/TERSOFF/Higher-Symm/FIRE-HFTN
REM
REM
REM
REM
REM
REM ./C.cell (b20cbc046b6831c77cfcea5457e17084)
REM AIRSS Version 0.9.1 bugfix July 2018 build 013d7b7c2542+ Fri, 06 Jul 2018 19:26:36 +0100
REM compiler GCC version 9.2.1 20190827 (Red Hat 9.2.1-1)
REM options -cpp -mtune=generic -march=x86-64 -g -O0 -fpre-include=/usr/include/finclude/math-vector-fortran.h
REM seed -1707861057 1431246470 -762426167 -1239612886 905946907 -398676499 1535230304 -2072977466 -1223014234 -1724040696 1260457307 -1547454245 -1208095517 2070304713 249616450 469360150 258432576 1988148228 -713091316 2087953373 -1501969750 2114368460 1455377264 860596879 1297109647 1993072121 -1994366930 -1399313431 -49588371 -1261452428 245110092 1714327969 -1316463698
REM
CELL 1.54180   50.00000   50.00000   50.00000   90.00000   90.00000   90.00000
LATT -1
SFAC C  
C      1  0.5270290000000  0.5348690000000  0.4182790000000 1.0
C      1  0.4135210000000  0.5254640000000  0.5310520000000 1.0
C      1  0.5370210000000  0.4097010000000  0.5289550000000 1.0
C      1  0.5234660000000  0.4727960000000  0.5886880000000 1.0
C      1  0.4753360000000  0.4715090000000  0.4113000000000 1.0
C      1  0.4742630000000  0.5329610000000  0.5809580000000 1.0
C      1  0.4138490000000  0.4717390000000  0.4655370000000 1.0
C      1  0.5889900000000  0.4709980000000  0.5375530000000 1.0
C      1  0.5875460000000  0.5261530000000  0.4683400000000 1.0
C      1  0.5369570000000  0.5954780000000  0.4714820000000 1.0
C      1  0.4634800000000  0.5924570000000  0.5289750000000 1.0
C      1  0.4628300000000  0.4112110000000  0.4731520000000 1.0
C      1  0.4775890000000  0.5397240000000  0.4188980000000 1.0
C      1  0.5819820000000  0.5270410000000  0.5310210000000 1.0
C      1  0.4593320000000  0.4102820000000  0.5302730000000 1.0
C      1  0.4689160000000  0.4727780000000  0.5889700000000 1.0
C      1  0.5286810000000  0.4713390000000  0.4066030000000 1.0
C      1  0.5241540000000  0.5402110000000  0.5804960000000 1.0
C      1  0.5939070000000  0.4744740000000  0.4575720000000 1.0
C      1  0.4057170000000  0.4722400000000  0.5359290000000 1.0
C      1  0.4220450000000  0.5263080000000  0.4711580000000 1.0
C      1  0.4648320000000  0.5942400000000  0.4748830000000 1.0
C      1  0.5350870000000  0.5954470000000  0.5255280000000 1.0
C      1  0.5415200000000  0.4090520000000  0.4707740000000 1.0
C      1  0.5376430000000  0.4716510000000  0.5207640000000 1.0
C      1  0.5274300000000  0.5467990000000  0.4835080000000 1.0
C      1  0.4844760000000  0.5212870000000  0.5313170000000 1.0
C      1  0.5426620000000  0.5024550000000  0.4757180000000 1.0
C      1  0.4593530000000  0.5031830000000  0.5318710000000 1.0
C      1  0.4665080000000  0.4722540000000  0.4790630000000 1.0
C      1  0.5230790000000  0.4518630000000  0.5038620000000 1.0
C      1  0.4806950000000  0.4531960000000  0.4958950000000 1.0
C      1  0.4753190000000  0.5452230000000  0.5150650000000 1.0
C      1  0.4793010000000  0.4742870000000  0.4530200000000 1.0
C      1  0.5246990000000  0.4739930000000  0.5467300000000 1.0
C      1  0.5199560000000  0.5217100000000  0.4675330000000 1.0
C      1  0.4572900000000  0.4732830000000  0.5310000000000 1.0
C      1  0.4758440000000  0.5460410000000  0.4843040000000 1.0
C      1  0.5184790000000  0.5224240000000  0.5306060000000 1.0
C      1  0.4669500000000  0.5030120000000  0.4829110000000 1.0
C      1  0.5381080000000  0.5028980000000  0.5174550000000 1.0
C      1  0.5469720000000  0.4731450000000  0.4766690000000 1.0
C      1  0.4810170000000  0.4552080000000  0.5267570000000 1.0
C      1  0.5230830000000  0.4536050000000  0.4723270000000 1.0
C      1  0.5269450000000  0.5470990000000  0.5144500000000 1.0
C      1  0.5075680000000  0.4688420000000  0.4513550000000 1.0
C      1  0.4969410000000  0.4684370000000  0.5485630000000 1.0
C      1  0.4860460000000  0.5221060000000  0.4682160000000 1.0
C      1  0.4851640000000  0.5173410000000  0.4350120000000 1.0
C      1  0.4283700000000  0.4754790000000  0.5166830000000 1.0
C      1  0.5146610000000  0.4192160000000  0.4788680000000 1.0
C      1  0.4832850000000  0.4853920000000  0.5673190000000 1.0
C      1  0.5212660000000  0.4854330000000  0.4319370000000 1.0
C      1  0.5176480000000  0.5178930000000  0.5638900000000 1.0
C      1  0.4371860000000  0.5100050000000  0.4884590000000 1.0
C      1  0.5681260000000  0.5098330000000  0.5135310000000 1.0
C      1  0.5799470000000  0.4729600000000  0.4843350000000 1.0
C      1  0.5153560000000  0.5768100000000  0.5145810000000 1.0
C      1  0.4855780000000  0.5763870000000  0.4849800000000 1.0
C      1  0.4857340000000  0.4214500000000  0.5228610000000 1.0
C      1  0.5156590000000  0.5140680000000  0.4348720000000 1.0
C      1  0.5719830000000  0.4781730000000  0.5152770000000 1.0
C      1  0.4842070000000  0.4229520000000  0.4873230000000 1.0
C      1  0.5334370000000  0.4938400000000  0.5690650000000 1.0
C      1  0.4687380000000  0.4934100000000  0.4309360000000 1.0
C      1  0.4875790000000  0.5138660000000  0.5642490000000 1.0
C      1  0.5727040000000  0.5078090000000  0.4840580000000 1.0
C      1  0.4323660000000  0.5090380000000  0.5176700000000 1.0
C      1  0.4332390000000  0.4781410000000  0.4859110000000 1.0
C      1  0.4848400000000  0.5754490000000  0.5187900000000 1.0
C      1  0.5160560000000  0.5768150000000  0.4806420000000 1.0
C      1  0.5165420000000  0.4221690000000  0.5138960000000 1.0
C      1  0.5304500000000  0.5605120000000  0.4314180000000 1.0
C      1  0.4233230000000  0.5321490000000  0.5572950000000 1.0
C      1  0.5584810000000  0.4280910000000  0.5332060000000 1.0
C      1  0.5230360000000  0.4451390000000  0.5771490000000 1.0
C      1  0.4738090000000  0.4446140000000  0.4238630000000 1.0
C      1  0.4686760000000  0.5585700000000  0.5692850000000 1.0
C      1  0.4266300000000  0.4721870000000  0.4394250000000 1.0
C      1  0.5738180000000  0.4711040000000  0.5623160000000 1.0
C      1  0.5732400000000  0.5330700000000  0.4444380000000 1.0
C      1  0.5609050000000  0.5780020000000  0.4714790000000 1.0
C      1  0.4387730000000  0.5765310000000  0.5293760000000 1.0
C      1  0.4409290000000  0.4289680000000  0.4688380000000 1.0
C      1  0.4742510000000  0.5647210000000  0.4323160000000 1.0
C      1  0.5699680000000  0.5324400000000  0.5567900000000 1.0
C      1  0.4374600000000  0.4296250000000  0.5303850000000 1.0
C      1  0.4652200000000  0.4457570000000  0.5771050000000 1.0
C      1  0.5298740000000  0.4452430000000  0.4233280000000 1.0
C      1  0.5252880000000  0.5659640000000  0.5679660000000 1.0
C      1  0.5729800000000  0.4766650000000  0.4371940000000 1.0
C      1  0.4206260000000  0.4739220000000  0.5618120000000 1.0
C      1  0.4316600000000  0.5307700000000  0.4443910000000 1.0
C      1  0.4406640000000  0.5773860000000  0.4730230000000 1.0
C      1  0.5594320000000  0.5786750000000  0.5274280000000 1.0
C      1  0.5611570000000  0.4307990000000  0.4710250000000 1.0
C      1  0.4296770000000  0.5036830000000  0.5724100000000 1.0
C      1  0.5715780000000  0.4375150000000  0.5048370000000 1.0
C      1  0.5633940000000  0.5063570000000  0.4296830000000 1.0
C      1  0.4281350000000  0.5680280000000  0.5006870000000 1.0
C      1  0.5035600000000  0.5744880000000  0.4406110000000 1.0
C      1  0.4939210000000  0.4323860000000  0.5698930000000 1.0
C      1  0.5019850000000  0.4324120000000  0.4312140000000 1.0
C      1  0.4401290000000  0.4997780000000  0.4323180000000 1.0
C      1  0.5619930000000  0.4998070000000  0.5697490000000 1.0
C      1  0.5716890000000  0.5694620000000  0.4998730000000 1.0
C      1  0.4271790000000  0.4382260000000  0.4974880000000 1.0
C      1  0.4948440000000  0.5744910000000  0.5603130000000 1.0
C      1  0.5530340000000  0.5601810000000  0.5517730000000 1.0
C      1  0.5549150000000  0.4503420000000  0.4423760000000 1.0
C      1  0.4393550000000  0.4474830000000  0.5587600000000 1.0
C      1  0.4473500000000  0.5589890000000  0.4485090000000 1.0
C      1  0.4418380000000  0.5576300000000  0.5541080000000 1.0
C      1  0.5539160000000  0.4462880000000  0.5586420000000 1.0
C      1  0.5565030000000  0.5586630000000  0.4475250000000 1.0
C      1  0.4452910000000  0.4466940000000  0.4427030000000 1.0
END
