TITL C-862506-1665-803 4.58470428113412e-06 125000 -857.156249669724 0 0 136 (D2d) n - 1
REM
REM in /home/nfs/bkarasulu/CARBON/AIRSS/Generating-Clusters/TERSOFF/Higher-Symm/FIRE-HFTN
REM
REM
REM
REM
REM
REM ./C.cell (b20cbc046b6831c77cfcea5457e17084)
REM AIRSS Version 0.9.1 bugfix July 2018 build 013d7b7c2542+ Fri, 06 Jul 2018 19:26:36 +0100
REM compiler GCC version 9.2.1 20190827 (Red Hat 9.2.1-1)
REM options -cpp -mtune=generic -march=x86-64 -g -O0 -fpre-include=/usr/include/finclude/math-vector-fortran.h
REM seed -541339903 2002462026 1283941772 -959473385 252763849 1471446292 -1765400617 -1456530026 1969238912 2003051113 -1814318540 1884330705 -1865251170 -1368096413 -201832550 -474181213 -549650305 868175150 -338097566 -1716942297 1453422863 -59779266 1366262873 -580001022 -105597398 789534158 -447924143 -1378327708 1261746149 1889280406 971963949 108530623 -1253884540
REM
CELL 1.54180   50.00000   50.00000   50.00000   90.00000   90.00000   90.00000
LATT -1
SFAC C  
C      1  0.5495740000000  0.4300030000000  0.4485140000000 1.0
C      1  0.4504260000000  0.5699970000000  0.4485140000000 1.0
C      1  0.4504260000000  0.4300030000000  0.5514860000000 1.0
C      1  0.5495740000000  0.5699970000000  0.5514860000000 1.0
C      1  0.4300030000000  0.5495740000000  0.4485140000000 1.0
C      1  0.5699970000000  0.4504260000000  0.4485140000000 1.0
C      1  0.4300030000000  0.4504260000000  0.5514860000000 1.0
C      1  0.5699970000000  0.5495740000000  0.5514860000000 1.0
C      1  0.4269350000000  0.5519600000000  0.5507200000000 1.0
C      1  0.5730650000000  0.4480400000000  0.5507200000000 1.0
C      1  0.5730650000000  0.5519600000000  0.4492800000000 1.0
C      1  0.4269350000000  0.4480400000000  0.4492800000000 1.0
C      1  0.5519600000000  0.4269350000000  0.5507200000000 1.0
C      1  0.4480400000000  0.5730650000000  0.5507200000000 1.0
C      1  0.5519600000000  0.5730650000000  0.4492800000000 1.0
C      1  0.4480400000000  0.4269350000000  0.4492800000000 1.0
C      1  0.5005690000000  0.5773400000000  0.4446400000000 1.0
C      1  0.4994310000000  0.4226600000000  0.4446400000000 1.0
C      1  0.4994310000000  0.5773400000000  0.5553600000000 1.0
C      1  0.5005690000000  0.4226600000000  0.5553600000000 1.0
C      1  0.5773400000000  0.5005690000000  0.4446400000000 1.0
C      1  0.4226600000000  0.4994310000000  0.4446400000000 1.0
C      1  0.5773400000000  0.4994310000000  0.5553600000000 1.0
C      1  0.4226600000000  0.5005690000000  0.5553600000000 1.0
C      1  0.5859310000000  0.4981330000000  0.5266320000000 1.0
C      1  0.4140690000000  0.5018670000000  0.5266320000000 1.0
C      1  0.4140690000000  0.4981330000000  0.4733680000000 1.0
C      1  0.5859310000000  0.5018670000000  0.4733680000000 1.0
C      1  0.4981330000000  0.5859310000000  0.5266320000000 1.0
C      1  0.5018670000000  0.4140690000000  0.5266320000000 1.0
C      1  0.4981330000000  0.4140690000000  0.4733680000000 1.0
C      1  0.5018670000000  0.5859310000000  0.4733680000000 1.0
C      1  0.4586080000000  0.5011260000000  0.6001800000000 1.0
C      1  0.5413920000000  0.4988740000000  0.6001800000000 1.0
C      1  0.5413920000000  0.5011260000000  0.3998200000000 1.0
C      1  0.4586080000000  0.4988740000000  0.3998200000000 1.0
C      1  0.5011260000000  0.4586080000000  0.6001800000000 1.0
C      1  0.4988740000000  0.5413920000000  0.6001800000000 1.0
C      1  0.5011260000000  0.5413920000000  0.3998200000000 1.0
C      1  0.4988740000000  0.4586080000000  0.3998200000000 1.0
C      1  0.5276050000000  0.4926590000000  0.4640780000000 1.0
C      1  0.4723950000000  0.5073410000000  0.4640780000000 1.0
C      1  0.4723950000000  0.4926590000000  0.5359220000000 1.0
C      1  0.5276050000000  0.5073410000000  0.5359220000000 1.0
C      1  0.4926590000000  0.5276050000000  0.4640780000000 1.0
C      1  0.5073410000000  0.4723950000000  0.4640780000000 1.0
C      1  0.4926590000000  0.4723950000000  0.5359220000000 1.0
C      1  0.5073410000000  0.5276050000000  0.5359220000000 1.0
C      1  0.4515420000000  0.4304570000000  0.4997330000000 1.0
C      1  0.5484580000000  0.5695430000000  0.4997330000000 1.0
C      1  0.5484580000000  0.4304570000000  0.5002670000000 1.0
C      1  0.4515420000000  0.5695430000000  0.5002670000000 1.0
C      1  0.4304570000000  0.4515420000000  0.4997330000000 1.0
C      1  0.5695430000000  0.5484580000000  0.4997330000000 1.0
C      1  0.4304570000000  0.5484580000000  0.5002670000000 1.0
C      1  0.5695430000000  0.4515420000000  0.5002670000000 1.0
C      1  0.5684870000000  0.5269660000000  0.4331390000000 1.0
C      1  0.4315130000000  0.4730340000000  0.4331390000000 1.0
C      1  0.4315130000000  0.5269660000000  0.5668610000000 1.0
C      1  0.5684870000000  0.4730340000000  0.5668610000000 1.0
C      1  0.5269660000000  0.5684870000000  0.4331390000000 1.0
C      1  0.4730340000000  0.4315130000000  0.4331390000000 1.0
C      1  0.5269660000000  0.4315130000000  0.5668610000000 1.0
C      1  0.4730340000000  0.5684870000000  0.5668610000000 1.0
C      1  0.5241740000000  0.4547550000000  0.4132350000000 1.0
C      1  0.4758260000000  0.5452450000000  0.4132350000000 1.0
C      1  0.4758260000000  0.4547550000000  0.5867650000000 1.0
C      1  0.5241740000000  0.5452450000000  0.5867650000000 1.0
C      1  0.4547550000000  0.5241740000000  0.4132350000000 1.0
C      1  0.5452450000000  0.4758260000000  0.4132350000000 1.0
C      1  0.4547550000000  0.4758260000000  0.5867650000000 1.0
C      1  0.5452450000000  0.5241740000000  0.5867650000000 1.0
C      1  0.5328280000000  0.5100730000000  0.4877870000000 1.0
C      1  0.4671720000000  0.4899270000000  0.4877870000000 1.0
C      1  0.4671720000000  0.5100730000000  0.5122130000000 1.0
C      1  0.5328280000000  0.4899270000000  0.5122130000000 1.0
C      1  0.5100730000000  0.5328280000000  0.4877870000000 1.0
C      1  0.4899270000000  0.4671720000000  0.4877870000000 1.0
C      1  0.5100730000000  0.4671720000000  0.5122130000000 1.0
C      1  0.4899270000000  0.5328280000000  0.5122130000000 1.0
C      1  0.5620230000000  0.5193500000000  0.4890380000000 1.0
C      1  0.4379770000000  0.4806500000000  0.4890380000000 1.0
C      1  0.4379770000000  0.5193500000000  0.5109620000000 1.0
C      1  0.5620230000000  0.4806500000000  0.5109620000000 1.0
C      1  0.5193500000000  0.5620230000000  0.4890380000000 1.0
C      1  0.4806500000000  0.4379770000000  0.4890380000000 1.0
C      1  0.5193500000000  0.4379770000000  0.5109620000000 1.0
C      1  0.4806500000000  0.5620230000000  0.5109620000000 1.0
C      1  0.4115900000000  0.4499200000000  0.4752230000000 1.0
C      1  0.5884100000000  0.5500800000000  0.4752230000000 1.0
C      1  0.5884100000000  0.4499200000000  0.5247770000000 1.0
C      1  0.4115900000000  0.5500800000000  0.5247770000000 1.0
C      1  0.4499200000000  0.4115900000000  0.4752230000000 1.0
C      1  0.5500800000000  0.5884100000000  0.4752230000000 1.0
C      1  0.4499200000000  0.5884100000000  0.5247770000000 1.0
C      1  0.5500800000000  0.4115900000000  0.5247770000000 1.0
C      1  0.6066520000000  0.5175260000000  0.5115630000000 1.0
C      1  0.3933480000000  0.4824740000000  0.5115630000000 1.0
C      1  0.3933480000000  0.5175260000000  0.4884370000000 1.0
C      1  0.6066520000000  0.4824740000000  0.4884370000000 1.0
C      1  0.5175260000000  0.6066520000000  0.5115630000000 1.0
C      1  0.4824740000000  0.3933480000000  0.5115630000000 1.0
C      1  0.5175260000000  0.3933480000000  0.4884370000000 1.0
C      1  0.4824740000000  0.6066520000000  0.4884370000000 1.0
C      1  0.4336320000000  0.5250140000000  0.4336210000000 1.0
C      1  0.5663680000000  0.4749860000000  0.4336210000000 1.0
C      1  0.5663680000000  0.5250140000000  0.5663790000000 1.0
C      1  0.4336320000000  0.4749860000000  0.5663790000000 1.0
C      1  0.5250140000000  0.4336320000000  0.4336210000000 1.0
C      1  0.4749860000000  0.5663680000000  0.4336210000000 1.0
C      1  0.5250140000000  0.5663680000000  0.5663790000000 1.0
C      1  0.4749860000000  0.4336320000000  0.5663790000000 1.0
C      1  0.4526200000000  0.5266920000000  0.5876230000000 1.0
C      1  0.5473800000000  0.4733080000000  0.5876230000000 1.0
C      1  0.5473800000000  0.5266920000000  0.4123770000000 1.0
C      1  0.4526200000000  0.4733080000000  0.4123770000000 1.0
C      1  0.5266920000000  0.4526200000000  0.5876230000000 1.0
C      1  0.4733080000000  0.5473800000000  0.5876230000000 1.0
C      1  0.5266920000000  0.5473800000000  0.4123770000000 1.0
C      1  0.4733080000000  0.4526200000000  0.4123770000000 1.0
C      1  0.4165100000000  0.5493080000000  0.4738650000000 1.0
C      1  0.5834900000000  0.4506920000000  0.4738650000000 1.0
C      1  0.5834900000000  0.5493080000000  0.5261350000000 1.0
C      1  0.4165100000000  0.4506920000000  0.5261350000000 1.0
C      1  0.5493080000000  0.4165100000000  0.4738650000000 1.0
C      1  0.4506920000000  0.5834900000000  0.4738650000000 1.0
C      1  0.5493080000000  0.5834900000000  0.5261350000000 1.0
C      1  0.4506920000000  0.4165100000000  0.5261350000000 1.0
C      1  0.3961090000000  0.5253140000000  0.5176720000000 1.0
C      1  0.6038910000000  0.4746860000000  0.5176720000000 1.0
C      1  0.6038910000000  0.5253140000000  0.4823280000000 1.0
C      1  0.3961090000000  0.4746860000000  0.4823280000000 1.0
C      1  0.5253140000000  0.3961090000000  0.5176720000000 1.0
C      1  0.4746860000000  0.6038910000000  0.5176720000000 1.0
C      1  0.5253140000000  0.6038910000000  0.4823280000000 1.0
C      1  0.4746860000000  0.3961090000000  0.4823280000000 1.0
END
