TITL C-862501-1041-105 2.62269033834576e-05 125000 -232.400975946858 0 0 44 (C1) n - 1
REM
REM in /home/nfs/bkarasulu/CARBON/AIRSS/Generating-Clusters/TERSOFF/Higher-Symm/FIRE-HFTN
REM
REM
REM
REM
REM
REM ./C.cell (b20cbc046b6831c77cfcea5457e17084)
REM AIRSS Version 0.9.1 bugfix July 2018 build 013d7b7c2542+ Fri, 06 Jul 2018 19:26:36 +0100
REM compiler GCC version 9.2.1 20190827 (Red Hat 9.2.1-1)
REM options -cpp -mtune=generic -march=x86-64 -g -O0 -fpre-include=/usr/include/finclude/math-vector-fortran.h
REM seed -1163593332 -479466575 1491551663 -453034512 1028671775 -990323527 -1726605303 1750898426 1480435899 -97934681 1146126733 230941992 -506372660 1133052987 881975914 682786199 688831409 684917841 -900019076 173709591 -1890873913 -545432575 -947960304 1279500436 199147144 1685333717 -1155785765 932849642 1226462964 -340044070 1236326554 -1634342220 -858020752
REM
CELL 1.54180   50.00000   50.00000   50.00000   90.00000   90.00000   90.00000
LATT -1
SFAC C  
C      1  0.4944230000000  0.5218220000000  0.5487400000000 1.0
C      1  0.4953950000000  0.4791700000000  0.4483570000000 1.0
C      1  0.4971640000000  0.5434190000000  0.4580160000000 1.0
C      1  0.4956240000000  0.4580480000000  0.5391490000000 1.0
C      1  0.4645830000000  0.5282620000000  0.5293480000000 1.0
C      1  0.4650700000000  0.4726170000000  0.4671140000000 1.0
C      1  0.5537840000000  0.4512880000000  0.4914200000000 1.0
C      1  0.5536670000000  0.5498280000000  0.5069840000000 1.0
C      1  0.5259640000000  0.4503480000000  0.4766700000000 1.0
C      1  0.5250390000000  0.5496370000000  0.5199660000000 1.0
C      1  0.4828120000000  0.5405840000000  0.5057990000000 1.0
C      1  0.4817420000000  0.4591590000000  0.4914640000000 1.0
C      1  0.5509280000000  0.4682060000000  0.5446980000000 1.0
C      1  0.5517530000000  0.5335510000000  0.4529000000000 1.0
C      1  0.5618050000000  0.5230060000000  0.5207360000000 1.0
C      1  0.5618990000000  0.4786170000000  0.4786830000000 1.0
C      1  0.5177890000000  0.5442810000000  0.4789180000000 1.0
C      1  0.5162160000000  0.4551530000000  0.5184030000000 1.0
C      1  0.5437160000000  0.5183620000000  0.5461840000000 1.0
C      1  0.5445290000000  0.4835850000000  0.4528520000000 1.0
C      1  0.4654280000000  0.5071950000000  0.4569040000000 1.0
C      1  0.4643790000000  0.4938780000000  0.5401600000000 1.0
C      1  0.5204430000000  0.5372730000000  0.5465810000000 1.0
C      1  0.5218120000000  0.4641970000000  0.4507640000000 1.0
C      1  0.5463380000000  0.5517330000000  0.4756440000000 1.0
C      1  0.5449470000000  0.4497670000000  0.5225200000000 1.0
C      1  0.4412450000000  0.5247770000000  0.5017990000000 1.0
C      1  0.4407910000000  0.4755330000000  0.4939750000000 1.0
C      1  0.4718780000000  0.4535060000000  0.5199280000000 1.0
C      1  0.4733390000000  0.5479910000000  0.4773870000000 1.0
C      1  0.4488100000000  0.4705590000000  0.5260260000000 1.0
C      1  0.4508960000000  0.5302580000000  0.4714990000000 1.0
C      1  0.5100390000000  0.4714600000000  0.4938510000000 1.0
C      1  0.5106050000000  0.5271660000000  0.5024130000000 1.0
C      1  0.4985940000000  0.5137420000000  0.4441420000000 1.0
C      1  0.4976110000000  0.4875080000000  0.5529490000000 1.0
C      1  0.5344320000000  0.5106190000000  0.4465880000000 1.0
C      1  0.5334720000000  0.4909850000000  0.5516170000000 1.0
C      1  0.5289300000000  0.4989610000000  0.5032170000000 1.0
C      1  0.4608990000000  0.4999140000000  0.4986950000000 1.0
C      1  0.3937680000000  0.4985150000000  0.5116260000000 1.0
C      1  0.5584210000000  0.4996230000000  0.5009300000000 1.0
C      1  0.4886470000000  0.5005780000000  0.4919670000000 1.0
C      1  0.4189640000000  0.5004890000000  0.4975160000000 1.0
END
