TITL C-862506-1665-373 0.00152940034361294 125000 -323.842249150165 0 0 61 (Cs) n - 1
REM
REM in /home/nfs/bkarasulu/CARBON/AIRSS/Generating-Clusters/TERSOFF/Higher-Symm/FIRE-HFTN
REM
REM
REM
REM
REM
REM ./C.cell (b20cbc046b6831c77cfcea5457e17084)
REM AIRSS Version 0.9.1 bugfix July 2018 build 013d7b7c2542+ Fri, 06 Jul 2018 19:26:36 +0100
REM compiler GCC version 9.2.1 20190827 (Red Hat 9.2.1-1)
REM options -cpp -mtune=generic -march=x86-64 -g -O0 -fpre-include=/usr/include/finclude/math-vector-fortran.h
REM seed -1948281536 1397624670 382847675 1624212981 1647569446 -883689624 1693111745 -52954917 -1004413555 -1398982793 90020816 976614890 -62608701 1268719962 2066869586 727215156 1902258578 -1685102022 -332584700 -861909658 -832937828 28531119 123444038 -667646160 -1208501825 -42638944 923525726 1815262927 -137643031 -2059213981 1301084419 2019492458 -1411132311
REM
CELL 1.54180   50.00000   50.00000   50.00000   90.00000   90.00000   90.00000
LATT -1
SFAC C  
C      1  0.5711490000000  0.5066810000000  0.5016180000000 1.0
C      1  0.4290720000000  0.5066750000000  0.5016160000000 1.0
C      1  0.4349630000000  0.4767350000000  0.4815360000000 1.0
C      1  0.5652600000000  0.4767410000000  0.4815370000000 1.0
C      1  0.5419440000000  0.4856060000000  0.5263920000000 1.0
C      1  0.4582770000000  0.4856020000000  0.5263910000000 1.0
C      1  0.4326230000000  0.5015070000000  0.5316490000000 1.0
C      1  0.5675970000000  0.5015130000000  0.5316500000000 1.0
C      1  0.4520480000000  0.5355490000000  0.4684100000000 1.0
C      1  0.5481710000000  0.5355530000000  0.4684110000000 1.0
C      1  0.4743120000000  0.5538980000000  0.4634950000000 1.0
C      1  0.5259050000000  0.5539000000000  0.4634960000000 1.0
C      1  0.4544560000000  0.4503790000000  0.4637080000000 1.0
C      1  0.5457700000000  0.4503820000000  0.4637090000000 1.0
C      1  0.4745370000000  0.4494010000000  0.4881720000000 1.0
C      1  0.5256890000000  0.4494040000000  0.4881730000000 1.0
C      1  0.5241250000000  0.4732750000000  0.5469560000000 1.0
C      1  0.4760970000000  0.4732730000000  0.5469550000000 1.0
C      1  0.5280620000000  0.5318480000000  0.5667230000000 1.0
C      1  0.4721550000000  0.5318460000000  0.5667220000000 1.0
C      1  0.5448580000000  0.5525580000000  0.5164740000000 1.0
C      1  0.4553580000000  0.5525540000000  0.5164730000000 1.0
C      1  0.5264390000000  0.5757440000000  0.5058840000000 1.0
C      1  0.4737760000000  0.5757410000000  0.5058840000000 1.0
C      1  0.5257950000000  0.5021080000000  0.5015700000000 1.0
C      1  0.4744260000000  0.5021060000000  0.5015700000000 1.0
C      1  0.5380510000000  0.5077120000000  0.4735570000000 1.0
C      1  0.4621690000000  0.5077090000000  0.4735560000000 1.0
C      1  0.5422130000000  0.4716380000000  0.4421590000000 1.0
C      1  0.4580120000000  0.4716340000000  0.4421580000000 1.0
C      1  0.5467710000000  0.5462640000000  0.5466750000000 1.0
C      1  0.4534450000000  0.5462600000000  0.5466740000000 1.0
C      1  0.4754220000000  0.5800040000000  0.4766990000000 1.0
C      1  0.5247930000000  0.5800060000000  0.4766990000000 1.0
C      1  0.4735200000000  0.4326030000000  0.4419810000000 1.0
C      1  0.5267080000000  0.4326050000000  0.4419810000000 1.0
C      1  0.4745660000000  0.4918340000000  0.4529990000000 1.0
C      1  0.5256560000000  0.4918360000000  0.4530000000000 1.0
C      1  0.5248160000000  0.4459110000000  0.5608330000000 1.0
C      1  0.4754090000000  0.4459090000000  0.5608330000000 1.0
C      1  0.4395820000000  0.5355430000000  0.4954190000000 1.0
C      1  0.5606360000000  0.5355480000000  0.4954200000000 1.0
C      1  0.4427110000000  0.4667820000000  0.5092390000000 1.0
C      1  0.5575120000000  0.4667860000000  0.5092400000000 1.0
C      1  0.5001100000000  0.5225880000000  0.4932320000000 1.0
C      1  0.5001140000000  0.4199100000000  0.4487630000000 1.0
C      1  0.5001090000000  0.5383240000000  0.4638890000000 1.0
C      1  0.5001090000000  0.5350770000000  0.5355530000000 1.0
C      1  0.5001110000000  0.4810090000000  0.4984790000000 1.0
C      1  0.5001070000000  0.5807480000000  0.5201330000000 1.0
C      1  0.5001130000000  0.4294380000000  0.5235350000000 1.0
C      1  0.5001090000000  0.5181930000000  0.5594750000000 1.0
C      1  0.5001100000000  0.5220030000000  0.4389140000000 1.0
C      1  0.5001070000000  0.5943780000000  0.4695050000000 1.0
C      1  0.5001130000000  0.4293770000000  0.5552720000000 1.0
C      1  0.5001100000000  0.4895160000000  0.5574180000000 1.0
C      1  0.5001130000000  0.4330380000000  0.4927220000000 1.0
C      1  0.5001120000000  0.4826500000000  0.4648680000000 1.0
C      1  0.5001070000000  0.5627220000000  0.5411820000000 1.0
C      1  0.5001120000000  0.4623760000000  0.5253710000000 1.0
C      1  0.5001140000000  0.4094470000000  0.4756610000000 1.0
END
