TITL C-862127-1500-609 -0.00166934301041084 125000 -297.601385643586 0 0 53 (C1) n - 1
REM
REM in /home/nfs/bkarasulu/CARBON/AIRSS/Generating-Clusters/TERSOFF/Higher-Symm/FIRE-HFTN
REM
REM
REM
REM
REM
REM ./C.cell (b20cbc046b6831c77cfcea5457e17084)
REM AIRSS Version 0.9.1 bugfix July 2018 build 013d7b7c2542+ Fri, 06 Jul 2018 19:26:36 +0100
REM compiler GCC version 9.2.1 20190827 (Red Hat 9.2.1-1)
REM options -cpp -mtune=generic -march=x86-64 -g -O0 -fpre-include=/usr/include/finclude/math-vector-fortran.h
REM seed 1076228123 584912082 1691565435 1694837534 1839306806 1421901969 1531057704 2118603090 2116271513 916494719 286952307 604102586 1124168072 -1601970154 -54301920 2084699815 -1187844533 -623707029 -231661273 -1739112335 1241815918 1527680644 -1121490811 -753296097 -1717873838 -161390529 1748173164 1296158968 591682521 -168009741 -464088884 36275195 -1776447207
REM
CELL 1.54180   50.00000   50.00000   50.00000   90.00000   90.00000   90.00000
LATT -1
SFAC C  
C      1  0.5350280000000  0.4908960000000  0.4472750000000 1.0
C      1  0.5355100000000  0.5257750000000  0.5561140000000 1.0
C      1  0.4571300000000  0.5016830000000  0.5656890000000 1.0
C      1  0.4627670000000  0.5624940000000  0.5119920000000 1.0
C      1  0.4689620000000  0.5493390000000  0.5399800000000 1.0
C      1  0.5475680000000  0.4736570000000  0.4668360000000 1.0
C      1  0.4484660000000  0.5359140000000  0.4664220000000 1.0
C      1  0.4966370000000  0.5429300000000  0.5272940000000 1.0
C      1  0.4484250000000  0.5175790000000  0.5067990000000 1.0
C      1  0.4939040000000  0.5054180000000  0.5458210000000 1.0
C      1  0.5297330000000  0.4759300000000  0.5553570000000 1.0
C      1  0.4694750000000  0.4492610000000  0.5117670000000 1.0
C      1  0.5567920000000  0.4867210000000  0.5497450000000 1.0
C      1  0.4783260000000  0.4135180000000  0.4590600000000 1.0
C      1  0.5230670000000  0.4982450000000  0.5065370000000 1.0
C      1  0.5378060000000  0.5229750000000  0.5142930000000 1.0
C      1  0.5414620000000  0.4740400000000  0.4961710000000 1.0
C      1  0.5262160000000  0.4510730000000  0.5085250000000 1.0
C      1  0.4710860000000  0.5695760000000  0.5615540000000 1.0
C      1  0.4670590000000  0.4742220000000  0.5566840000000 1.0
C      1  0.4706820000000  0.5456520000000  0.4473660000000 1.0
C      1  0.4723060000000  0.4566410000000  0.4823600000000 1.0
C      1  0.4700200000000  0.5001310000000  0.4994700000000 1.0
C      1  0.4764520000000  0.5184910000000  0.4360250000000 1.0
C      1  0.4925870000000  0.4384550000000  0.4676880000000 1.0
C      1  0.4456990000000  0.5445490000000  0.4955150000000 1.0
C      1  0.5123950000000  0.4299620000000  0.4914900000000 1.0
C      1  0.5346360000000  0.5218530000000  0.4536020000000 1.0
C      1  0.5607960000000  0.5173540000000  0.5381140000000 1.0
C      1  0.5063180000000  0.5605460000000  0.4839320000000 1.0
C      1  0.4495860000000  0.4100890000000  0.4590610000000 1.0
C      1  0.5174580000000  0.5026290000000  0.5619020000000 1.0
C      1  0.4884940000000  0.4982030000000  0.4542430000000 1.0
C      1  0.5137240000000  0.4589970000000  0.5352650000000 1.0
C      1  0.5195530000000  0.5433530000000  0.4387780000000 1.0
C      1  0.5046790000000  0.4516240000000  0.4441860000000 1.0
C      1  0.4988230000000  0.5325180000000  0.4965360000000 1.0
C      1  0.5380370000000  0.5473240000000  0.4952420000000 1.0
C      1  0.5080390000000  0.5148350000000  0.4710290000000 1.0
C      1  0.5083200000000  0.4800530000000  0.4414970000000 1.0
C      1  0.4511390000000  0.5251250000000  0.5478770000000 1.0
C      1  0.4977320000000  0.4095730000000  0.5074210000000 1.0
C      1  0.5791290000000  0.5024830000000  0.5178840000000 1.0
C      1  0.4984330000000  0.5569390000000  0.4541540000000 1.0
C      1  0.4855250000000  0.5760050000000  0.4992230000000 1.0
C      1  0.4726930000000  0.4204530000000  0.5172720000000 1.0
C      1  0.4835580000000  0.4673040000000  0.5315700000000 1.0
C      1  0.4679370000000  0.4860050000000  0.4731670000000 1.0
C      1  0.5694650000000  0.4777680000000  0.5068050000000 1.0
C      1  0.5203900000000  0.5473740000000  0.5437060000000 1.0
C      1  0.4446650000000  0.5055390000000  0.4643400000000 1.0
C      1  0.4928010000000  0.4943130000000  0.5175980000000 1.0
C      1  0.5525090000000  0.5366140000000  0.4717640000000 1.0
END
