TITL C-862505-1648-139 0.0037645697745935 125000 -635.793046026982 0 0 120 (C1) n - 1
REM
REM in /home/nfs/bkarasulu/CARBON/AIRSS/Generating-Clusters/TERSOFF/Higher-Symm/FIRE-HFTN
REM
REM
REM
REM
REM
REM ./C.cell (b20cbc046b6831c77cfcea5457e17084)
REM AIRSS Version 0.9.1 bugfix July 2018 build 013d7b7c2542+ Fri, 06 Jul 2018 19:26:36 +0100
REM compiler GCC version 9.2.1 20190827 (Red Hat 9.2.1-1)
REM options -cpp -mtune=generic -march=x86-64 -g -O0 -fpre-include=/usr/include/finclude/math-vector-fortran.h
REM seed 232224315 -2076163759 -491759521 1742876094 -115298621 1544395015 -145884179 -555515014 1411270803 1573993378 -309162634 1299123683 956543152 -340005793 -764388105 928878033 1118049158 2079721826 -1934746602 -1924501225 713071532 1223663630 -1028095027 -1526774053 1079384305 1931261716 568505013 505555323 2097663929 502127085 -502205599 -230404376 -1523866307
REM
CELL 1.54180   50.00000   50.00000   50.00000   90.00000   90.00000   90.00000
LATT -1
SFAC C  
C      1  0.4737240000000  0.5903170000000  0.5065600000000 1.0
C      1  0.4346860000000  0.4321120000000  0.5066600000000 1.0
C      1  0.5909920000000  0.4775890000000  0.5059470000000 1.0
C      1  0.5222060000000  0.5686920000000  0.5502720000000 1.0
C      1  0.4293830000000  0.4849510000000  0.5502560000000 1.0
C      1  0.5483430000000  0.4463580000000  0.5500520000000 1.0
C      1  0.4814750000000  0.5901030000000  0.4777580000000 1.0
C      1  0.4312300000000  0.4389950000000  0.4778110000000 1.0
C      1  0.5866230000000  0.4710370000000  0.4771630000000 1.0
C      1  0.5455320000000  0.5241680000000  0.4957690000000 1.0
C      1  0.4566450000000  0.5272250000000  0.4953310000000 1.0
C      1  0.4976240000000  0.4487900000000  0.4953190000000 1.0
C      1  0.4821200000000  0.4137970000000  0.4604120000000 1.0
C      1  0.5828420000000  0.5277470000000  0.4592500000000 1.0
C      1  0.4345490000000  0.5578820000000  0.4599730000000 1.0
C      1  0.5669490000000  0.4470420000000  0.4722200000000 1.0
C      1  0.5125610000000  0.5855320000000  0.4724930000000 1.0
C      1  0.4206050000000  0.4681250000000  0.4723900000000 1.0
C      1  0.5100090000000  0.4190100000000  0.5610340000000 1.0
C      1  0.5648920000000  0.5492450000000  0.5608440000000 1.0
C      1  0.4248300000000  0.5317380000000  0.5610030000000 1.0
C      1  0.4722500000000  0.4672530000000  0.5606930000000 1.0
C      1  0.5424640000000  0.4923700000000  0.5607330000000 1.0
C      1  0.4854710000000  0.5404090000000  0.5607220000000 1.0
C      1  0.5665760000000  0.4867310000000  0.5393230000000 1.0
C      1  0.4782140000000  0.5641720000000  0.5393590000000 1.0
C      1  0.4551820000000  0.4490500000000  0.5394600000000 1.0
C      1  0.5204480000000  0.4331130000000  0.4519130000000 1.0
C      1  0.5482510000000  0.5520140000000  0.4527270000000 1.0
C      1  0.4319000000000  0.5150110000000  0.4516590000000 1.0
C      1  0.4958750000000  0.5227930000000  0.4139810000000 1.0
C      1  0.4890590000000  0.4779310000000  0.4099010000000 1.0
C      1  0.5158730000000  0.4973650000000  0.4105710000000 1.0
C      1  0.5110170000000  0.5556250000000  0.4789060000000 1.0
C      1  0.4467120000000  0.4824980000000  0.4794420000000 1.0
C      1  0.5415720000000  0.4626440000000  0.4793140000000 1.0
C      1  0.5068130000000  0.4802780000000  0.6086840000000 1.0
C      1  0.5138070000000  0.5156700000000  0.6086940000000 1.0
C      1  0.4796430000000  0.5040390000000  0.6087120000000 1.0
C      1  0.4598530000000  0.4119880000000  0.5088990000000 1.0
C      1  0.5957530000000  0.5093610000000  0.5080200000000 1.0
C      1  0.4435630000000  0.5785750000000  0.5086840000000 1.0
C      1  0.4598340000000  0.5834950000000  0.4574070000000 1.0
C      1  0.4474370000000  0.4233700000000  0.4575700000000 1.0
C      1  0.5915680000000  0.4928700000000  0.4565910000000 1.0
C      1  0.5187270000000  0.4938930000000  0.5420840000000 1.0
C      1  0.4958410000000  0.5193340000000  0.5418250000000 1.0
C      1  0.4854160000000  0.4867440000000  0.5418560000000 1.0
C      1  0.5468000000000  0.4431600000000  0.4425270000000 1.0
C      1  0.5275050000000  0.5705440000000  0.4433230000000 1.0
C      1  0.4276540000000  0.4869600000000  0.4423360000000 1.0
C      1  0.5131910000000  0.5520500000000  0.4194120000000 1.0
C      1  0.4556090000000  0.4874530000000  0.4193080000000 1.0
C      1  0.5340950000000  0.4666110000000  0.4182190000000 1.0
C      1  0.4974280000000  0.5315730000000  0.5150560000000 1.0
C      1  0.4739810000000  0.4822110000000  0.5150480000000 1.0
C      1  0.5282960000000  0.4860720000000  0.5153010000000 1.0
C      1  0.5190330000000  0.5036490000000  0.4924140000000 1.0
C      1  0.4876640000000  0.5144730000000  0.4919790000000 1.0
C      1  0.4937130000000  0.4819690000000  0.4919240000000 1.0
C      1  0.4501810000000  0.4832220000000  0.5724600000000 1.0
C      1  0.5395610000000  0.4651830000000  0.5723760000000 1.0
C      1  0.5103740000000  0.5515210000000  0.5724370000000 1.0
C      1  0.5307330000000  0.4123730000000  0.4987620000000 1.0
C      1  0.5606740000000  0.5706580000000  0.4990790000000 1.0
C      1  0.4088030000000  0.5169060000000  0.4987290000000 1.0
C      1  0.4344410000000  0.5622150000000  0.5317590000000 1.0
C      1  0.4786740000000  0.4122390000000  0.5318970000000 1.0
C      1  0.5864550000000  0.5255350000000  0.5312730000000 1.0
C      1  0.4280500000000  0.5771940000000  0.4841240000000 1.0
C      1  0.4685070000000  0.3989560000000  0.4844730000000 1.0
C      1  0.6026680000000  0.5232320000000  0.4834020000000 1.0
C      1  0.5166240000000  0.4091200000000  0.4704740000000 1.0
C      1  0.5712700000000  0.5602420000000  0.4707220000000 1.0
C      1  0.4130800000000  0.5305240000000  0.4703200000000 1.0
C      1  0.5014110000000  0.4508070000000  0.4649680000000 1.0
C      1  0.5413830000000  0.5268360000000  0.4655870000000 1.0
C      1  0.4565180000000  0.5225070000000  0.4651200000000 1.0
C      1  0.4241350000000  0.4595580000000  0.5277880000000 1.0
C      1  0.5728510000000  0.4546690000000  0.5273470000000 1.0
C      1  0.5028730000000  0.5857510000000  0.5275820000000 1.0
C      1  0.5140430000000  0.4611880000000  0.5871590000000 1.0
C      1  0.5266760000000  0.5314940000000  0.5871710000000 1.0
C      1  0.4594260000000  0.5073050000000  0.5872210000000 1.0
C      1  0.5380740000000  0.4823920000000  0.4580740000000 1.0
C      1  0.4951070000000  0.5430420000000  0.4576840000000 1.0
C      1  0.4654520000000  0.4753360000000  0.4582890000000 1.0
C      1  0.4671140000000  0.5195470000000  0.4205300000000 1.0
C      1  0.5018450000000  0.4501490000000  0.4166990000000 1.0
C      1  0.5375740000000  0.5252380000000  0.4176500000000 1.0
C      1  0.5252100000000  0.4581160000000  0.5061260000000 1.0
C      1  0.5229930000000  0.5432490000000  0.5058300000000 1.0
C      1  0.4511560000000  0.4987880000000  0.5061890000000 1.0
C      1  0.5554400000000  0.4986450000000  0.5127430000000 1.0
C      1  0.4729780000000  0.5488860000000  0.5125840000000 1.0
C      1  0.4708600000000  0.4523290000000  0.5126520000000 1.0
C      1  0.5193130000000  0.5057580000000  0.4587290000000 1.0
C      1  0.4857520000000  0.5146390000000  0.4578440000000 1.0
C      1  0.4948900000000  0.4808670000000  0.4582830000000 1.0
C      1  0.5279340000000  0.4405030000000  0.5297230000000 1.0
C      1  0.5372200000000  0.5540870000000  0.5296270000000 1.0
C      1  0.4345230000000  0.5053870000000  0.5297720000000 1.0
C      1  0.4683130000000  0.4257590000000  0.5560190000000 1.0
C      1  0.5802660000000  0.5098030000000  0.5555600000000 1.0
C      1  0.4514600000000  0.5644590000000  0.5558010000000 1.0
C      1  0.5110810000000  0.4131500000000  0.5289580000000 1.0
C      1  0.5693650000000  0.5529380000000  0.5288550000000 1.0
C      1  0.4192320000000  0.5336530000000  0.5288820000000 1.0
C      1  0.4922050000000  0.4421270000000  0.5747830000000 1.0
C      1  0.5541610000000  0.5222090000000  0.5747350000000 1.0
C      1  0.4537520000000  0.5357170000000  0.5747920000000 1.0
C      1  0.4111020000000  0.4810560000000  0.5015890000000 1.0
C      1  0.5605670000000  0.4324340000000  0.5013910000000 1.0
C      1  0.5283070000000  0.5863630000000  0.5016510000000 1.0
C      1  0.5566200000000  0.4837050000000  0.4352700000000 1.0
C      1  0.4848490000000  0.5587370000000  0.4346340000000 1.0
C      1  0.4572360000000  0.4578910000000  0.4358220000000 1.0
C      1  0.4786190000000  0.4365810000000  0.4327390000000 1.0
C      1  0.5633450000000  0.5135480000000  0.4323910000000 1.0
C      1  0.4547620000000  0.5479040000000  0.4317740000000 1.0
END
