TITL C-862500-986-349 5.26637785052582e-05 125000 -255.689229972961 0 0 46 (C3) n - 1
REM
REM in /home/nfs/bkarasulu/CARBON/AIRSS/Generating-Clusters/TERSOFF/Higher-Symm/FIRE-HFTN
REM
REM
REM
REM
REM
REM ./C.cell (b20cbc046b6831c77cfcea5457e17084)
REM AIRSS Version 0.9.1 bugfix July 2018 build 013d7b7c2542+ Fri, 06 Jul 2018 19:26:36 +0100
REM compiler GCC version 9.2.1 20190827 (Red Hat 9.2.1-1)
REM options -cpp -mtune=generic -march=x86-64 -g -O0 -fpre-include=/usr/include/finclude/math-vector-fortran.h
REM seed 338918888 -651251589 4050883 945393494 -322716183 1549269458 -1846931213 979230004 706570404 1605682132 1455859356 -554539150 -1435189700 -413008682 368684014 1869290914 -1219064407 -1279420431 -1727616892 1191489055 1849002126 -1914673432 -1605753820 -272065184 1195294189 269868146 -1684378773 -1336634269 1262194881 -1521181868 1141216832 -1535926623 -2035580188
REM
CELL 1.54180   50.00000   50.00000   50.00000   90.00000   90.00000   90.00000
LATT -1
SFAC C  
C      1  0.5127400000000  0.4756410000000  0.5097660000000 1.0
C      1  0.5127400000000  0.5212450000000  0.5153190000000 1.0
C      1  0.5127400000000  0.5032530000000  0.4730480000000 1.0
C      1  0.4852260000000  0.4751530000000  0.5088340000000 1.0
C      1  0.4852270000000  0.5206820000000  0.5162080000000 1.0
C      1  0.4852270000000  0.5043040000000  0.4730910000000 1.0
C      1  0.4837640000000  0.5716060000000  0.4851980000000 1.0
C      1  0.4837630000000  0.4519870000000  0.4444950000000 1.0
C      1  0.4837630000000  0.4765470000000  0.5684400000000 1.0
C      1  0.5106820000000  0.5639820000000  0.4746550000000 1.0
C      1  0.5106810000000  0.4466680000000  0.4563690000000 1.0
C      1  0.5106810000000  0.4894890000000  0.5671090000000 1.0
C      1  0.4523970000000  0.4683390000000  0.4835470000000 1.0
C      1  0.4523970000000  0.5021900000000  0.5347530000000 1.0
C      1  0.4523970000000  0.5296110000000  0.4798330000000 1.0
C      1  0.5468610000000  0.4671140000000  0.4868450000000 1.0
C      1  0.5468610000000  0.5056590000000  0.5341650000000 1.0
C      1  0.5468610000000  0.5273660000000  0.4771240000000 1.0
C      1  0.4629070000000  0.5531570000000  0.4960450000000 1.0
C      1  0.4629070000000  0.4706060000000  0.4550490000000 1.0
C      1  0.4629060000000  0.4763770000000  0.5470380000000 1.0
C      1  0.5335630000000  0.5516470000000  0.4897850000000 1.0
C      1  0.5335620000000  0.4659390000000  0.4594860000000 1.0
C      1  0.5335620000000  0.4825530000000  0.5488610000000 1.0
C      1  0.5282920000000  0.5333300000000  0.5380680000000 1.0
C      1  0.5282920000000  0.5169110000000  0.4512080000000 1.0
C      1  0.5282920000000  0.4498970000000  0.5088570000000 1.0
C      1  0.4706440000000  0.5296260000000  0.5410030000000 1.0
C      1  0.4706440000000  0.5213050000000  0.4529490000000 1.0
C      1  0.4706430000000  0.4492090000000  0.5041810000000 1.0
C      1  0.5364500000000  0.4553610000000  0.5378670000000 1.0
C      1  0.5364510000000  0.5557220000000  0.5188320000000 1.0
C      1  0.5364510000000  0.4890560000000  0.4414340000000 1.0
C      1  0.4590750000000  0.4517070000000  0.5318630000000 1.0
C      1  0.4590760000000  0.5523490000000  0.5249990000000 1.0
C      1  0.4590760000000  0.4960840000000  0.4412720000000 1.0
C      1  0.5013020000000  0.4065160000000  0.4910180000000 1.0
C      1  0.5013030000000  0.5395720000000  0.5845570000000 1.0
C      1  0.5013030000000  0.5540510000000  0.4225580000000 1.0
C      1  0.5001610000000  0.5344330000000  0.5559600000000 1.0
C      1  0.5001620000000  0.5318550000000  0.4413070000000 1.0
C      1  0.5001610000000  0.4338510000000  0.5008660000000 1.0
C      1  0.5548660000000  0.5000460000000  0.4993780000000 1.0
C      1  0.4442640000000  0.5000470000000  0.4993780000000 1.0
C      1  0.4747670000000  0.5000470000000  0.4993780000000 1.0
C      1  0.5240860000000  0.5000460000000  0.4993780000000 1.0
END
