TITL C-862134-6730-1071 0.000998803366629244 125000 -209.673487609546 0 0 38 (C1) n - 1
REM
REM in /home/nfs/bkarasulu/CARBON/AIRSS/Generating-Clusters/TERSOFF/Higher-Symm/FIRE-HFTN
REM
REM
REM
REM
REM
REM ./C.cell (b20cbc046b6831c77cfcea5457e17084)
REM AIRSS Version 0.9.1 bugfix July 2018 build 013d7b7c2542+ Fri, 06 Jul 2018 19:26:36 +0100
REM compiler GCC version 9.2.1 20190827 (Red Hat 9.2.1-1)
REM options -cpp -mtune=generic -march=x86-64 -g -O0 -fpre-include=/usr/include/finclude/math-vector-fortran.h
REM seed 56304442 527493458 1967889013 -192972093 1536461605 347611951 -954052424 383368512 575452175 120871006 -1366766210 817640318 746353143 -1250664212 -57657449 -1261014480 -1664755491 -72772345 -660602906 -2046456719 580543686 -269264615 -1040633522 1191051463 -1157013848 83026007 -2089308335 393675238 459078377 1185641355 -1389255428 -1760966310 -1243950356
REM
CELL 1.54180   50.00000   50.00000   50.00000   90.00000   90.00000   90.00000
LATT -1
SFAC C  
C      1  0.4695260000000  0.5190700000000  0.5206930000000 1.0
C      1  0.5146300000000  0.4771170000000  0.4525040000000 1.0
C      1  0.4708190000000  0.5129270000000  0.5734530000000 1.0
C      1  0.4688840000000  0.4393700000000  0.4961930000000 1.0
C      1  0.4420020000000  0.5044610000000  0.5130140000000 1.0
C      1  0.4867940000000  0.4646660000000  0.4558150000000 1.0
C      1  0.4831630000000  0.4402070000000  0.4711660000000 1.0
C      1  0.5498680000000  0.5019990000000  0.4776850000000 1.0
C      1  0.4990670000000  0.5551220000000  0.5365820000000 1.0
C      1  0.5381860000000  0.4740660000000  0.4729670000000 1.0
C      1  0.4870800000000  0.5383020000000  0.4503480000000 1.0
C      1  0.5172320000000  0.5751060000000  0.4715700000000 1.0
C      1  0.5643590000000  0.5097240000000  0.5017540000000 1.0
C      1  0.5444880000000  0.4960080000000  0.5548810000000 1.0
C      1  0.5133200000000  0.5489910000000  0.4597170000000 1.0
C      1  0.4989660000000  0.4785260000000  0.5498690000000 1.0
C      1  0.4956530000000  0.5192480000000  0.4286970000000 1.0
C      1  0.4436120000000  0.4763950000000  0.5195910000000 1.0
C      1  0.5182540000000  0.4740760000000  0.5128300000000 1.0
C      1  0.4328110000000  0.5057010000000  0.4847050000000 1.0
C      1  0.4880430000000  0.5122080000000  0.4962430000000 1.0
C      1  0.4730370000000  0.5492850000000  0.5241210000000 1.0
C      1  0.5157170000000  0.5234890000000  0.4930000000000 1.0
C      1  0.5483620000000  0.4489840000000  0.5276770000000 1.0
C      1  0.5390750000000  0.5223890000000  0.5449830000000 1.0
C      1  0.4614990000000  0.4798840000000  0.4489760000000 1.0
C      1  0.4916690000000  0.4819560000000  0.5047010000000 1.0
C      1  0.4737680000000  0.5212510000000  0.4707060000000 1.0
C      1  0.5105190000000  0.5301060000000  0.5473930000000 1.0
C      1  0.4811120000000  0.4579370000000  0.5410590000000 1.0
C      1  0.4685900000000  0.4621800000000  0.5147460000000 1.0
C      1  0.5360640000000  0.4548470000000  0.4963700000000 1.0
C      1  0.5317700000000  0.5237730000000  0.4650290000000 1.0
C      1  0.4880280000000  0.5077830000000  0.5495280000000 1.0
C      1  0.5547130000000  0.5293140000000  0.5213690000000 1.0
C      1  0.5177890000000  0.5052500000000  0.4427970000000 1.0
C      1  0.5292630000000  0.4736990000000  0.5444510000000 1.0
C      1  0.4522690000000  0.5045850000000  0.4628170000000 1.0
END
