TITL C-862132-7359-146 1.50711084703681e-06 125000 -257.853585531375 0 0 48 (T23) n - 1
REM
REM in /home/nfs/bkarasulu/CARBON/AIRSS/Generating-Clusters/TERSOFF/Higher-Symm/FIRE-HFTN
REM
REM
REM
REM
REM
REM ./C.cell (b20cbc046b6831c77cfcea5457e17084)
REM AIRSS Version 0.9.1 bugfix July 2018 build 013d7b7c2542+ Fri, 06 Jul 2018 19:26:36 +0100
REM compiler GCC version 9.2.1 20190827 (Red Hat 9.2.1-1)
REM options -cpp -mtune=generic -march=x86-64 -g -O0 -fpre-include=/usr/include/finclude/math-vector-fortran.h
REM seed -1895868743 530298108 -1742262625 -533840784 -1136595178 162762556 1499631019 -1081690950 1448505095 -34633627 1947833734 1411764110 -234661613 -887081917 -1540107906 -1192725512 1879895615 67524057 1066917946 1939299342 983388282 -583936572 941252232 -1670316306 1043909504 -1091100713 829915124 13612135 -1384973419 758704582 432013556 719155282 -1973131342
REM
CELL 1.54180   50.00000   50.00000   50.00000   90.00000   90.00000   90.00000
LATT -1
SFAC C  
C      1  0.5261800000000  0.4521560000000  0.5063750000000 1.0
C      1  0.4521560000000  0.5063750000000  0.5261800000000 1.0
C      1  0.5063750000000  0.5261800000000  0.4521560000000 1.0
C      1  0.4738200000000  0.5478440000000  0.5063750000000 1.0
C      1  0.5261800000000  0.5478440000000  0.4936250000000 1.0
C      1  0.4738200000000  0.4521560000000  0.4936250000000 1.0
C      1  0.5478440000000  0.4936250000000  0.5261800000000 1.0
C      1  0.4521560000000  0.4936250000000  0.4738200000000 1.0
C      1  0.5478440000000  0.5063750000000  0.4738200000000 1.0
C      1  0.4936250000000  0.4738200000000  0.4521560000000 1.0
C      1  0.5063750000000  0.4738200000000  0.5478440000000 1.0
C      1  0.4936250000000  0.5261800000000  0.5478440000000 1.0
C      1  0.4366900000000  0.4514040000000  0.4661620000000 1.0
C      1  0.4514040000000  0.4661620000000  0.4366900000000 1.0
C      1  0.4661620000000  0.4366900000000  0.4514040000000 1.0
C      1  0.5633100000000  0.5485960000000  0.4661620000000 1.0
C      1  0.4366900000000  0.5485960000000  0.5338380000000 1.0
C      1  0.5633100000000  0.4514040000000  0.5338380000000 1.0
C      1  0.5485960000000  0.5338380000000  0.4366900000000 1.0
C      1  0.4514040000000  0.5338380000000  0.5633100000000 1.0
C      1  0.5485960000000  0.4661620000000  0.5633100000000 1.0
C      1  0.5338380000000  0.5633100000000  0.4514040000000 1.0
C      1  0.4661620000000  0.5633100000000  0.5485960000000 1.0
C      1  0.5338380000000  0.4366900000000  0.5485960000000 1.0
C      1  0.5171670000000  0.4412000000000  0.4806630000000 1.0
C      1  0.4412000000000  0.4806630000000  0.5171670000000 1.0
C      1  0.4806630000000  0.5171670000000  0.4412000000000 1.0
C      1  0.4828330000000  0.5588000000000  0.4806630000000 1.0
C      1  0.5171670000000  0.5588000000000  0.5193370000000 1.0
C      1  0.4828330000000  0.4412000000000  0.5193370000000 1.0
C      1  0.5588000000000  0.5193370000000  0.5171670000000 1.0
C      1  0.4412000000000  0.5193370000000  0.4828330000000 1.0
C      1  0.5588000000000  0.4806630000000  0.4828330000000 1.0
C      1  0.5193370000000  0.4828330000000  0.4412000000000 1.0
C      1  0.4806630000000  0.4828330000000  0.5588000000000 1.0
C      1  0.5193370000000  0.5171670000000  0.5588000000000 1.0
C      1  0.5315200000000  0.4908670000000  0.5513390000000 1.0
C      1  0.4908670000000  0.5513390000000  0.5315200000000 1.0
C      1  0.5513390000000  0.5315200000000  0.4908670000000 1.0
C      1  0.4684800000000  0.5091330000000  0.5513390000000 1.0
C      1  0.5315200000000  0.5091330000000  0.4486610000000 1.0
C      1  0.4684800000000  0.4908670000000  0.4486610000000 1.0
C      1  0.5091330000000  0.4486610000000  0.5315200000000 1.0
C      1  0.4908670000000  0.4486610000000  0.4684800000000 1.0
C      1  0.5091330000000  0.5513390000000  0.4684800000000 1.0
C      1  0.4486610000000  0.4684800000000  0.4908670000000 1.0
C      1  0.5513390000000  0.4684800000000  0.5091330000000 1.0
C      1  0.4486610000000  0.5315200000000  0.5091330000000 1.0
END
