TITL C-862133-5440-1169 1230889.89690835 125000 -769.042530267705 0 0 141 (C1) n - 1
REM
REM in /home/nfs/bkarasulu/CARBON/AIRSS/Generating-Clusters/TERSOFF/Higher-Symm/FIRE-HFTN
REM
REM
REM
REM
REM
REM ./C.cell (b20cbc046b6831c77cfcea5457e17084)
REM AIRSS Version 0.9.1 bugfix July 2018 build 013d7b7c2542+ Fri, 06 Jul 2018 19:26:36 +0100
REM compiler GCC version 9.2.1 20190827 (Red Hat 9.2.1-1)
REM options -cpp -mtune=generic -march=x86-64 -g -O0 -fpre-include=/usr/include/finclude/math-vector-fortran.h
REM seed 946799079 1574416175 1904120739 1731866352 -1277704821 -915604802 -549428068 2047441145 -1791375061 -1834181684 -959536374 -191374535 -270340478 1718990765 2042916723 1000383700 -783372864 -451312921 -305817850 -9212295 1959610753 1962433718 779696039 -1204475966 675783309 889060532 -40215693 -456085240 -1945481382 1120324072 1042112326 1708108293 -56848645
REM
CELL 1.54180   50.00000   50.00000   50.00000   90.00000   90.00000   90.00000
LATT -1
SFAC C  
C      1  0.5665680000000  0.4466460000000  0.4720900000000 1.0
C      1  0.5097560000000  0.5868250000000  0.4719420000000 1.0
C      1  0.4196450000000  0.4673820000000  0.4727700000000 1.0
C      1  0.5701050000000  0.4478480000000  0.5276150000000 1.0
C      1  0.5131540000000  0.5855770000000  0.5275320000000 1.0
C      1  0.4187830000000  0.4660110000000  0.5282700000000 1.0
C      1  0.4235100000000  0.4410600000000  0.5420560000000 1.0
C      1  0.5879710000000  0.4658400000000  0.5416650000000 1.0
C      1  0.4896030000000  0.5944520000000  0.5414900000000 1.0
C      1  0.4256110000000  0.4428560000000  0.4585230000000 1.0
C      1  0.5861110000000  0.4625960000000  0.4583080000000 1.0
C      1  0.4851600000000  0.5929550000000  0.4578580000000 1.0
C      1  0.5435920000000  0.5490590000000  0.5606890000000 1.0
C      1  0.4381570000000  0.5096200000000  0.5603200000000 1.0
C      1  0.5231930000000  0.4388600000000  0.5602300000000 1.0
C      1  0.5407370000000  0.5492960000000  0.4398580000000 1.0
C      1  0.4356760000000  0.5126290000000  0.4386870000000 1.0
C      1  0.5199130000000  0.4394360000000  0.4388880000000 1.0
C      1  0.4419450000000  0.4775890000000  0.4865040000000 1.0
C      1  0.5471380000000  0.4614510000000  0.4865570000000 1.0
C      1  0.5080310000000  0.5618310000000  0.4856730000000 1.0
C      1  0.4421260000000  0.4755490000000  0.5144180000000 1.0
C      1  0.5489360000000  0.4620010000000  0.5145710000000 1.0
C      1  0.5098990000000  0.5611000000000  0.5136140000000 1.0
C      1  0.5858630000000  0.4640310000000  0.4274830000000 1.0
C      1  0.4851690000000  0.5920700000000  0.4265520000000 1.0
C      1  0.4253600000000  0.4433050000000  0.4272980000000 1.0
C      1  0.5878160000000  0.4656310000000  0.5729350000000 1.0
C      1  0.4885600000000  0.5927450000000  0.5722000000000 1.0
C      1  0.4266770000000  0.4409680000000  0.5727720000000 1.0
C      1  0.5930580000000  0.5378650000000  0.4884800000000 1.0
C      1  0.4252380000000  0.5484080000000  0.4796190000000 1.0
C      1  0.4946100000000  0.4120150000000  0.4785500000000 1.0
C      1  0.5794980000000  0.5401500000000  0.5201890000000 1.0
C      1  0.4207690000000  0.5609960000000  0.5115450000000 1.0
C      1  0.4863490000000  0.3998340000000  0.5098640000000 1.0
C      1  0.5896050000000  0.4991500000000  0.4352710000000 1.0
C      1  0.4547520000000  0.5754630000000  0.4347800000000 1.0
C      1  0.4555990000000  0.4257000000000  0.4346570000000 1.0
C      1  0.5881850000000  0.5005890000000  0.5652430000000 1.0
C      1  0.4564190000000  0.5777120000000  0.5650690000000 1.0
C      1  0.4555860000000  0.4207430000000  0.5649100000000 1.0
C      1  0.4876650000000  0.4031250000000  0.4514480000000 1.0
C      1  0.5934500000000  0.5422180000000  0.4561560000000 1.0
C      1  0.4203570000000  0.5590290000000  0.4525440000000 1.0
C      1  0.4906080000000  0.3965410000000  0.5424190000000 1.0
C      1  0.5911260000000  0.5389070000000  0.5471870000000 1.0
C      1  0.4174160000000  0.5583610000000  0.5437740000000 1.0
C      1  0.5710470000000  0.5301780000000  0.4352840000000 1.0
C      1  0.4372820000000  0.5468280000000  0.4273790000000 1.0
C      1  0.4893500000000  0.4244290000000  0.4269600000000 1.0
C      1  0.5721410000000  0.5303110000000  0.5722570000000 1.0
C      1  0.4397930000000  0.5455670000000  0.5638820000000 1.0
C      1  0.4916780000000  0.4216360000000  0.5639790000000 1.0
C      1  0.5196610000000  0.5326080000000  0.5526480000000 1.0
C      1  0.4636660000000  0.4950140000000  0.5527190000000 1.0
C      1  0.5219500000000  0.4682510000000  0.5548060000000 1.0
C      1  0.5162730000000  0.5336030000000  0.4467920000000 1.0
C      1  0.4619620000000  0.5003190000000  0.4466830000000 1.0
C      1  0.5177250000000  0.4683180000000  0.4480180000000 1.0
C      1  0.5628770000000  0.5310800000000  0.4827100000000 1.0
C      1  0.4468590000000  0.5256450000000  0.4770190000000 1.0
C      1  0.5035030000000  0.4421940000000  0.4776670000000 1.0
C      1  0.5489750000000  0.5328330000000  0.5222740000000 1.0
C      1  0.4429900000000  0.5391720000000  0.5165410000000 1.0
C      1  0.4949180000000  0.4294820000000  0.5167260000000 1.0
C      1  0.5391540000000  0.5782950000000  0.5639790000000 1.0
C      1  0.4147100000000  0.4921320000000  0.5657820000000 1.0
C      1  0.5508210000000  0.4285370000000  0.5649150000000 1.0
C      1  0.5357450000000  0.5783390000000  0.4344590000000 1.0
C      1  0.4125930000000  0.4940150000000  0.4359840000000 1.0
C      1  0.5473460000000  0.4283430000000  0.4354760000000 1.0
C      1  0.4413380000000  0.5867420000000  0.4855330000000 1.0
C      1  0.4534510000000  0.4063150000000  0.4845870000000 1.0
C      1  0.6085480000000  0.4985970000000  0.4863800000000 1.0
C      1  0.4469210000000  0.5949050000000  0.5135680000000 1.0
C      1  0.4448030000000  0.4051250000000  0.5130000000000 1.0
C      1  0.6046360000000  0.5070030000000  0.5144940000000 1.0
C      1  0.4001130000000  0.4875900000000  0.4634320000000 1.0
C      1  0.5591280000000  0.4197680000000  0.4626740000000 1.0
C      1  0.5365320000000  0.5939980000000  0.4607930000000 1.0
C      1  0.4001090000000  0.4864090000000  0.5394080000000 1.0
C      1  0.5635140000000  0.4206990000000  0.5382350000000 1.0
C      1  0.5403380000000  0.5925380000000  0.5366020000000 1.0
C      1  0.5238550000000  0.5080910000000  0.5678480000000 1.0
C      1  0.4829460000000  0.5141630000000  0.5610300000000 1.0
C      1  0.4974780000000  0.4754410000000  0.5680130000000 1.0
C      1  0.5218920000000  0.5080700000000  0.4353790000000 1.0
C      1  0.4809630000000  0.5165790000000  0.4318140000000 1.0
C      1  0.4940540000000  0.4767940000000  0.4333740000000 1.0
C      1  0.4640970000000  0.5803730000000  0.5330480000000 1.0
C      1  0.4486460000000  0.4263770000000  0.5332760000000 1.0
C      1  0.5849080000000  0.4958160000000  0.5334970000000 1.0
C      1  0.4607860000000  0.5752790000000  0.4664290000000 1.0
C      1  0.4532570000000  0.4301000000000  0.4665880000000 1.0
C      1  0.5871880000000  0.4915430000000  0.4669870000000 1.0
C      1  0.5338420000000  0.4828050000000  0.4714170000000 1.0
C      1  0.4984600000000  0.5392720000000  0.4704130000000 1.0
C      1  0.4663730000000  0.4814060000000  0.4707750000000 1.0
C      1  0.5345140000000  0.4814810000000  0.5305570000000 1.0
C      1  0.4988410000000  0.5387720000000  0.5292280000000 1.0
C      1  0.4667270000000  0.4756220000000  0.5293400000000 1.0
C      1  0.5420940000000  0.6229420000000  0.4610640000000 1.0
C      1  0.3723940000000  0.4777080000000  0.4660750000000 1.0
C      1  0.5824410000000  0.4018870000000  0.4653650000000 1.0
C      1  0.5449860000000  0.6215540000000  0.5337940000000 1.0
C      1  0.3718670000000  0.4780510000000  0.5390010000000 1.0
C      1  0.5861260000000  0.4017720000000  0.5377680000000 1.0
C      1  0.5581810000000  0.5763100000000  0.5188910000000 1.0
C      1  0.4054990000000  0.5107220000000  0.5232170000000 1.0
C      1  0.5397410000000  0.4121510000000  0.5222900000000 1.0
C      1  0.5558260000000  0.5780740000000  0.4769930000000 1.0
C      1  0.4051960000000  0.5115430000000  0.4812260000000 1.0
C      1  0.5365630000000  0.4119240000000  0.4804150000000 1.0
C      1  0.5498570000000  0.5079380000000  0.5807190000000 1.0
C      1  0.4716730000000  0.5388910000000  0.5695600000000 1.0
C      1  0.4819760000000  0.4519370000000  0.5744760000000 1.0
C      1  0.5491810000000  0.5063730000000  0.4267180000000 1.0
C      1  0.4678540000000  0.5389270000000  0.4187870000000 1.0
C      1  0.4813830000000  0.4550190000000  0.4192440000000 1.0
C      1  0.4731130000000  0.4454420000000  0.5303710000000 1.0
C      1  0.5549510000000  0.5038550000000  0.5306660000000 1.0
C      1  0.4685630000000  0.5497890000000  0.5291260000000 1.0
C      1  0.4753320000000  0.4520580000000  0.4700290000000 1.0
C      1  0.5584630000000  0.5034180000000  0.4706440000000 1.0
C      1  0.4689710000000  0.5454110000000  0.4693920000000 1.0
C      1  0.5365170000000  0.6375550000000  0.5107060000000 1.0
C      1  0.3549100000000  0.4776520000000  0.5150780000000 1.0
C      1  0.5967110000000  0.3889380000000  0.5136160000000 1.0
C      1  0.5502430000000  0.6381790000000  0.4847690000000 1.0
C      1  0.3617280000000  0.4642640000000  0.4898650000000 1.0
C      1  0.6010980000000  0.4024020000000  0.4879590000000 1.0
C      1  0.5125010000000  0.5844120000000  0.4165720000000 1.0
C      1  0.4171190000000  0.4706530000000  0.4178310000000 1.0
C      1  0.5654450000000  0.4441000000000  0.4175570000000 1.0
C      1  0.5163230000000  0.5857520000000  0.5819930000000 1.0
C      1  0.4203030000000  0.4684580000000  0.5832710000000 1.0
C      1  0.5679870000000  0.4452750000000  0.5828560000000 1.0
C      1  0.5478140000000  0.5547280000000  0.4968100000000 1.0
C      1  0.5231270000000  0.4311230000000  0.5028390000000 1.0
C      1  0.4296150000000  0.5139870000000  0.5032580000000 1.0
END
