TITL C-862127-1500-455 0.17503641381014 125000 -273.927129006231 0 0 53 (C1) n - 1
REM
REM in /home/nfs/bkarasulu/CARBON/AIRSS/Generating-Clusters/TERSOFF/Higher-Symm/FIRE-HFTN
REM
REM
REM
REM
REM
REM ./C.cell (b20cbc046b6831c77cfcea5457e17084)
REM AIRSS Version 0.9.1 bugfix July 2018 build 013d7b7c2542+ Fri, 06 Jul 2018 19:26:36 +0100
REM compiler GCC version 9.2.1 20190827 (Red Hat 9.2.1-1)
REM options -cpp -mtune=generic -march=x86-64 -g -O0 -fpre-include=/usr/include/finclude/math-vector-fortran.h
REM seed -2021351850 383528774 539054795 -387812388 1641152162 -2093968392 -1617244100 478250424 -1805867312 1533679191 -20876532 1160955670 -1715379619 -1481693579 1320184223 1691668695 1807075910 -268955562 1797305627 -1432997750 -1139102065 -1991199147 867950467 1330235819 513256294 -271742581 -640140375 -1058115702 1146980555 955640778 -1513358281 -1127493254 31256369
REM
CELL 1.54180   50.00000   50.00000   50.00000   90.00000   90.00000   90.00000
LATT -1
SFAC C  
C      1  0.4267800000000  0.5073760000000  0.5187680000000 1.0
C      1  0.5715530000000  0.5047900000000  0.5204320000000 1.0
C      1  0.4609070000000  0.5051210000000  0.5586020000000 1.0
C      1  0.5339110000000  0.5212100000000  0.5490090000000 1.0
C      1  0.4750400000000  0.4913800000000  0.5132150000000 1.0
C      1  0.5240920000000  0.4908980000000  0.5165980000000 1.0
C      1  0.5172880000000  0.4767440000000  0.4508160000000 1.0
C      1  0.4849580000000  0.4781170000000  0.4494560000000 1.0
C      1  0.5593280000000  0.5274100000000  0.4613610000000 1.0
C      1  0.4441370000000  0.5309120000000  0.4615430000000 1.0
C      1  0.5302680000000  0.5322600000000  0.4622350000000 1.0
C      1  0.4735650000000  0.5342220000000  0.4632610000000 1.0
C      1  0.5593290000000  0.4155290000000  0.5014530000000 1.0
C      1  0.4404110000000  0.4142550000000  0.4913330000000 1.0
C      1  0.5184220000000  0.4430310000000  0.4886370000000 1.0
C      1  0.4820550000000  0.4432060000000  0.4871590000000 1.0
C      1  0.4521610000000  0.4966390000000  0.5310890000000 1.0
C      1  0.5466590000000  0.4986590000000  0.5353520000000 1.0
C      1  0.5685920000000  0.5358200000000  0.5227190000000 1.0
C      1  0.4366130000000  0.5356370000000  0.5313330000000 1.0
C      1  0.4682980000000  0.5346390000000  0.5422100000000 1.0
C      1  0.5392320000000  0.5459860000000  0.5327770000000 1.0
C      1  0.5641360000000  0.4987280000000  0.4672950000000 1.0
C      1  0.4383310000000  0.5019850000000  0.4653280000000 1.0
C      1  0.4689680000000  0.4178630000000  0.4954420000000 1.0
C      1  0.5304160000000  0.4183040000000  0.5000900000000 1.0
C      1  0.4846810000000  0.3968190000000  0.5075860000000 1.0
C      1  0.5133160000000  0.3970680000000  0.5098480000000 1.0
C      1  0.4732200000000  0.5392820000000  0.5110910000000 1.0
C      1  0.5258430000000  0.5458400000000  0.5055740000000 1.0
C      1  0.4198250000000  0.5591780000000  0.5329730000000 1.0
C      1  0.5901640000000  0.5541240000000  0.5164210000000 1.0
C      1  0.4869430000000  0.5191760000000  0.4409580000000 1.0
C      1  0.5154060000000  0.5174800000000  0.4408130000000 1.0
C      1  0.5175930000000  0.5594700000000  0.4601980000000 1.0
C      1  0.4883580000000  0.5605800000000  0.4624360000000 1.0
C      1  0.5667980000000  0.4861840000000  0.4961110000000 1.0
C      1  0.4338340000000  0.4886400000000  0.4935900000000 1.0
C      1  0.4842920000000  0.5163480000000  0.4918170000000 1.0
C      1  0.5171360000000  0.5168170000000  0.4920370000000 1.0
C      1  0.4810700000000  0.5660700000000  0.5034210000000 1.0
C      1  0.5091240000000  0.5691700000000  0.5001260000000 1.0
C      1  0.5326370000000  0.4909770000000  0.4721990000000 1.0
C      1  0.4688550000000  0.4916450000000  0.4706520000000 1.0
C      1  0.4870460000000  0.4470960000000  0.4556700000000 1.0
C      1  0.5186660000000  0.4450190000000  0.4555900000000 1.0
C      1  0.4814660000000  0.4819270000000  0.5614040000000 1.0
C      1  0.5062530000000  0.5134750000000  0.5491810000000 1.0
C      1  0.5347990000000  0.4695400000000  0.4968550000000 1.0
C      1  0.4645440000000  0.4693520000000  0.4944570000000 1.0
C      1  0.5160770000000  0.5634970000000  0.5474000000000 1.0
C      1  0.4888170000000  0.5529410000000  0.5574610000000 1.0
C      1  0.4973530000000  0.4868610000000  0.5333610000000 1.0
END
