TITL C-862503-991-474 -0.0242807655956744 125000 -1081.18201804649 0 0 184 (C4h) n - 1
REM
REM in /home/nfs/bkarasulu/CARBON/AIRSS/Generating-Clusters/TERSOFF/Higher-Symm/FIRE-HFTN
REM
REM
REM
REM
REM
REM ./C.cell (b20cbc046b6831c77cfcea5457e17084)
REM AIRSS Version 0.9.1 bugfix July 2018 build 013d7b7c2542+ Fri, 06 Jul 2018 19:26:36 +0100
REM compiler GCC version 9.2.1 20190827 (Red Hat 9.2.1-1)
REM options -cpp -mtune=generic -march=x86-64 -g -O0 -fpre-include=/usr/include/finclude/math-vector-fortran.h
REM seed -20715474 -33437267 1517704393 -1130589119 1215168084 -1201870517 1778953070 1473205905 -2074768788 1096396636 -1540354561 1566373668 548152588 -1099064386 1191768799 -1358886966 -2070921701 1260322606 1597953424 -256626705 -1426133212 1305509325 644373339 1279662193 2029609935 -1691279911 -344291258 1902184556 -1755533431 834759822 1447892103 -2016942762 -1771433840
REM
CELL 1.54180   50.00000   50.00000   50.00000   90.00000   90.00000   90.00000
LATT -1
SFAC C  
C      1  0.5466680000000  0.4518300000000  0.5162090000000 1.0
C      1  0.5481700000000  0.5466680000000  0.5162090000000 1.0
C      1  0.4533320000000  0.5481700000000  0.5162090000000 1.0
C      1  0.4518300000000  0.4533320000000  0.5162090000000 1.0
C      1  0.5466680000000  0.4518300000000  0.4837910000000 1.0
C      1  0.5481700000000  0.5466680000000  0.4837910000000 1.0
C      1  0.4533320000000  0.5481700000000  0.4837910000000 1.0
C      1  0.4518300000000  0.4533320000000  0.4837910000000 1.0
C      1  0.5717760000000  0.4366930000000  0.5209850000000 1.0
C      1  0.5633070000000  0.5717760000000  0.5209850000000 1.0
C      1  0.4282240000000  0.5633070000000  0.5209850000000 1.0
C      1  0.4366930000000  0.4282240000000  0.5209850000000 1.0
C      1  0.5717760000000  0.4366930000000  0.4790150000000 1.0
C      1  0.5633070000000  0.5717760000000  0.4790150000000 1.0
C      1  0.4282240000000  0.5633070000000  0.4790150000000 1.0
C      1  0.4366930000000  0.4282240000000  0.4790150000000 1.0
C      1  0.5670070000000  0.5261670000000  0.4370090000000 1.0
C      1  0.4738330000000  0.5670070000000  0.4370090000000 1.0
C      1  0.4329930000000  0.4738330000000  0.4370090000000 1.0
C      1  0.5261670000000  0.4329930000000  0.4370090000000 1.0
C      1  0.5670070000000  0.5261670000000  0.5629910000000 1.0
C      1  0.4738330000000  0.5670070000000  0.5629910000000 1.0
C      1  0.4329930000000  0.4738330000000  0.5629910000000 1.0
C      1  0.5261670000000  0.4329930000000  0.5629910000000 1.0
C      1  0.4997800000000  0.5836900000000  0.5623910000000 1.0
C      1  0.4163100000000  0.4997800000000  0.5623910000000 1.0
C      1  0.5002200000000  0.4163100000000  0.5623910000000 1.0
C      1  0.5836900000000  0.5002200000000  0.5623910000000 1.0
C      1  0.4997800000000  0.5836900000000  0.4376090000000 1.0
C      1  0.4163100000000  0.4997800000000  0.4376090000000 1.0
C      1  0.5002200000000  0.4163100000000  0.4376090000000 1.0
C      1  0.5836900000000  0.5002200000000  0.4376090000000 1.0
C      1  0.5487070000000  0.5984100000000  0.5152240000000 1.0
C      1  0.4015900000000  0.5487070000000  0.5152240000000 1.0
C      1  0.4512930000000  0.4015900000000  0.5152240000000 1.0
C      1  0.5984100000000  0.4512930000000  0.5152240000000 1.0
C      1  0.5487070000000  0.5984100000000  0.4847760000000 1.0
C      1  0.4015900000000  0.5487070000000  0.4847760000000 1.0
C      1  0.4512930000000  0.4015900000000  0.4847760000000 1.0
C      1  0.5984100000000  0.4512930000000  0.4847760000000 1.0
C      1  0.4535520000000  0.6054370000000  0.4844750000000 1.0
C      1  0.3945630000000  0.4535520000000  0.4844750000000 1.0
C      1  0.5464480000000  0.3945630000000  0.4844750000000 1.0
C      1  0.6054370000000  0.5464480000000  0.4844750000000 1.0
C      1  0.4535520000000  0.6054370000000  0.5155250000000 1.0
C      1  0.3945630000000  0.4535520000000  0.5155250000000 1.0
C      1  0.5464480000000  0.3945630000000  0.5155250000000 1.0
C      1  0.6054370000000  0.5464480000000  0.5155250000000 1.0
C      1  0.4802070000000  0.4691080000000  0.4179400000000 1.0
C      1  0.5308920000000  0.4802070000000  0.4179400000000 1.0
C      1  0.5197930000000  0.5308920000000  0.4179400000000 1.0
C      1  0.4691080000000  0.5197930000000  0.4179400000000 1.0
C      1  0.4802070000000  0.4691080000000  0.5820600000000 1.0
C      1  0.5308920000000  0.4802070000000  0.5820600000000 1.0
C      1  0.5197930000000  0.5308920000000  0.5820600000000 1.0
C      1  0.4691080000000  0.5197930000000  0.5820600000000 1.0
C      1  0.3832310000000  0.4773010000000  0.5296380000000 1.0
C      1  0.5226990000000  0.3832310000000  0.5296380000000 1.0
C      1  0.6167690000000  0.5226990000000  0.5296380000000 1.0
C      1  0.4773010000000  0.6167690000000  0.5296380000000 1.0
C      1  0.3832310000000  0.4773010000000  0.4703620000000 1.0
C      1  0.5226990000000  0.3832310000000  0.4703620000000 1.0
C      1  0.6167690000000  0.5226990000000  0.4703620000000 1.0
C      1  0.4773010000000  0.6167690000000  0.4703620000000 1.0
C      1  0.4984700000000  0.4580250000000  0.4670290000000 1.0
C      1  0.5419750000000  0.4984700000000  0.4670290000000 1.0
C      1  0.5015300000000  0.5419750000000  0.4670290000000 1.0
C      1  0.4580250000000  0.5015300000000  0.4670290000000 1.0
C      1  0.4984700000000  0.4580250000000  0.5329710000000 1.0
C      1  0.5419750000000  0.4984700000000  0.5329710000000 1.0
C      1  0.5015300000000  0.5419750000000  0.5329710000000 1.0
C      1  0.4580250000000  0.5015300000000  0.5329710000000 1.0
C      1  0.5268630000000  0.5688660000000  0.4344240000000 1.0
C      1  0.4311340000000  0.5268630000000  0.4344240000000 1.0
C      1  0.4731370000000  0.4311340000000  0.4344240000000 1.0
C      1  0.5688660000000  0.4731370000000  0.4344240000000 1.0
C      1  0.5268630000000  0.5688660000000  0.5655760000000 1.0
C      1  0.4311340000000  0.5268630000000  0.5655760000000 1.0
C      1  0.4731370000000  0.4311340000000  0.5655760000000 1.0
C      1  0.5688660000000  0.4731370000000  0.5655760000000 1.0
C      1  0.5804620000000  0.5697490000000  0.5602950000000 1.0
C      1  0.4302510000000  0.5804620000000  0.5602950000000 1.0
C      1  0.4195380000000  0.4302510000000  0.5602950000000 1.0
C      1  0.5697490000000  0.4195380000000  0.5602950000000 1.0
C      1  0.5804620000000  0.5697490000000  0.4397050000000 1.0
C      1  0.4302510000000  0.5804620000000  0.4397050000000 1.0
C      1  0.4195380000000  0.4302510000000  0.4397050000000 1.0
C      1  0.5697490000000  0.4195380000000  0.4397050000000 1.0
C      1  0.5705200000000  0.4831160000000  0.3936810000000 1.0
C      1  0.5168840000000  0.5705200000000  0.3936810000000 1.0
C      1  0.4294800000000  0.5168840000000  0.3936810000000 1.0
C      1  0.4831160000000  0.4294800000000  0.3936810000000 1.0
C      1  0.5705200000000  0.4831160000000  0.6063190000000 1.0
C      1  0.5168840000000  0.5705200000000  0.6063190000000 1.0
C      1  0.4294800000000  0.5168840000000  0.6063190000000 1.0
C      1  0.4831160000000  0.4294800000000  0.6063190000000 1.0
C      1  0.5080960000000  0.5215550000000  0.5551310000000 1.0
C      1  0.4784450000000  0.5080960000000  0.5551310000000 1.0
C      1  0.4919040000000  0.4784450000000  0.5551310000000 1.0
C      1  0.5215550000000  0.4919040000000  0.5551310000000 1.0
C      1  0.5080960000000  0.5215550000000  0.4448690000000 1.0
C      1  0.4784450000000  0.5080960000000  0.4448690000000 1.0
C      1  0.4919040000000  0.4784450000000  0.4448690000000 1.0
C      1  0.5215550000000  0.4919040000000  0.4448690000000 1.0
C      1  0.4097850000000  0.4314060000000  0.5312800000000 1.0
C      1  0.5685940000000  0.4097850000000  0.5312800000000 1.0
C      1  0.5902150000000  0.5685940000000  0.5312800000000 1.0
C      1  0.4314060000000  0.5902150000000  0.5312800000000 1.0
C      1  0.4097850000000  0.4314060000000  0.4687200000000 1.0
C      1  0.5685940000000  0.4097850000000  0.4687200000000 1.0
C      1  0.5902150000000  0.5685940000000  0.4687200000000 1.0
C      1  0.4314060000000  0.5902150000000  0.4687200000000 1.0
C      1  0.5007690000000  0.6011420000000  0.4611130000000 1.0
C      1  0.3988580000000  0.5007690000000  0.4611130000000 1.0
C      1  0.4992310000000  0.3988580000000  0.4611130000000 1.0
C      1  0.6011420000000  0.4992310000000  0.4611130000000 1.0
C      1  0.5007690000000  0.6011420000000  0.5388870000000 1.0
C      1  0.3988580000000  0.5007690000000  0.5388870000000 1.0
C      1  0.4992310000000  0.3988580000000  0.5388870000000 1.0
C      1  0.6011420000000  0.4992310000000  0.5388870000000 1.0
C      1  0.5216390000000  0.5581040000000  0.4790000000000 1.0
C      1  0.4418960000000  0.5216390000000  0.4790000000000 1.0
C      1  0.4783610000000  0.4418960000000  0.4790000000000 1.0
C      1  0.5581040000000  0.4783610000000  0.4790000000000 1.0
C      1  0.5216390000000  0.5581040000000  0.5210000000000 1.0
C      1  0.4418960000000  0.5216390000000  0.5210000000000 1.0
C      1  0.4783610000000  0.4418960000000  0.5210000000000 1.0
C      1  0.5581040000000  0.4783610000000  0.5210000000000 1.0
C      1  0.5539750000000  0.5818300000000  0.5687150000000 1.0
C      1  0.4181700000000  0.5539750000000  0.5687150000000 1.0
C      1  0.4460250000000  0.4181700000000  0.5687150000000 1.0
C      1  0.5818300000000  0.4460250000000  0.5687150000000 1.0
C      1  0.5539750000000  0.5818300000000  0.4312850000000 1.0
C      1  0.4181700000000  0.5539750000000  0.4312850000000 1.0
C      1  0.4460250000000  0.4181700000000  0.4312850000000 1.0
C      1  0.5818300000000  0.4460250000000  0.4312850000000 1.0
C      1  0.4417750000000  0.5445570000000  0.6021490000000 1.0
C      1  0.4554430000000  0.4417750000000  0.6021490000000 1.0
C      1  0.5582250000000  0.4554430000000  0.6021490000000 1.0
C      1  0.5445570000000  0.5582250000000  0.6021490000000 1.0
C      1  0.4417750000000  0.5445570000000  0.3978510000000 1.0
C      1  0.4554430000000  0.4417750000000  0.3978510000000 1.0
C      1  0.5582250000000  0.4554430000000  0.3978510000000 1.0
C      1  0.5445570000000  0.5582250000000  0.3978510000000 1.0
C      1  0.4497940000000  0.4693700000000  0.4122880000000 1.0
C      1  0.5306300000000  0.4497940000000  0.4122880000000 1.0
C      1  0.5502060000000  0.5306300000000  0.4122880000000 1.0
C      1  0.4693700000000  0.5502060000000  0.4122880000000 1.0
C      1  0.4497940000000  0.4693700000000  0.5877120000000 1.0
C      1  0.5306300000000  0.4497940000000  0.5877120000000 1.0
C      1  0.5502060000000  0.5306300000000  0.5877120000000 1.0
C      1  0.4693700000000  0.5502060000000  0.5877120000000 1.0
C      1  0.5093870000000  0.4437130000000  0.6097950000000 1.0
C      1  0.5562870000000  0.5093870000000  0.6097950000000 1.0
C      1  0.4906130000000  0.5562870000000  0.6097950000000 1.0
C      1  0.4437130000000  0.4906130000000  0.6097950000000 1.0
C      1  0.5093870000000  0.4437130000000  0.3902050000000 1.0
C      1  0.5562870000000  0.5093870000000  0.3902050000000 1.0
C      1  0.4906130000000  0.5562870000000  0.3902050000000 1.0
C      1  0.4437130000000  0.4906130000000  0.3902050000000 1.0
C      1  0.4798520000000  0.4120040000000  0.5209920000000 1.0
C      1  0.5879960000000  0.4798520000000  0.5209920000000 1.0
C      1  0.5201480000000  0.5879960000000  0.5209920000000 1.0
C      1  0.4120040000000  0.5201480000000  0.5209920000000 1.0
C      1  0.4798520000000  0.4120040000000  0.4790080000000 1.0
C      1  0.5879960000000  0.4798520000000  0.4790080000000 1.0
C      1  0.5201480000000  0.5879960000000  0.4790080000000 1.0
C      1  0.4120040000000  0.5201480000000  0.4790080000000 1.0
C      1  0.5100070000000  0.5191480000000  0.6074850000000 1.0
C      1  0.4808520000000  0.5100070000000  0.6074850000000 1.0
C      1  0.4899930000000  0.4808520000000  0.6074850000000 1.0
C      1  0.5191480000000  0.4899930000000  0.6074850000000 1.0
C      1  0.5100070000000  0.5191480000000  0.3925150000000 1.0
C      1  0.4808520000000  0.5100070000000  0.3925150000000 1.0
C      1  0.4899930000000  0.4808520000000  0.3925150000000 1.0
C      1  0.5191480000000  0.4899930000000  0.3925150000000 1.0
C      1  0.4756390000000  0.5537380000000  0.4645630000000 1.0
C      1  0.4462620000000  0.4756390000000  0.4645630000000 1.0
C      1  0.5243610000000  0.4462620000000  0.4645630000000 1.0
C      1  0.5537380000000  0.5243610000000  0.4645630000000 1.0
C      1  0.4756390000000  0.5537380000000  0.5354370000000 1.0
C      1  0.4462620000000  0.4756390000000  0.5354370000000 1.0
C      1  0.5243610000000  0.4462620000000  0.5354370000000 1.0
C      1  0.5537380000000  0.5243610000000  0.5354370000000 1.0
END
