TITL C-862130-1496-781 87.9781298056093 125000 -898.496952128533 0 0 156 (C1) n - 1
REM
REM in /home/nfs/bkarasulu/CARBON/AIRSS/Generating-Clusters/TERSOFF/Higher-Symm/FIRE-HFTN
REM
REM
REM
REM
REM
REM ./C.cell (b20cbc046b6831c77cfcea5457e17084)
REM AIRSS Version 0.9.1 bugfix July 2018 build 013d7b7c2542+ Fri, 06 Jul 2018 19:26:36 +0100
REM compiler GCC version 9.2.1 20190827 (Red Hat 9.2.1-1)
REM options -cpp -mtune=generic -march=x86-64 -g -O0 -fpre-include=/usr/include/finclude/math-vector-fortran.h
REM seed -1335938696 1184766416 1746688761 -987411873 86005073 215815961 -38794957 1312210475 73131421 -1462977578 -1189864790 321799860 -1449815052 -1291185372 -1516089800 217072584 -1102912225 -731582309 654014559 868793981 -1628956807 566836757 -211426467 -931464180 1760873894 1593352160 1086928794 -2053422004 501384320 -1650309005 1628948055 -458376742 -721346336
REM
CELL 1.54180   50.00000   50.00000   50.00000   90.00000   90.00000   90.00000
LATT -1
SFAC C  
C      1  0.4461780000000  0.5701840000000  0.5585170000000 1.0
C      1  0.5521120000000  0.5269960000000  0.5539100000000 1.0
C      1  0.5223470000000  0.5471080000000  0.5045870000000 1.0
C      1  0.5450270000000  0.4562490000000  0.5320810000000 1.0
C      1  0.5248120000000  0.4410800000000  0.5537020000000 1.0
C      1  0.4499620000000  0.5684500000000  0.4313100000000 1.0
C      1  0.5453330000000  0.5611150000000  0.5525690000000 1.0
C      1  0.4269200000000  0.5060370000000  0.5871750000000 1.0
C      1  0.4145110000000  0.5607820000000  0.5014470000000 1.0
C      1  0.4465820000000  0.5070000000000  0.5420280000000 1.0
C      1  0.4698240000000  0.4901500000000  0.4442000000000 1.0
C      1  0.4441300000000  0.5391370000000  0.4249130000000 1.0
C      1  0.5747730000000  0.5248680000000  0.5342470000000 1.0
C      1  0.6110040000000  0.4471180000000  0.5154500000000 1.0
C      1  0.5724930000000  0.4945360000000  0.4912690000000 1.0
C      1  0.5441160000000  0.5876240000000  0.4474690000000 1.0
C      1  0.4219740000000  0.4653480000000  0.5536850000000 1.0
C      1  0.6100160000000  0.4605630000000  0.4874470000000 1.0
C      1  0.4425830000000  0.4914690000000  0.6324700000000 1.0
C      1  0.4652540000000  0.4262230000000  0.4795490000000 1.0
C      1  0.5151660000000  0.5797740000000  0.4581050000000 1.0
C      1  0.4328910000000  0.5217140000000  0.5620990000000 1.0
C      1  0.5759800000000  0.4308660000000  0.4973850000000 1.0
C      1  0.5514860000000  0.4858240000000  0.4465380000000 1.0
C      1  0.4384470000000  0.4286520000000  0.4960760000000 1.0
C      1  0.4774850000000  0.5667440000000  0.4884710000000 1.0
C      1  0.4342960000000  0.5109430000000  0.4899460000000 1.0
C      1  0.5815270000000  0.4354360000000  0.4480600000000 1.0
C      1  0.6021140000000  0.4885510000000  0.5545710000000 1.0
C      1  0.4824900000000  0.4546250000000  0.4777020000000 1.0
C      1  0.3961700000000  0.4741860000000  0.4464650000000 1.0
C      1  0.5239450000000  0.4950480000000  0.4393450000000 1.0
C      1  0.6024940000000  0.5347720000000  0.4654870000000 1.0
C      1  0.6003940000000  0.4951800000000  0.4334360000000 1.0
C      1  0.5144810000000  0.4828690000000  0.4003280000000 1.0
C      1  0.4000070000000  0.5353170000000  0.4903080000000 1.0
C      1  0.5334360000000  0.5076160000000  0.5366670000000 1.0
C      1  0.3871120000000  0.4998160000000  0.4569640000000 1.0
C      1  0.4364840000000  0.4591800000000  0.4207750000000 1.0
C      1  0.4724040000000  0.5118430000000  0.5998330000000 1.0
C      1  0.4841780000000  0.5776170000000  0.5284650000000 1.0
C      1  0.5789270000000  0.5380290000000  0.4203620000000 1.0
C      1  0.4484940000000  0.4325870000000  0.5823700000000 1.0
C      1  0.4810780000000  0.5676590000000  0.5598010000000 1.0
C      1  0.4670200000000  0.4021350000000  0.5273160000000 1.0
C      1  0.4009240000000  0.4494630000000  0.4635550000000 1.0
C      1  0.6016060000000  0.4889490000000  0.4852580000000 1.0
C      1  0.4902140000000  0.5347040000000  0.5998570000000 1.0
C      1  0.5621480000000  0.4111410000000  0.5317740000000 1.0
C      1  0.4253430000000  0.5495050000000  0.5556660000000 1.0
C      1  0.3832050000000  0.5199920000000  0.5087920000000 1.0
C      1  0.5111100000000  0.4101490000000  0.4617190000000 1.0
C      1  0.3945230000000  0.4575670000000  0.5463970000000 1.0
C      1  0.4402390000000  0.4687530000000  0.5083950000000 1.0
C      1  0.5050830000000  0.4663480000000  0.4948670000000 1.0
C      1  0.4718040000000  0.4139910000000  0.5792060000000 1.0
C      1  0.5505990000000  0.4853260000000  0.4756540000000 1.0
C      1  0.4754550000000  0.6101510000000  0.4982880000000 1.0
C      1  0.4670140000000  0.5914970000000  0.4739010000000 1.0
C      1  0.5830920000000  0.5091610000000  0.4147510000000 1.0
C      1  0.5694520000000  0.5737420000000  0.4574840000000 1.0
C      1  0.4807330000000  0.5086990000000  0.5073650000000 1.0
C      1  0.6006240000000  0.5390200000000  0.4961150000000 1.0
C      1  0.5903630000000  0.4237280000000  0.5238370000000 1.0
C      1  0.5195050000000  0.5992470000000  0.4949930000000 1.0
C      1  0.5179660000000  0.4796580000000  0.5996350000000 1.0
C      1  0.4348450000000  0.4549970000000  0.5998630000000 1.0
C      1  0.4453870000000  0.5104120000000  0.6101400000000 1.0
C      1  0.5580240000000  0.4186210000000  0.4414300000000 1.0
C      1  0.4541190000000  0.5809150000000  0.5304830000000 1.0
C      1  0.5523910000000  0.4838210000000  0.5390660000000 1.0
C      1  0.4956810000000  0.5665110000000  0.4050060000000 1.0
C      1  0.5428130000000  0.4577320000000  0.4431400000000 1.0
C      1  0.4365920000000  0.5820170000000  0.5079880000000 1.0
C      1  0.5414820000000  0.4048020000000  0.5111960000000 1.0
C      1  0.5505300000000  0.4443060000000  0.5002190000000 1.0
C      1  0.4360700000000  0.4312260000000  0.4346240000000 1.0
C      1  0.5409250000000  0.5444310000000  0.4670270000000 1.0
C      1  0.4044070000000  0.4814480000000  0.4905420000000 1.0
C      1  0.5991390000000  0.5407210000000  0.5380400000000 1.0
C      1  0.4720820000000  0.4495770000000  0.5396790000000 1.0
C      1  0.4164740000000  0.5738520000000  0.4720360000000 1.0
C      1  0.5387710000000  0.5338490000000  0.5966130000000 1.0
C      1  0.5165310000000  0.6090470000000  0.5416350000000 1.0
C      1  0.5055080000000  0.5610740000000  0.4844610000000 1.0
C      1  0.4825200000000  0.5461170000000  0.3891910000000 1.0
C      1  0.5241930000000  0.4901670000000  0.4887120000000 1.0
C      1  0.4765170000000  0.4487740000000  0.4135400000000 1.0
C      1  0.5372200000000  0.5013800000000  0.3917480000000 1.0
C      1  0.5342560000000  0.4460010000000  0.4725980000000 1.0
C      1  0.5124450000000  0.4169400000000  0.5130580000000 1.0
C      1  0.3767640000000  0.4748120000000  0.5314720000000 1.0
C      1  0.4171050000000  0.4530880000000  0.4912630000000 1.0
C      1  0.4406280000000  0.4143920000000  0.5219040000000 1.0
C      1  0.5860050000000  0.5510820000000  0.4460930000000 1.0
C      1  0.4887680000000  0.5918540000000  0.4498700000000 1.0
C      1  0.4998940000000  0.6008770000000  0.5174810000000 1.0
C      1  0.4631080000000  0.4746770000000  0.4183240000000 1.0
C      1  0.5153940000000  0.5265700000000  0.6144510000000 1.0
C      1  0.5466560000000  0.5908840000000  0.4976220000000 1.0
C      1  0.5383550000000  0.4365950000000  0.5797210000000 1.0
C      1  0.4419960000000  0.4630700000000  0.6267740000000 1.0
C      1  0.4965900000000  0.5453530000000  0.5712970000000 1.0
C      1  0.5072930000000  0.4475690000000  0.5161340000000 1.0
C      1  0.4590420000000  0.4198030000000  0.4499420000000 1.0
C      1  0.4840720000000  0.4068860000000  0.5015670000000 1.0
C      1  0.5264700000000  0.5515020000000  0.5763110000000 1.0
C      1  0.4609250000000  0.4996050000000  0.4888780000000 1.0
C      1  0.5699600000000  0.5705890000000  0.5336300000000 1.0
C      1  0.4739080000000  0.5194140000000  0.4469080000000 1.0
C      1  0.4103970000000  0.4272590000000  0.4475950000000 1.0
C      1  0.5230690000000  0.5577810000000  0.4145980000000 1.0
C      1  0.5731290000000  0.4910140000000  0.5590420000000 1.0
C      1  0.4775110000000  0.5801240000000  0.4247300000000 1.0
C      1  0.5577180000000  0.5654040000000  0.4843970000000 1.0
C      1  0.4320730000000  0.5227150000000  0.4482520000000 1.0
C      1  0.6065970000000  0.5055020000000  0.4598680000000 1.0
C      1  0.4803700000000  0.4946010000000  0.4021660000000 1.0
C      1  0.5224530000000  0.4575070000000  0.4196130000000 1.0
C      1  0.5204820000000  0.5529230000000  0.4461130000000 1.0
C      1  0.4954070000000  0.4723150000000  0.5817230000000 1.0
C      1  0.5923380000000  0.4386910000000  0.4750700000000 1.0
C      1  0.5299890000000  0.5170230000000  0.5075240000000 1.0
C      1  0.4675720000000  0.5247860000000  0.4022320000000 1.0
C      1  0.5617350000000  0.5967990000000  0.5219640000000 1.0
C      1  0.5135030000000  0.4983900000000  0.6212190000000 1.0
C      1  0.4950510000000  0.5198300000000  0.5544290000000 1.0
C      1  0.4048320000000  0.5229260000000  0.4625320000000 1.0
C      1  0.4117700000000  0.4739230000000  0.4221740000000 1.0
C      1  0.4457250000000  0.4448420000000  0.5554980000000 1.0
C      1  0.3854640000000  0.4913760000000  0.5093940000000 1.0
C      1  0.4997060000000  0.4425230000000  0.4271780000000 1.0
C      1  0.4979970000000  0.4347580000000  0.4546710000000 1.0
C      1  0.4835330000000  0.4071340000000  0.5526560000000 1.0
C      1  0.5322230000000  0.5303910000000  0.4006660000000 1.0
C      1  0.4668620000000  0.4566210000000  0.5092810000000 1.0
C      1  0.5108150000000  0.4159030000000  0.5434950000000 1.0
C      1  0.4226090000000  0.4762020000000  0.5819890000000 1.0
C      1  0.4058920000000  0.5546380000000  0.5329090000000 1.0
C      1  0.4742440000000  0.5134020000000  0.5346400000000 1.0
C      1  0.5157820000000  0.5175210000000  0.4240210000000 1.0
C      1  0.4671040000000  0.4789450000000  0.4695580000000 1.0
C      1  0.6080450000000  0.5103300000000  0.5070930000000 1.0
C      1  0.5585630000000  0.5108080000000  0.5829920000000 1.0
C      1  0.4981070000000  0.4570490000000  0.5565630000000 1.0
C      1  0.5767530000000  0.5555910000000  0.5056850000000 1.0
C      1  0.5447060000000  0.4827330000000  0.5888280000000 1.0
C      1  0.5306010000000  0.5899640000000  0.5599560000000 1.0
C      1  0.4331720000000  0.4827630000000  0.5328790000000 1.0
C      1  0.5629890000000  0.5160660000000  0.5080880000000 1.0
C      1  0.4963940000000  0.5340080000000  0.4366390000000 1.0
C      1  0.5506180000000  0.3955290000000  0.4856640000000 1.0
C      1  0.4416380000000  0.5806660000000  0.4583940000000 1.0
C      1  0.5653220000000  0.4943350000000  0.3964010000000 1.0
C      1  0.5401260000000  0.4059560000000  0.4613780000000 1.0
C      1  0.6177060000000  0.5032610000000  0.5341560000000 1.0
END
