TITL C-862507-1800-420 1515.33901128584 125000 -1013.72254179674 0 0 171 (C3) n - 1
REM
REM in /home/nfs/bkarasulu/CARBON/AIRSS/Generating-Clusters/TERSOFF/Higher-Symm/FIRE-HFTN
REM
REM
REM
REM
REM
REM ./C.cell (b20cbc046b6831c77cfcea5457e17084)
REM AIRSS Version 0.9.1 bugfix July 2018 build 013d7b7c2542+ Fri, 06 Jul 2018 19:26:36 +0100
REM compiler GCC version 9.2.1 20190827 (Red Hat 9.2.1-1)
REM options -cpp -mtune=generic -march=x86-64 -g -O0 -fpre-include=/usr/include/finclude/math-vector-fortran.h
REM seed 309110468 -1936010246 2041461223 1535214076 -1736803965 259083169 904980144 -368270417 -1867276584 -1330143854 859159190 -123514974 1708580672 47588060 -27595551 -508092292 172240498 1700515602 226086679 -1066232481 658034169 1302938742 1090238391 -2021434941 1311269174 -840168550 -1514926118 603707575 -1364204689 992245848 -764941611 -519867097 -1861101505
REM
CELL 1.54180   50.00000   50.00000   50.00000   90.00000   90.00000   90.00000
LATT -1
SFAC C  
C      1  0.4132480000000  0.5669910000000  0.4550460000000 1.0
C      1  0.4132480000000  0.4275740000000  0.4644610000000 1.0
C      1  0.4132480000000  0.5054360000000  0.5804920000000 1.0
C      1  0.5128810000000  0.4826440000000  0.4891800000000 1.0
C      1  0.5128810000000  0.4993080000000  0.5204410000000 1.0
C      1  0.5128810000000  0.5180490000000  0.4903790000000 1.0
C      1  0.4960990000000  0.5081840000000  0.4314800000000 1.0
C      1  0.4960980000000  0.4365680000000  0.5271730000000 1.0
C      1  0.4960990000000  0.5552480000000  0.5413480000000 1.0
C      1  0.5758190000000  0.4837330000000  0.4781330000000 1.0
C      1  0.5758190000000  0.4891960000000  0.5250210000000 1.0
C      1  0.5758190000000  0.5270700000000  0.4968460000000 1.0
C      1  0.4311030000000  0.3983950000000  0.4959410000000 1.0
C      1  0.4311030000000  0.5472880000000  0.5900220000000 1.0
C      1  0.4311040000000  0.5543180000000  0.4140360000000 1.0
C      1  0.4746570000000  0.5487880000000  0.3933720000000 1.0
C      1  0.4746560000000  0.3832630000000  0.5110620000000 1.0
C      1  0.4746560000000  0.5679490000000  0.5955660000000 1.0
C      1  0.5290320000000  0.5067360000000  0.5476850000000 1.0
C      1  0.5290320000000  0.5379280000000  0.4703240000000 1.0
C      1  0.5290320000000  0.4553360000000  0.4819910000000 1.0
C      1  0.4482070000000  0.6125570000000  0.5369510000000 1.0
C      1  0.4482070000000  0.4757220000000  0.3840470000000 1.0
C      1  0.4482070000000  0.4117210000000  0.5790020000000 1.0
C      1  0.5447390000000  0.4569060000000  0.5069990000000 1.0
C      1  0.5447400000000  0.5276080000000  0.5338210000000 1.0
C      1  0.5447400000000  0.5154860000000  0.4591800000000 1.0
C      1  0.5689640000000  0.5170200000000  0.5222190000000 1.0
C      1  0.5689640000000  0.5107320000000  0.4741510000000 1.0
C      1  0.5689630000000  0.4722480000000  0.5036300000000 1.0
C      1  0.4643190000000  0.4700980000000  0.4078650000000 1.0
C      1  0.4643180000000  0.4351600000000  0.5719630000000 1.0
C      1  0.4643190000000  0.5947430000000  0.5201710000000 1.0
C      1  0.5650870000000  0.5163100000000  0.4028700000000 1.0
C      1  0.5650860000000  0.4077270000000  0.5344410000000 1.0
C      1  0.5650870000000  0.5759630000000  0.5626900000000 1.0
C      1  0.4619540000000  0.4286420000000  0.4397830000000 1.0
C      1  0.4619530000000  0.4835300000000  0.5919070000000 1.0
C      1  0.4619540000000  0.5878290000000  0.4683110000000 1.0
C      1  0.3922490000000  0.4774700000000  0.4910350000000 1.0
C      1  0.3922490000000  0.5035020000000  0.5239940000000 1.0
C      1  0.3922490000000  0.5190290000000  0.4849700000000 1.0
C      1  0.5561030000000  0.5599790000000  0.4470590000000 1.0
C      1  0.5561020000000  0.4241620000000  0.4745280000000 1.0
C      1  0.5561030000000  0.5158590000000  0.5784140000000 1.0
C      1  0.4814300000000  0.4481780000000  0.4798030000000 1.0
C      1  0.4814300000000  0.5084200000000  0.5549780000000 1.0
C      1  0.4814300000000  0.5434030000000  0.4652190000000 1.0
C      1  0.4872640000000  0.4668710000000  0.4580320000000 1.0
C      1  0.4872640000000  0.4802190000000  0.5496750000000 1.0
C      1  0.4872640000000  0.5529100000000  0.4922930000000 1.0
C      1  0.5394490000000  0.4755240000000  0.4071360000000 1.0
C      1  0.5394480000000  0.4318150000000  0.5676290000000 1.0
C      1  0.5394490000000  0.5926610000000  0.5252350000000 1.0
C      1  0.4752890000000  0.5999010000000  0.4922430000000 1.0
C      1  0.4752890000000  0.4433320000000  0.4173620000000 1.0
C      1  0.4752880000000  0.4567680000000  0.5903950000000 1.0
C      1  0.5803230000000  0.4299430000000  0.5245000000000 1.0
C      1  0.5803230000000  0.5562450000000  0.5484210000000 1.0
C      1  0.5803230000000  0.5138110000000  0.4270800000000 1.0
C      1  0.4744950000000  0.5339130000000  0.5116560000000 1.0
C      1  0.4744950000000  0.4931380000000  0.4648020000000 1.0
C      1  0.4744940000000  0.4729490000000  0.5235410000000 1.0
C      1  0.4933330000000  0.5170580000000  0.4623080000000 1.0
C      1  0.4933330000000  0.4588290000000  0.5040740000000 1.0
C      1  0.4933330000000  0.5241130000000  0.5336180000000 1.0
C      1  0.4777660000000  0.5094280000000  0.5999020000000 1.0
C      1  0.4777660000000  0.5818040000000  0.4418840000000 1.0
C      1  0.4777660000000  0.4087680000000  0.4582130000000 1.0
C      1  0.4379940000000  0.4888450000000  0.5734900000000 1.0
C      1  0.4379950000000  0.5692220000000  0.4729160000000 1.0
C      1  0.4379950000000  0.4419340000000  0.4535940000000 1.0
C      1  0.5042340000000  0.4553980000000  0.5947970000000 1.0
C      1  0.5042350000000  0.6043980000000  0.4912280000000 1.0
C      1  0.5042350000000  0.4402040000000  0.4139750000000 1.0
C      1  0.5155800000000  0.4689220000000  0.4446120000000 1.0
C      1  0.5155800000000  0.4675720000000  0.5546080000000 1.0
C      1  0.5155800000000  0.5635060000000  0.5007800000000 1.0
C      1  0.6032160000000  0.5093590000000  0.5549530000000 1.0
C      1  0.6032170000000  0.5429110000000  0.4644190000000 1.0
C      1  0.6032160000000  0.4477300000000  0.4806290000000 1.0
C      1  0.5198160000000  0.3966800000000  0.5035560000000 1.0
C      1  0.5198160000000  0.5547400000000  0.5877000000000 1.0
C      1  0.5198170000000  0.5485810000000  0.4087440000000 1.0
C      1  0.5415500000000  0.5694080000000  0.4786640000000 1.0
C      1  0.5415500000000  0.4468180000000  0.4505590000000 1.0
C      1  0.5415490000000  0.4837740000000  0.5707780000000 1.0
C      1  0.4975230000000  0.3908080000000  0.5572000000000 1.0
C      1  0.4975240000000  0.6041330000000  0.5659630000000 1.0
C      1  0.4975240000000  0.5050590000000  0.3768370000000 1.0
C      1  0.6237990000000  0.5204190000000  0.4767620000000 1.0
C      1  0.6237990000000  0.4696650000000  0.4939360000000 1.0
C      1  0.6237990000000  0.5099150000000  0.5293030000000 1.0
C      1  0.5084610000000  0.5839170000000  0.4438380000000 1.0
C      1  0.5084600000000  0.4094030000000  0.4554070000000 1.0
C      1  0.5084600000000  0.5066790000000  0.6007560000000 1.0
C      1  0.4604690000000  0.4001990000000  0.4888090000000 1.0
C      1  0.4604690000000  0.5402090000000  0.5920250000000 1.0
C      1  0.4604700000000  0.5595920000000  0.4191650000000 1.0
C      1  0.4478730000000  0.5045940000000  0.3773950000000 1.0
C      1  0.4478720000000  0.3915250000000  0.5573240000000 1.0
C      1  0.4478720000000  0.6038820000000  0.5652800000000 1.0
C      1  0.5394390000000  0.5824960000000  0.5520160000000 1.0
C      1  0.5394390000000  0.5037990000000  0.4025480000000 1.0
C      1  0.5394380000000  0.4137040000000  0.5454360000000 1.0
C      1  0.4308490000000  0.4772000000000  0.5450010000000 1.0
C      1  0.4308490000000  0.5503730000000  0.4972450000000 1.0
C      1  0.4308490000000  0.4724290000000  0.4577530000000 1.0
C      1  0.5166150000000  0.6086870000000  0.5174830000000 1.0
C      1  0.5166150000000  0.4607970000000  0.3971330000000 1.0
C      1  0.5166140000000  0.4305160000000  0.5853850000000 1.0
C      1  0.5808050000000  0.4332300000000  0.4937040000000 1.0
C      1  0.5808050000000  0.5279320000000  0.5609720000000 1.0
C      1  0.5808050000000  0.5388370000000  0.4453240000000 1.0
C      1  0.5566790000000  0.4557790000000  0.5651830000000 1.0
C      1  0.5566790000000  0.5785600000000  0.5057050000000 1.0
C      1  0.5566790000000  0.4656600000000  0.4291130000000 1.0
C      1  0.4472750000000  0.4965610000000  0.4492790000000 1.0
C      1  0.4472750000000  0.4577950000000  0.5283390000000 1.0
C      1  0.4472750000000  0.5456450000000  0.5223810000000 1.0
C      1  0.4337010000000  0.4487230000000  0.5023270000000 1.0
C      1  0.4337010000000  0.5276550000000  0.5432430000000 1.0
C      1  0.4337010000000  0.5236230000000  0.4544290000000 1.0
C      1  0.5173500000000  0.5196770000000  0.4127130000000 1.0
C      1  0.5173490000000  0.4145690000000  0.5266030000000 1.0
C      1  0.5173490000000  0.5657540000000  0.5606840000000 1.0
C      1  0.4678600000000  0.5690070000000  0.5335540000000 1.0
C      1  0.4678600000000  0.4945550000000  0.4234610000000 1.0
C      1  0.4678600000000  0.4364380000000  0.5429850000000 1.0
C      1  0.4551660000000  0.4349370000000  0.4819760000000 1.0
C      1  0.4551660000000  0.5169230000000  0.5653580000000 1.0
C      1  0.4551670000000  0.5481410000000  0.4526650000000 1.0
C      1  0.3864770000000  0.5538610000000  0.5161010000000 1.0
C      1  0.3864760000000  0.4870080000000  0.4453100000000 1.0
C      1  0.3864780000000  0.4591230000000  0.5385920000000 1.0
C      1  0.5286850000000  0.5653110000000  0.4303500000000 1.0
C      1  0.5286840000000  0.4070260000000  0.4782640000000 1.0
C      1  0.5286840000000  0.5276630000000  0.5913860000000 1.0
C      1  0.4725570000000  0.5923110000000  0.5765990000000 1.0
C      1  0.4725570000000  0.5201810000000  0.3817570000000 1.0
C      1  0.4725560000000  0.3875080000000  0.5416440000000 1.0
C      1  0.5265210000000  0.4703510000000  0.5269040000000 1.0
C      1  0.5265220000000  0.5381240000000  0.5122250000000 1.0
C      1  0.5265210000000  0.4915250000000  0.4608710000000 1.0
C      1  0.5010470000000  0.3753220000000  0.5032630000000 1.0
C      1  0.5010480000000  0.5651650000000  0.6063430000000 1.0
C      1  0.5010480000000  0.5595130000000  0.3903940000000 1.0
C      1  0.5982780000000  0.4741370000000  0.4608870000000 1.0
C      1  0.5982780000000  0.4790580000000  0.5419540000000 1.0
C      1  0.5982780000000  0.5468040000000  0.4971590000000 1.0
C      1  0.5808840000000  0.4534200000000  0.5463860000000 1.0
C      1  0.5808840000000  0.5634600000000  0.5171460000000 1.0
C      1  0.5808840000000  0.4831180000000  0.4364690000000 1.0
C      1  0.4999000000000  0.6179450000000  0.5399510000000 1.0
C      1  0.4999000000000  0.4756260000000  0.3778810000000 1.0
C      1  0.4998990000000  0.4064290000000  0.5821680000000 1.0
C      1  0.5202270000000  0.5915070000000  0.4698580000000 1.0
C      1  0.5202270000000  0.4281430000000  0.4358240000000 1.0
C      1  0.5202260000000  0.4803500000000  0.5943180000000 1.0
C      1  0.6239790000000  0.4914840000000  0.4705680000000 1.0
C      1  0.6239790000000  0.4787680000000  0.5220920000000 1.0
C      1  0.6239790000000  0.5297470000000  0.5073420000000 1.0
C      1  0.3762920000000  0.5059850000000  0.4646480000000 1.0
C      1  0.3762920000000  0.4663930000000  0.5124930000000 1.0
C      1  0.3762920000000  0.5276240000000  0.5228580000000 1.0
C      1  0.4152400000000  0.4225580000000  0.4940670000000 1.0
C      1  0.4152400000000  0.5335840000000  0.5700330000000 1.0
C      1  0.4152410000000  0.5438590000000  0.4358980000000 1.0
C      1  0.4198520000000  0.5271890000000  0.4816080000000 1.0
C      1  0.4198510000000  0.4704790000000  0.4856490000000 1.0
C      1  0.4198510000000  0.5023330000000  0.5327410000000 1.0
END
