TITL C-862128-1543-762 0.000462677052755324 125000 -869.098605499347 0 0 158 (C3h) n - 1
REM
REM in /home/nfs/bkarasulu/CARBON/AIRSS/Generating-Clusters/TERSOFF/Higher-Symm/FIRE-HFTN
REM
REM
REM
REM
REM
REM ./C.cell (b20cbc046b6831c77cfcea5457e17084)
REM AIRSS Version 0.9.1 bugfix July 2018 build 013d7b7c2542+ Fri, 06 Jul 2018 19:26:36 +0100
REM compiler GCC version 9.2.1 20190827 (Red Hat 9.2.1-1)
REM options -cpp -mtune=generic -march=x86-64 -g -O0 -fpre-include=/usr/include/finclude/math-vector-fortran.h
REM seed 1593467393 2101345467 -1374639676 1851545307 2039443757 1028415025 1350008102 129196589 1646031199 333872588 1361437861 107744933 -1912329337 19281689 -2072889957 -1793206721 -295822799 1437123793 -954408154 958504610 -291912333 2080155918 1094467542 -1163933537 1497410825 -1327720527 -1112073180 -477878014 1679409825 -1398572956 459836749 -1934639934 -2084816018
REM
CELL 1.54180   50.00000   50.00000   50.00000   90.00000   90.00000   90.00000
LATT -1
SFAC C  
C      1  0.4347760000000  0.4740630000000  0.4228540000000 1.0
C      1  0.4347760000000  0.4457860000000  0.5610210000000 1.0
C      1  0.4347760000000  0.5795810000000  0.5164250000000 1.0
C      1  0.5643380000000  0.4741040000000  0.4227690000000 1.0
C      1  0.5643380000000  0.4456920000000  0.5610280000000 1.0
C      1  0.5643380000000  0.5796340000000  0.5165040000000 1.0
C      1  0.4295970000000  0.4320300000000  0.4549350000000 1.0
C      1  0.4295970000000  0.4945860000000  0.5813820000000 1.0
C      1  0.4295970000000  0.5728140000000  0.4639830000000 1.0
C      1  0.5694230000000  0.4322770000000  0.4550310000000 1.0
C      1  0.5694230000000  0.4945460000000  0.5811210000000 1.0
C      1  0.5694230000000  0.5726080000000  0.4641490000000 1.0
C      1  0.5164270000000  0.4049400000000  0.4907510000000 1.0
C      1  0.5164270000000  0.5391490000000  0.5869340000000 1.0
C      1  0.5164270000000  0.5553410000000  0.4226150000000 1.0
C      1  0.4827520000000  0.4050920000000  0.4907150000000 1.0
C      1  0.4827520000000  0.5390410000000  0.5868210000000 1.0
C      1  0.4827520000000  0.5552970000000  0.4227650000000 1.0
C      1  0.5143470000000  0.4884290000000  0.4747010000000 1.0
C      1  0.5143470000000  0.4835040000000  0.5226560000000 1.0
C      1  0.5143470000000  0.5274970000000  0.5029440000000 1.0
C      1  0.4854200000000  0.4884740000000  0.4747130000000 1.0
C      1  0.4854200000000  0.4834920000000  0.5226110000000 1.0
C      1  0.4854200000000  0.5274640000000  0.5029770000000 1.0
C      1  0.5345340000000  0.5962750000000  0.5279590000000 1.0
C      1  0.5345340000000  0.4757040000000  0.4026300000000 1.0
C      1  0.5345340000000  0.4274510000000  0.5697120000000 1.0
C      1  0.4645730000000  0.5961910000000  0.5279360000000 1.0
C      1  0.4645730000000  0.4757260000000  0.4027140000000 1.0
C      1  0.4645730000000  0.4275130000000  0.5696510000000 1.0
C      1  0.4376820000000  0.5388740000000  0.5594760000000 1.0
C      1  0.4376820000000  0.5316990000000  0.4365820000000 1.0
C      1  0.4376820000000  0.4288570000000  0.5042430000000 1.0
C      1  0.5615470000000  0.5389800000000  0.5596010000000 1.0
C      1  0.5615470000000  0.5317550000000  0.4364280000000 1.0
C      1  0.5615470000000  0.4286960000000  0.5042720000000 1.0
C      1  0.6046050000000  0.5486860000000  0.5392140000000 1.0
C      1  0.6046050000000  0.5092460000000  0.4382160000000 1.0
C      1  0.6046050000000  0.4414990000000  0.5228710000000 1.0
C      1  0.3947120000000  0.5486890000000  0.5390960000000 1.0
C      1  0.3947120000000  0.5091420000000  0.4382720000000 1.0
C      1  0.3947120000000  0.4416000000000  0.5229330000000 1.0
C      1  0.5160010000000  0.4460960000000  0.5867040000000 1.0
C      1  0.5160010000000  0.6016680000000  0.5033160000000 1.0
C      1  0.5160010000000  0.4516660000000  0.4102810000000 1.0
C      1  0.4831060000000  0.4461300000000  0.5866650000000 1.0
C      1  0.4831060000000  0.6016180000000  0.5033060000000 1.0
C      1  0.4831060000000  0.4516820000000  0.4103290000000 1.0
C      1  0.5175770000000  0.5008270000000  0.3985150000000 1.0
C      1  0.5175770000000  0.4113260000000  0.5500120000000 1.0
C      1  0.5175770000000  0.5872770000000  0.5517740000000 1.0
C      1  0.4815070000000  0.5008440000000  0.3986520000000 1.0
C      1  0.4815070000000  0.4114360000000  0.5499290000000 1.0
C      1  0.4815070000000  0.5871500000000  0.5517200000000 1.0
C      1  0.4274660000000  0.5157460000000  0.4862210000000 1.0
C      1  0.4274660000000  0.4798230000000  0.4932390000000 1.0
C      1  0.4274660000000  0.5038620000000  0.5208410000000 1.0
C      1  0.5716580000000  0.5156240000000  0.4860260000000 1.0
C      1  0.5716580000000  0.4797150000000  0.4934420000000 1.0
C      1  0.5716580000000  0.5040920000000  0.5208320000000 1.0
C      1  0.4054850000000  0.4404450000000  0.4718080000000 1.0
C      1  0.4054850000000  0.5049910000000  0.5656580000000 1.0
C      1  0.4054850000000  0.5539940000000  0.4628350000000 1.0
C      1  0.5936680000000  0.4404160000000  0.4718100000000 1.0
C      1  0.5936680000000  0.5050080000000  0.5656820000000 1.0
C      1  0.5936680000000  0.5540070000000  0.4628080000000 1.0
C      1  0.5570620000000  0.4060590000000  0.4621270000000 1.0
C      1  0.5570620000000  0.5138000000000  0.6002780000000 1.0
C      1  0.5570620000000  0.5795710000000  0.4378960000000 1.0
C      1  0.4420070000000  0.4058960000000  0.4622140000000 1.0
C      1  0.4420070000000  0.5139560000000  0.6003760000000 1.0
C      1  0.4420070000000  0.5795780000000  0.4377110000000 1.0
C      1  0.5275970000000  0.5876380000000  0.4343380000000 1.0
C      1  0.5275970000000  0.3989440000000  0.4569200000000 1.0
C      1  0.5275970000000  0.5128480000000  0.6090430000000 1.0
C      1  0.4715170000000  0.5876430000000  0.4342840000000 1.0
C      1  0.4715170000000  0.3988950000000  0.4569430000000 1.0
C      1  0.4715170000000  0.5128920000000  0.6090740000000 1.0
C      1  0.4743520000000  0.4537800000000  0.5260850000000 1.0
C      1  0.4743520000000  0.5453280000000  0.5269710000000 1.0
C      1  0.4743520000000  0.5003220000000  0.4472450000000 1.0
C      1  0.5248910000000  0.4535540000000  0.5262190000000 1.0
C      1  0.5248910000000  0.5455580000000  0.5271000000000 1.0
C      1  0.5248910000000  0.5003180000000  0.4469820000000 1.0
C      1  0.5177380000000  0.5692110000000  0.5005850000000 1.0
C      1  0.5177380000000  0.4655290000000  0.4397550000000 1.0
C      1  0.5177380000000  0.4646900000000  0.5599610000000 1.0
C      1  0.4813550000000  0.5691200000000  0.5005610000000 1.0
C      1  0.4813550000000  0.4655540000000  0.4398460000000 1.0
C      1  0.4813550000000  0.4647560000000  0.5598940000000 1.0
C      1  0.4471170000000  0.4571860000000  0.4471930000000 1.0
C      1  0.4471170000000  0.4753030000000  0.5634670000000 1.0
C      1  0.4471170000000  0.5669410000000  0.4896410000000 1.0
C      1  0.5519490000000  0.4575460000000  0.4473260000000 1.0
C      1  0.5519490000000  0.4752390000000  0.5630890000000 1.0
C      1  0.5519490000000  0.5666460000000  0.4898850000000 1.0
C      1  0.4075340000000  0.5579530000000  0.5145100000000 1.0
C      1  0.4075340000000  0.4832170000000  0.4425420000000 1.0
C      1  0.4075340000000  0.4582590000000  0.5432490000000 1.0
C      1  0.5919130000000  0.5579810000000  0.5145610000000 1.0
C      1  0.5919130000000  0.4832480000000  0.4424920000000 1.0
C      1  0.5919130000000  0.4582010000000  0.5432470000000 1.0
C      1  0.4852310000000  0.6051050000000  0.4525810000000 1.0
C      1  0.4852310000000  0.4060090000000  0.4326720000000 1.0
C      1  0.4852310000000  0.4883160000000  0.6150480000000 1.0
C      1  0.5138410000000  0.6051100000000  0.4525960000000 1.0
C      1  0.5138410000000  0.4060200000000  0.4326590000000 1.0
C      1  0.5138410000000  0.4882990000000  0.6150450000000 1.0
C      1  0.5492880000000  0.4059510000000  0.4921220000000 1.0
C      1  0.5492880000000  0.5398310000000  0.5853740000000 1.0
C      1  0.5492880000000  0.5536490000000  0.4228050000000 1.0
C      1  0.4499280000000  0.4060690000000  0.4921730000000 1.0
C      1  0.4499280000000  0.5398160000000  0.5852460000000 1.0
C      1  0.4499280000000  0.5535450000000  0.4228820000000 1.0
C      1  0.4452340000000  0.4789910000000  0.4683190000000 1.0
C      1  0.4452340000000  0.4826970000000  0.5340210000000 1.0
C      1  0.4452340000000  0.5377430000000  0.4979610000000 1.0
C      1  0.5546870000000  0.4797850000000  0.4679170000000 1.0
C      1  0.5546870000000  0.4819510000000  0.5335340000000 1.0
C      1  0.5546870000000  0.5376940000000  0.4988500000000 1.0
C      1  0.4841080000000  0.4243120000000  0.5211470000000 1.0
C      1  0.4841070000000  0.5557860000000  0.5549600000000 1.0
C      1  0.4841080000000  0.5193320000000  0.4241940000000 1.0
C      1  0.5150110000000  0.4241520000000  0.5211840000000 1.0
C      1  0.5150110000000  0.5558980000000  0.5550800000000 1.0
C      1  0.5150110000000  0.5193800000000  0.4240370000000 1.0
C      1  0.5262650000000  0.4241300000000  0.4135110000000 1.0
C      1  0.5262650000000  0.4626620000000  0.6089360000000 1.0
C      1  0.5262650000000  0.6126390000000  0.4778540000000 1.0
C      1  0.4727950000000  0.4241580000000  0.4135690000000 1.0
C      1  0.4727950000000  0.4626980000000  0.6088830000000 1.0
C      1  0.4727950000000  0.6125750000000  0.4778490000000 1.0
C      1  0.4814280000000  0.4572260000000  0.4809850000000 1.0
C      1  0.4814270000000  0.5045470000000  0.5465370000000 1.0
C      1  0.4814270000000  0.5376570000000  0.4727800000000 1.0
C      1  0.5179260000000  0.4571600000000  0.4808950000000 1.0
C      1  0.5179260000000  0.5045030000000  0.5466390000000 1.0
C      1  0.5179260000000  0.5377670000000  0.4727670000000 1.0
C      1  0.5901380000000  0.5343400000000  0.5596830000000 1.0
C      1  0.5901380000000  0.5341450000000  0.4404050000000 1.0
C      1  0.5901380000000  0.4309450000000  0.5002130000000 1.0
C      1  0.4090820000000  0.5343170000000  0.5596020000000 1.0
C      1  0.4090820000000  0.5340870000000  0.4404660000000 1.0
C      1  0.4090820000000  0.4310270000000  0.5002330000000 1.0
C      1  0.4523970000000  0.5239220000000  0.5376480000000 1.0
C      1  0.4523970000000  0.5202720000000  0.4604450000000 1.0
C      1  0.4523970000000  0.4552370000000  0.5022080000000 1.0
C      1  0.5468080000000  0.5240900000000  0.5377850000000 1.0
C      1  0.5468080000000  0.5203060000000  0.4602310000000 1.0
C      1  0.5468080000000  0.4550340000000  0.5022840000000 1.0
C      1  0.5954330000000  0.4700270000000  0.4702130000000 1.0
C      1  0.5954330000000  0.4888180000000  0.5408370000000 1.0
C      1  0.5954330000000  0.5405850000000  0.4892510000000 1.0
C      1  0.4042710000000  0.4700770000000  0.4702170000000 1.0
C      1  0.4042710000000  0.4887970000000  0.5407910000000 1.0
C      1  0.4042710000000  0.5405560000000  0.4892930000000 1.0
C      1  0.4767970000000  0.4998100000000  0.5001000000000 1.0
C      1  0.5230850000000  0.4998100000000  0.5001000000000 1.0
END
