TITL C-862128-1543-639 3.2838529717717 125000 -1052.79197108735 0 0 171 (C1) n - 1
REM
REM in /home/nfs/bkarasulu/CARBON/AIRSS/Generating-Clusters/TERSOFF/Higher-Symm/FIRE-HFTN
REM
REM
REM
REM
REM
REM ./C.cell (b20cbc046b6831c77cfcea5457e17084)
REM AIRSS Version 0.9.1 bugfix July 2018 build 013d7b7c2542+ Fri, 06 Jul 2018 19:26:36 +0100
REM compiler GCC version 9.2.1 20190827 (Red Hat 9.2.1-1)
REM options -cpp -mtune=generic -march=x86-64 -g -O0 -fpre-include=/usr/include/finclude/math-vector-fortran.h
REM seed 1459868136 -1374949725 506220971 -936623036 1195426900 1010774151 1406339637 1140040971 682760766 2118760418 893329792 1830527505 -1466978875 259727644 -2140258719 -1591444735 1448303026 -652452846 1223640927 1693928972 1445017626 -207562526 -640454591 1512765271 -1794697883 1125801040 339510998 1712216161 -388039793 -922669653 -520657219 1540126004 1197889095
REM
CELL 1.54180   50.00000   50.00000   50.00000   90.00000   90.00000   90.00000
LATT -1
SFAC C  
C      1  0.5340070000000  0.4580030000000  0.5425160000000 1.0
C      1  0.5357600000000  0.4446920000000  0.4728750000000 1.0
C      1  0.5350420000000  0.5109090000000  0.4384930000000 1.0
C      1  0.5337920000000  0.5612660000000  0.4917420000000 1.0
C      1  0.5334120000000  0.5280570000000  0.5554590000000 1.0
C      1  0.4660210000000  0.4588970000000  0.5427050000000 1.0
C      1  0.4672980000000  0.4450720000000  0.4756810000000 1.0
C      1  0.4656810000000  0.5117530000000  0.4377520000000 1.0
C      1  0.4658150000000  0.5604910000000  0.4921930000000 1.0
C      1  0.4650560000000  0.5281850000000  0.5551110000000 1.0
C      1  0.4408850000000  0.5926290000000  0.5058650000000 1.0
C      1  0.4410160000000  0.5243160000000  0.5895300000000 1.0
C      1  0.4416100000000  0.4239430000000  0.5496480000000 1.0
C      1  0.4413950000000  0.4296250000000  0.4423620000000 1.0
C      1  0.4402320000000  0.5343640000000  0.4132000000000 1.0
C      1  0.5585550000000  0.5922100000000  0.5056370000000 1.0
C      1  0.5586670000000  0.5241610000000  0.5893080000000 1.0
C      1  0.5587510000000  0.4232140000000  0.5498010000000 1.0
C      1  0.5590780000000  0.4286280000000  0.4418600000000 1.0
C      1  0.5597030000000  0.5340620000000  0.4136340000000 1.0
C      1  0.5158900000000  0.5276880000000  0.4565890000000 1.0
C      1  0.5146460000000  0.5485740000000  0.5122050000000 1.0
C      1  0.5138720000000  0.5047210000000  0.5503600000000 1.0
C      1  0.5148390000000  0.4517380000000  0.5201660000000 1.0
C      1  0.5167160000000  0.4656030000000  0.4604670000000 1.0
C      1  0.4861430000000  0.5282480000000  0.4563150000000 1.0
C      1  0.4849870000000  0.5477490000000  0.5122220000000 1.0
C      1  0.4839150000000  0.5046060000000  0.5503360000000 1.0
C      1  0.4845810000000  0.4515800000000  0.5200910000000 1.0
C      1  0.4862820000000  0.4645820000000  0.4604470000000 1.0
C      1  0.4391910000000  0.5781410000000  0.5358270000000 1.0
C      1  0.4394690000000  0.4914070000000  0.5846910000000 1.0
C      1  0.4393640000000  0.4159020000000  0.5175720000000 1.0
C      1  0.4396330000000  0.4589700000000  0.4262620000000 1.0
C      1  0.4394900000000  0.5573580000000  0.4380800000000 1.0
C      1  0.5601140000000  0.5774130000000  0.5353430000000 1.0
C      1  0.5604700000000  0.4913980000000  0.5842240000000 1.0
C      1  0.5610440000000  0.4155660000000  0.5175010000000 1.0
C      1  0.5606600000000  0.4583830000000  0.4257080000000 1.0
C      1  0.5603730000000  0.5575760000000  0.4379820000000 1.0
C      1  0.6215410000000  0.4678080000000  0.5413590000000 1.0
C      1  0.6218840000000  0.4492530000000  0.4814380000000 1.0
C      1  0.6214220000000  0.5020070000000  0.4475220000000 1.0
C      1  0.6219330000000  0.5523200000000  0.4856000000000 1.0
C      1  0.6221970000000  0.5308410000000  0.5449320000000 1.0
C      1  0.3783710000000  0.4678890000000  0.5423020000000 1.0
C      1  0.3785600000000  0.4503220000000  0.4820350000000 1.0
C      1  0.3780150000000  0.5023770000000  0.4467270000000 1.0
C      1  0.3780010000000  0.5518230000000  0.4860320000000 1.0
C      1  0.3776570000000  0.5309050000000  0.5453950000000 1.0
C      1  0.4852490000000  0.4042000000000  0.4592800000000 1.0
C      1  0.4853470000000  0.5102640000000  0.3943960000000 1.0
C      1  0.4848810000000  0.6019750000000  0.4775740000000 1.0
C      1  0.4849710000000  0.5542060000000  0.5903650000000 1.0
C      1  0.4853360000000  0.4327000000000  0.5779670000000 1.0
C      1  0.5148380000000  0.4038630000000  0.4588620000000 1.0
C      1  0.5150070000000  0.5102090000000  0.3950000000000 1.0
C      1  0.5144150000000  0.6024550000000  0.4773520000000 1.0
C      1  0.5145230000000  0.5544290000000  0.5905290000000 1.0
C      1  0.5148300000000  0.4324420000000  0.5781470000000 1.0
C      1  0.4185650000000  0.4232560000000  0.4962180000000 1.0
C      1  0.4184040000000  0.4810030000000  0.4256480000000 1.0
C      1  0.4184360000000  0.5647740000000  0.4591240000000 1.0
C      1  0.4179930000000  0.5607320000000  0.5494300000000 1.0
C      1  0.4184460000000  0.4732000000000  0.5719550000000 1.0
C      1  0.5820970000000  0.4218740000000  0.4960260000000 1.0
C      1  0.5819570000000  0.4803120000000  0.4250310000000 1.0
C      1  0.5814530000000  0.5649970000000  0.4587860000000 1.0
C      1  0.5812390000000  0.5597460000000  0.5486590000000 1.0
C      1  0.5813850000000  0.4730890000000  0.5711240000000 1.0
C      1  0.4704920000000  0.4198640000000  0.4373770000000 1.0
C      1  0.4702030000000  0.5361240000000  0.4029290000000 1.0
C      1  0.4700860000000  0.6033960000000  0.5042370000000 1.0
C      1  0.4701950000000  0.5291220000000  0.5995610000000 1.0
C      1  0.4704320000000  0.4156350000000  0.5577680000000 1.0
C      1  0.5296460000000  0.4194650000000  0.4368300000000 1.0
C      1  0.5299070000000  0.5359670000000  0.4032740000000 1.0
C      1  0.5294070000000  0.6033470000000  0.5041010000000 1.0
C      1  0.5295580000000  0.5291720000000  0.5994600000000 1.0
C      1  0.5297130000000  0.4154160000000  0.5577050000000 1.0
C      1  0.6055760000000  0.4843350000000  0.5591590000000 1.0
C      1  0.6058920000000  0.4375860000000  0.5027920000000 1.0
C      1  0.6056240000000  0.4782090000000  0.4420910000000 1.0
C      1  0.6056140000000  0.5488310000000  0.4618380000000 1.0
C      1  0.6056480000000  0.5522490000000  0.5343570000000 1.0
C      1  0.3942730000000  0.4844820000000  0.5600480000000 1.0
C      1  0.3946310000000  0.4386330000000  0.5032670000000 1.0
C      1  0.3944260000000  0.4788130000000  0.4422580000000 1.0
C      1  0.3942090000000  0.5486870000000  0.4621150000000 1.0
C      1  0.3938790000000  0.5526560000000  0.5349400000000 1.0
C      1  0.4670850000000  0.4804310000000  0.5885120000000 1.0
C      1  0.4670210000000  0.4074350000000  0.5085120000000 1.0
C      1  0.4671440000000  0.4656040000000  0.4161520000000 1.0
C      1  0.4672030000000  0.5680190000000  0.4417490000000 1.0
C      1  0.4667970000000  0.5783500000000  0.5475770000000 1.0
C      1  0.5329310000000  0.4803870000000  0.5881740000000 1.0
C      1  0.5334330000000  0.4080470000000  0.5080840000000 1.0
C      1  0.5330370000000  0.4652680000000  0.4160930000000 1.0
C      1  0.5326770000000  0.5685910000000  0.4414370000000 1.0
C      1  0.5326200000000  0.5780880000000  0.5473800000000 1.0
C      1  0.4388670000000  0.4541160000000  0.4763550000000 1.0
C      1  0.4375220000000  0.5109550000000  0.4479430000000 1.0
C      1  0.4380340000000  0.5524130000000  0.4941260000000 1.0
C      1  0.4371140000000  0.5234230000000  0.5477320000000 1.0
C      1  0.4382110000000  0.4635810000000  0.5362050000000 1.0
C      1  0.5641560000000  0.4535790000000  0.4752390000000 1.0
C      1  0.5631160000000  0.5100170000000  0.4478860000000 1.0
C      1  0.5612940000000  0.5521680000000  0.4932890000000 1.0
C      1  0.5611180000000  0.5229420000000  0.5474110000000 1.0
C      1  0.5617690000000  0.4625920000000  0.5355310000000 1.0
C      1  0.4229070000000  0.5888250000000  0.4797020000000 1.0
C      1  0.4227530000000  0.5481720000000  0.5784520000000 1.0
C      1  0.4231120000000  0.4417360000000  0.5687240000000 1.0
C      1  0.4231570000000  0.4168070000000  0.4652630000000 1.0
C      1  0.4225980000000  0.5079410000000  0.4088310000000 1.0
C      1  0.5767870000000  0.5887310000000  0.4796480000000 1.0
C      1  0.5768070000000  0.5474510000000  0.5776760000000 1.0
C      1  0.5769570000000  0.4415560000000  0.5685390000000 1.0
C      1  0.5771250000000  0.4149950000000  0.4650100000000 1.0
C      1  0.5775880000000  0.5076010000000  0.4085630000000 1.0
C      1  0.3872390000000  0.4534830000000  0.4545660000000 1.0
C      1  0.3864710000000  0.5296110000000  0.4416150000000 1.0
C      1  0.3864770000000  0.5656700000000  0.5100430000000 1.0
C      1  0.3864130000000  0.5119280000000  0.5654790000000 1.0
C      1  0.3871200000000  0.4426520000000  0.5310250000000 1.0
C      1  0.6129380000000  0.4527160000000  0.4540700000000 1.0
C      1  0.6129670000000  0.5291380000000  0.4417630000000 1.0
C      1  0.6132450000000  0.5657150000000  0.5097820000000 1.0
C      1  0.6136270000000  0.5116480000000  0.5648550000000 1.0
C      1  0.6131310000000  0.4422610000000  0.5305410000000 1.0
C      1  0.4288190000000  0.4829000000000  0.5175950000000 1.0
C      1  0.4284520000000  0.4782810000000  0.4885810000000 1.0
C      1  0.4286570000000  0.5056820000000  0.4753210000000 1.0
C      1  0.4290460000000  0.5256600000000  0.4972250000000 1.0
C      1  0.4282580000000  0.5117760000000  0.5231040000000 1.0
C      1  0.5709740000000  0.4824150000000  0.5173450000000 1.0
C      1  0.5736250000000  0.4778140000000  0.4880970000000 1.0
C      1  0.5718820000000  0.5053140000000  0.4750930000000 1.0
C      1  0.5693360000000  0.5251540000000  0.4969010000000 1.0
C      1  0.5692560000000  0.5112650000000  0.5225350000000 1.0
C      1  0.5263340000000  0.4189010000000  0.4816610000000 1.0
C      1  0.5253170000000  0.4937240000000  0.4174260000000 1.0
C      1  0.5243480000000  0.5759680000000  0.4687630000000 1.0
C      1  0.5244150000000  0.5544350000000  0.5627350000000 1.0
C      1  0.5250430000000  0.4588140000000  0.5699950000000 1.0
C      1  0.4752820000000  0.4187460000000  0.4829090000000 1.0
C      1  0.4748800000000  0.4940980000000  0.4169310000000 1.0
C      1  0.4753270000000  0.5753420000000  0.4691420000000 1.0
C      1  0.4746500000000  0.5544060000000  0.5626770000000 1.0
C      1  0.4752290000000  0.4592230000000  0.5700830000000 1.0
C      1  0.5300800000000  0.5147910000000  0.4799550000000 1.0
C      1  0.5282150000000  0.5225490000000  0.5069490000000 1.0
C      1  0.5288980000000  0.4998530000000  0.5247270000000 1.0
C      1  0.5251540000000  0.4764710000000  0.5058560000000 1.0
C      1  0.5343790000000  0.4864730000000  0.4761010000000 1.0
C      1  0.4721120000000  0.5142930000000  0.4790890000000 1.0
C      1  0.4727430000000  0.5214590000000  0.5060100000000 1.0
C      1  0.4683500000000  0.4994240000000  0.5247310000000 1.0
C      1  0.4716010000000  0.4753460000000  0.5044700000000 1.0
C      1  0.4659920000000  0.4867920000000  0.4718780000000 1.0
C      1  0.5147980000000  0.5563010000000  0.4201490000000 1.0
C      1  0.5145450000000  0.5945070000000  0.5291310000000 1.0
C      1  0.5147370000000  0.5026860000000  0.5984340000000 1.0
C      1  0.5149490000000  0.4066950000000  0.5326990000000 1.0
C      1  0.5148490000000  0.4415120000000  0.4220560000000 1.0
C      1  0.4852050000000  0.5562120000000  0.4202020000000 1.0
C      1  0.4849490000000  0.5945570000000  0.5291870000000 1.0
C      1  0.4851240000000  0.5026890000000  0.5986110000000 1.0
C      1  0.4851890000000  0.4062920000000  0.5329360000000 1.0
C      1  0.4853330000000  0.4416950000000  0.4222710000000 1.0
C      1  0.4986920000000  0.4879300000000  0.4981160000000 1.0
END
