TITL C-862134-6730-189 1.89533150460097 125000 -634.154641790536 0 0 115 (C1) n - 1
REM
REM in /home/nfs/bkarasulu/CARBON/AIRSS/Generating-Clusters/TERSOFF/Higher-Symm/FIRE-HFTN
REM
REM
REM
REM
REM
REM ./C.cell (b20cbc046b6831c77cfcea5457e17084)
REM AIRSS Version 0.9.1 bugfix July 2018 build 013d7b7c2542+ Fri, 06 Jul 2018 19:26:36 +0100
REM compiler GCC version 9.2.1 20190827 (Red Hat 9.2.1-1)
REM options -cpp -mtune=generic -march=x86-64 -g -O0 -fpre-include=/usr/include/finclude/math-vector-fortran.h
REM seed -500523837 1905551163 -14805716 672152483 -50446943 1137300874 -2059383452 -725711576 990724029 1802622976 1004396277 1783997742 1798817075 -1237158651 -540694554 391399892 -158341699 -1830561440 1664571496 632603752 170992945 -888576385 -147594731 -591410567 -1941908942 496066631 -1159804024 -1121983336 -386298438 -1170231629 1288123443 1289753603 -115366618
REM
CELL 1.54180   50.00000   50.00000   50.00000   90.00000   90.00000   90.00000
LATT -1
SFAC C  
C      1  0.4481170000000  0.4871950000000  0.4785190000000 1.0
C      1  0.5485010000000  0.4817070000000  0.5117630000000 1.0
C      1  0.4487820000000  0.4840630000000  0.5107690000000 1.0
C      1  0.5546020000000  0.4889360000000  0.4801270000000 1.0
C      1  0.4451830000000  0.4459910000000  0.4869480000000 1.0
C      1  0.5534170000000  0.4392670000000  0.5162550000000 1.0
C      1  0.4380880000000  0.4395190000000  0.5153450000000 1.0
C      1  0.5631190000000  0.4470070000000  0.4892270000000 1.0
C      1  0.6152040000000  0.4910250000000  0.4804090000000 1.0
C      1  0.3860610000000  0.4913750000000  0.5089970000000 1.0
C      1  0.6123660000000  0.4907650000000  0.5116530000000 1.0
C      1  0.3862750000000  0.4903570000000  0.4776070000000 1.0
C      1  0.5604220000000  0.4507800000000  0.4393620000000 1.0
C      1  0.4396400000000  0.4597450000000  0.5621610000000 1.0
C      1  0.5583930000000  0.4562470000000  0.5599210000000 1.0
C      1  0.4426030000000  0.4492760000000  0.4389500000000 1.0
C      1  0.4728630000000  0.5175580000000  0.5182560000000 1.0
C      1  0.5264910000000  0.5200920000000  0.4808680000000 1.0
C      1  0.4753230000000  0.5182990000000  0.4857980000000 1.0
C      1  0.5250520000000  0.5164420000000  0.5135610000000 1.0
C      1  0.5599730000000  0.5818280000000  0.5135170000000 1.0
C      1  0.4351560000000  0.5826940000000  0.4905040000000 1.0
C      1  0.5620850000000  0.5845120000000  0.4799620000000 1.0
C      1  0.4408020000000  0.5831060000000  0.5235800000000 1.0
C      1  0.4710270000000  0.4448590000000  0.4286630000000 1.0
C      1  0.5298620000000  0.4520870000000  0.5721530000000 1.0
C      1  0.4675270000000  0.4537550000000  0.5761420000000 1.0
C      1  0.5325080000000  0.4453660000000  0.4277930000000 1.0
C      1  0.5680450000000  0.5107030000000  0.4378200000000 1.0
C      1  0.4312990000000  0.5125930000000  0.5565250000000 1.0
C      1  0.5666840000000  0.5104120000000  0.5558990000000 1.0
C      1  0.4338920000000  0.5099850000000  0.4372530000000 1.0
C      1  0.4458420000000  0.5314600000000  0.4821710000000 1.0
C      1  0.5533920000000  0.5288470000000  0.5118570000000 1.0
C      1  0.4453060000000  0.5295960000000  0.5128380000000 1.0
C      1  0.5552160000000  0.5321010000000  0.4816000000000 1.0
C      1  0.4733460000000  0.4539080000000  0.4825600000000 1.0
C      1  0.5261220000000  0.4475160000000  0.5214170000000 1.0
C      1  0.4662530000000  0.4484270000000  0.5243950000000 1.0
C      1  0.5341010000000  0.4523660000000  0.4794340000000 1.0
C      1  0.4791990000000  0.5664270000000  0.5202620000000 1.0
C      1  0.5210520000000  0.5692410000000  0.4891260000000 1.0
C      1  0.4792640000000  0.5688940000000  0.4928130000000 1.0
C      1  0.5209860000000  0.5665110000000  0.5165540000000 1.0
C      1  0.4631740000000  0.5054540000000  0.4277400000000 1.0
C      1  0.5374840000000  0.5071720000000  0.5660940000000 1.0
C      1  0.4610630000000  0.5096400000000  0.5665270000000 1.0
C      1  0.5383900000000  0.5058080000000  0.4280390000000 1.0
C      1  0.4594410000000  0.5807160000000  0.5543300000000 1.0
C      1  0.5393380000000  0.5895670000000  0.4573870000000 1.0
C      1  0.4544040000000  0.5884990000000  0.4653950000000 1.0
C      1  0.5463030000000  0.5805080000000  0.5468420000000 1.0
C      1  0.4865750000000  0.5200180000000  0.6103320000000 1.0
C      1  0.5150410000000  0.5054000000000  0.3826300000000 1.0
C      1  0.4859770000000  0.5046420000000  0.3827230000000 1.0
C      1  0.5155380000000  0.5184610000000  0.6106000000000 1.0
C      1  0.4714250000000  0.4899890000000  0.4036940000000 1.0
C      1  0.5299280000000  0.4992180000000  0.5938520000000 1.0
C      1  0.4705780000000  0.5014400000000  0.5943620000000 1.0
C      1  0.5304760000000  0.4908900000000  0.4030260000000 1.0
C      1  0.4816600000000  0.4296240000000  0.5674110000000 1.0
C      1  0.5175740000000  0.4243150000000  0.4415780000000 1.0
C      1  0.4868510000000  0.4251960000000  0.4433960000000 1.0
C      1  0.5141580000000  0.4288180000000  0.5632630000000 1.0
C      1  0.5761240000000  0.5227890000000  0.4652800000000 1.0
C      1  0.4230230000000  0.5237040000000  0.5288970000000 1.0
C      1  0.5745190000000  0.5220360000000  0.5289370000000 1.0
C      1  0.4257630000000  0.5215650000000  0.4648220000000 1.0
C      1  0.4809730000000  0.4286300000000  0.5376110000000 1.0
C      1  0.5200060000000  0.4285430000000  0.4724310000000 1.0
C      1  0.4873550000000  0.4298640000000  0.4743400000000 1.0
C      1  0.5085810000000  0.4238500000000  0.5277120000000 1.0
C      1  0.4306150000000  0.4734640000000  0.4577340000000 1.0
C      1  0.5684720000000  0.4746580000000  0.5331020000000 1.0
C      1  0.4286820000000  0.4767170000000  0.5323580000000 1.0
C      1  0.5721230000000  0.4746030000000  0.4588880000000 1.0
C      1  0.5145590000000  0.5975750000000  0.4769390000000 1.0
C      1  0.4856070000000  0.5919000000000  0.5373730000000 1.0
C      1  0.5174600000000  0.5919260000000  0.5345190000000 1.0
C      1  0.4826560000000  0.5973090000000  0.4797080000000 1.0
C      1  0.6019810000000  0.5190770000000  0.4802830000000 1.0
C      1  0.3975350000000  0.5201170000000  0.5132180000000 1.0
C      1  0.6009230000000  0.5192760000000  0.5153120000000 1.0
C      1  0.3991480000000  0.5183190000000  0.4781610000000 1.0
C      1  0.4009240000000  0.4724450000000  0.5246210000000 1.0
C      1  0.6008500000000  0.4727690000000  0.4636900000000 1.0
C      1  0.4016580000000  0.4713310000000  0.4625150000000 1.0
C      1  0.5966320000000  0.4709550000000  0.5254220000000 1.0
C      1  0.5171370000000  0.4650680000000  0.4112840000000 1.0
C      1  0.4836030000000  0.4745010000000  0.5901280000000 1.0
C      1  0.5154680000000  0.4732170000000  0.5891470000000 1.0
C      1  0.4855440000000  0.4647010000000  0.4117120000000 1.0
C      1  0.4791820000000  0.4820340000000  0.5223320000000 1.0
C      1  0.5205450000000  0.4852700000000  0.4738150000000 1.0
C      1  0.4837970000000  0.4874150000000  0.4742110000000 1.0
C      1  0.5161150000000  0.4821200000000  0.5206490000000 1.0
C      1  0.4771220000000  0.5540170000000  0.5606650000000 1.0
C      1  0.5223510000000  0.5643460000000  0.4462360000000 1.0
C      1  0.4705750000000  0.5636060000000  0.4516580000000 1.0
C      1  0.5291560000000  0.5538750000000  0.5557640000000 1.0
C      1  0.5140390000000  0.5457990000000  0.4711080000000 1.0
C      1  0.4857550000000  0.5398380000000  0.5332270000000 1.0
C      1  0.5152950000000  0.5398750000000  0.5299970000000 1.0
C      1  0.4847150000000  0.5453100000000  0.4744580000000 1.0
C      1  0.5707530000000  0.4328680000000  0.4631370000000 1.0
C      1  0.4279360000000  0.4365180000000  0.5443520000000 1.0
C      1  0.5695480000000  0.4333820000000  0.5405180000000 1.0
C      1  0.4335760000000  0.4320160000000  0.4635120000000 1.0
C      1  0.4854370000000  0.5070680000000  0.4467090000000 1.0
C      1  0.5140890000000  0.4972090000000  0.5491350000000 1.0
C      1  0.4829110000000  0.4941010000000  0.5515430000000 1.0
C      1  0.5157030000000  0.4987740000000  0.4464070000000 1.0
C      1  0.5045780000000  0.5574050000000  0.5734210000000 1.0
C      1  0.4948660000000  0.5697030000000  0.4344060000000 1.0
C      1  0.5055590000000  0.4112280000000  0.4993650000000 1.0
END
