TITL C-862501-1041-303 7.54671424841478e-06 125000 -52.0433628584452 0 0 20 (C2v) n - 1
REM
REM in /home/nfs/bkarasulu/CARBON/AIRSS/Generating-Clusters/TERSOFF/Higher-Symm/FIRE-HFTN
REM
REM
REM
REM
REM
REM ./C.cell (b20cbc046b6831c77cfcea5457e17084)
REM AIRSS Version 0.9.1 bugfix July 2018 build 013d7b7c2542+ Fri, 06 Jul 2018 19:26:36 +0100
REM compiler GCC version 9.2.1 20190827 (Red Hat 9.2.1-1)
REM options -cpp -mtune=generic -march=x86-64 -g -O0 -fpre-include=/usr/include/finclude/math-vector-fortran.h
REM seed -1260411070 -1878307640 1019644922 729221308 -1864317744 1392735481 1714791550 -1840341881 1354363521 685076975 864542151 -1858788239 213738967 906507535 1929422397 -685780152 -64840613 -1858475635 1976119004 -1656658810 855222949 -1363095691 -711218462 -1595905624 140154782 -1553504006 2046587238 101482470 2071455404 -287657682 900811298 -1585907272 833938389
REM
CELL 1.54180   50.00000   50.00000   50.00000   90.00000   90.00000   90.00000
LATT -1
SFAC C  
C      1  0.5394450000000  0.5547530000000  0.4726750000000 1.0
C      1  0.5090980000000  0.5788730000000  0.5224100000000 1.0
C      1  0.4527760000000  0.5638240000000  0.5224100000000 1.0
C      1  0.4385030000000  0.5277830000000  0.4726750000000 1.0
C      1  0.4345440000000  0.4825110000000  0.5171980000000 1.0
C      1  0.4605550000000  0.4452470000000  0.4726750000000 1.0
C      1  0.4909020000000  0.4211270000000  0.5224100000000 1.0
C      1  0.5472240000000  0.4361760000000  0.5224100000000 1.0
C      1  0.5614970000000  0.4722170000000  0.4726750000000 1.0
C      1  0.5654560000000  0.5174890000000  0.5171980000000 1.0
C      1  0.5411640000000  0.4603110000000  0.4987260000000 1.0
C      1  0.5486570000000  0.4947080000000  0.4964280000000 1.0
C      1  0.5395340000000  0.5288540000000  0.4964280000000 1.0
C      1  0.5158840000000  0.5549310000000  0.4987260000000 1.0
C      1  0.4823050000000  0.5662280000000  0.5023250000000 1.0
C      1  0.4588360000000  0.5396890000000  0.4987260000000 1.0
C      1  0.4513430000000  0.5052920000000  0.4964280000000 1.0
C      1  0.4604660000000  0.4711460000000  0.4964280000000 1.0
C      1  0.4841160000000  0.4450690000000  0.4987260000000 1.0
C      1  0.5176950000000  0.4337720000000  0.5023250000000 1.0
END
