TITL C-862131-2149-345 -0.111769269165024 125000 -292.687880724247 0 0 53 (C1) n - 1
REM
REM in /home/nfs/bkarasulu/CARBON/AIRSS/Generating-Clusters/TERSOFF/Higher-Symm/FIRE-HFTN
REM
REM
REM
REM
REM
REM ./C.cell (b20cbc046b6831c77cfcea5457e17084)
REM AIRSS Version 0.9.1 bugfix July 2018 build 013d7b7c2542+ Fri, 06 Jul 2018 19:26:36 +0100
REM compiler GCC version 9.2.1 20190827 (Red Hat 9.2.1-1)
REM options -cpp -mtune=generic -march=x86-64 -g -O0 -fpre-include=/usr/include/finclude/math-vector-fortran.h
REM seed 1028823086 585074081 -180356984 334376938 1722841424 1113462716 -1400012423 -1893326972 -1835706730 1760650294 -1332088082 575833840 319461320 355761947 891427953 277815229 -1721344363 -145729110 -737988854 -1450268908 -244460885 1669796048 -368301557 -1094304132 51458105 -739752660 72228775 -1448694043 -243600913 498107273 -1226715450 -1722124840 1673610862
REM
CELL 1.54180   50.00000   50.00000   50.00000   90.00000   90.00000   90.00000
LATT -1
SFAC C  
C      1  0.5746840000000  0.4808810000000  0.5136780000000 1.0
C      1  0.5767200000000  0.5273470000000  0.4963510000000 1.0
C      1  0.4787970000000  0.5593750000000  0.5034130000000 1.0
C      1  0.4782820000000  0.4359180000000  0.4987860000000 1.0
C      1  0.4747560000000  0.4845310000000  0.5674880000000 1.0
C      1  0.4776120000000  0.5142350000000  0.4338950000000 1.0
C      1  0.4296190000000  0.4732230000000  0.5037660000000 1.0
C      1  0.4314080000000  0.5238990000000  0.4956860000000 1.0
C      1  0.4608970000000  0.4883730000000  0.4347770000000 1.0
C      1  0.4580530000000  0.5102860000000  0.5656160000000 1.0
C      1  0.5307510000000  0.4521310000000  0.5067380000000 1.0
C      1  0.5315620000000  0.5568750000000  0.4982140000000 1.0
C      1  0.4896340000000  0.4733030000000  0.4834390000000 1.0
C      1  0.4984110000000  0.5140400000000  0.5130570000000 1.0
C      1  0.5047400000000  0.5752770000000  0.5060940000000 1.0
C      1  0.5084580000000  0.4286720000000  0.4974160000000 1.0
C      1  0.5053320000000  0.5038030000000  0.4307720000000 1.0
C      1  0.5027480000000  0.4960020000000  0.5707560000000 1.0
C      1  0.4672010000000  0.5324770000000  0.4566870000000 1.0
C      1  0.4644090000000  0.4657060000000  0.5448370000000 1.0
C      1  0.5173050000000  0.5387700000000  0.5224810000000 1.0
C      1  0.5174080000000  0.4666730000000  0.4819860000000 1.0
C      1  0.5120470000000  0.4529790000000  0.5314750000000 1.0
C      1  0.5142280000000  0.5516900000000  0.4715990000000 1.0
C      1  0.4411500000000  0.5201140000000  0.4660300000000 1.0
C      1  0.4385250000000  0.4776420000000  0.5343810000000 1.0
C      1  0.4426970000000  0.5302550000000  0.5247250000000 1.0
C      1  0.4403650000000  0.4666220000000  0.4741150000000 1.0
C      1  0.5280680000000  0.4660780000000  0.4554300000000 1.0
C      1  0.5247400000000  0.5386930000000  0.5503040000000 1.0
C      1  0.4769980000000  0.5328840000000  0.5576500000000 1.0
C      1  0.4791170000000  0.4643410000000  0.4411930000000 1.0
C      1  0.4371630000000  0.5072260000000  0.5446540000000 1.0
C      1  0.4390610000000  0.4909770000000  0.4548830000000 1.0
C      1  0.4734020000000  0.5373950000000  0.5252360000000 1.0
C      1  0.4684610000000  0.4535780000000  0.4722130000000 1.0
C      1  0.4831980000000  0.4497850000000  0.5278750000000 1.0
C      1  0.4847500000000  0.5497860000000  0.4740220000000 1.0
C      1  0.5477570000000  0.5289640000000  0.4953090000000 1.0
C      1  0.5457760000000  0.4797540000000  0.5100350000000 1.0
C      1  0.5082510000000  0.4744240000000  0.4359980000000 1.0
C      1  0.5048000000000  0.5262030000000  0.5673020000000 1.0
C      1  0.4515380000000  0.4977070000000  0.4999370000000 1.0
C      1  0.6655490000000  0.4992910000000  0.4856250000000 1.0
C      1  0.6198130000000  0.5035080000000  0.5084730000000 1.0
C      1  0.6377520000000  0.4919290000000  0.4889310000000 1.0
C      1  0.3583530000000  0.4996430000000  0.4974600000000 1.0
C      1  0.6868490000000  0.4919590000000  0.5037980000000 1.0
C      1  0.3834590000000  0.5022480000000  0.5116260000000 1.0
C      1  0.4799610000000  0.4958150000000  0.4974670000000 1.0
C      1  0.5315630000000  0.5048750000000  0.5023270000000 1.0
C      1  0.5908860000000  0.5039170000000  0.5062000000000 1.0
C      1  0.4096090000000  0.4993580000000  0.4995590000000 1.0
END
