TITL C-862128-1543-56 -0.0017476217783277 125000 -113.103507058037 0 0 20 (C1) n - 1
REM
REM in /home/nfs/bkarasulu/CARBON/AIRSS/Generating-Clusters/TERSOFF/Higher-Symm/FIRE-HFTN
REM
REM
REM
REM
REM
REM ./C.cell (b20cbc046b6831c77cfcea5457e17084)
REM AIRSS Version 0.9.1 bugfix July 2018 build 013d7b7c2542+ Fri, 06 Jul 2018 19:26:36 +0100
REM compiler GCC version 9.2.1 20190827 (Red Hat 9.2.1-1)
REM options -cpp -mtune=generic -march=x86-64 -g -O0 -fpre-include=/usr/include/finclude/math-vector-fortran.h
REM seed -1392999031 2053470157 857904137 -935756430 2035602351 -691713637 1131989261 -1213342184 455674560 739969293 1068969784 -1100500627 1703852449 96407593 2044678124 -510266186 1873022854 1595743433 783016476 -1043722378 831152958 553153 1970689757 -901334728 -907475888 -1312984840 1815845961 1675932356 1057597513 1387335202 868920155 -690304046 1293150224
REM
CELL 1.54180   50.00000   50.00000   50.00000   90.00000   90.00000   90.00000
LATT -1
SFAC C  
C      1  0.5386630000000  0.5238910000000  0.4408160000000 1.0
C      1  0.4898620000000  0.5183900000000  0.4523310000000 1.0
C      1  0.4819790000000  0.5035140000000  0.5504930000000 1.0
C      1  0.5280760000000  0.5119910000000  0.5367470000000 1.0
C      1  0.5412890000000  0.4886890000000  0.4943000000000 1.0
C      1  0.4780290000000  0.4466490000000  0.4997620000000 1.0
C      1  0.5175520000000  0.5094220000000  0.4546290000000 1.0
C      1  0.4863990000000  0.4632730000000  0.5220310000000 1.0
C      1  0.4906280000000  0.5409530000000  0.5203610000000 1.0
C      1  0.5128570000000  0.4597610000000  0.4640480000000 1.0
C      1  0.4597540000000  0.5033100000000  0.5080750000000 1.0
C      1  0.4760630000000  0.5347640000000  0.4719400000000 1.0
C      1  0.4700720000000  0.4865280000000  0.5298260000000 1.0
C      1  0.4965770000000  0.5693390000000  0.5195500000000 1.0
C      1  0.5241700000000  0.4858810000000  0.4708110000000 1.0
C      1  0.5015970000000  0.5233360000000  0.5415270000000 1.0
C      1  0.4732680000000  0.5280870000000  0.5000600000000 1.0
C      1  0.5319040000000  0.4872000000000  0.5217580000000 1.0
C      1  0.5147710000000  0.4646080000000  0.5287120000000 1.0
C      1  0.4864900000000  0.4504150000000  0.4722220000000 1.0
END
