TITL C-862502-1143-828 -8.02104596263483e-05 125000 -365.527712385964 0 0 71 (C3) n - 1
REM
REM in /home/nfs/bkarasulu/CARBON/AIRSS/Generating-Clusters/TERSOFF/Higher-Symm/FIRE-HFTN
REM
REM
REM
REM
REM
REM ./C.cell (b20cbc046b6831c77cfcea5457e17084)
REM AIRSS Version 0.9.1 bugfix July 2018 build 013d7b7c2542+ Fri, 06 Jul 2018 19:26:36 +0100
REM compiler GCC version 9.2.1 20190827 (Red Hat 9.2.1-1)
REM options -cpp -mtune=generic -march=x86-64 -g -O0 -fpre-include=/usr/include/finclude/math-vector-fortran.h
REM seed 1323476075 134271175 -1917294510 436758054 1315634311 -1353709924 1032787083 -207620583 2048029942 2119021795 -1305380373 -1450451513 693706325 2098844198 2085428099 -294991553 1656273004 -1611702881 -2139696090 -593255968 366761435 521672458 -555431107 1198987034 -1506035513 -62159292 1134770454 113281828 -1778584751 1123103680 180004324 -1723375974 -947924803
REM
CELL 1.54180   50.00000   50.00000   50.00000   90.00000   90.00000   90.00000
LATT -1
SFAC C  
C      1  0.4801080000000  0.4269930000000  0.5220640000000 1.0
C      1  0.4912190000000  0.4269940000000  0.4717990000000 1.0
C      1  0.5291940000000  0.4269930000000  0.5065530000000 1.0
C      1  0.5111180000000  0.5814430000000  0.5167830000000 1.0
C      1  0.4802880000000  0.5814430000000  0.5012980000000 1.0
C      1  0.5091130000000  0.5814430000000  0.4823410000000 1.0
C      1  0.5296780000000  0.5217390000000  0.4353000000000 1.0
C      1  0.5415740000000  0.5217370000000  0.5581110000000 1.0
C      1  0.4292690000000  0.5217370000000  0.5070080000000 1.0
C      1  0.5264190000000  0.5007180000000  0.5765260000000 1.0
C      1  0.4208980000000  0.5007190000000  0.4846760000000 1.0
C      1  0.5532030000000  0.5007200000000  0.4392170000000 1.0
C      1  0.4970330000000  0.5156270000000  0.5418000000000 1.0
C      1  0.4656650000000  0.5156270000000  0.4765900000000 1.0
C      1  0.5378230000000  0.5156280000000  0.4820300000000 1.0
C      1  0.4475870000000  0.5285370000000  0.4575090000000 1.0
C      1  0.5633860000000  0.5285370000000  0.4759140000000 1.0
C      1  0.4895470000000  0.5285360000000  0.5669960000000 1.0
C      1  0.4240760000000  0.5094550000000  0.4541460000000 1.0
C      1  0.5780530000000  0.5094550000000  0.4572340000000 1.0
C      1  0.4983910000000  0.5094530000000  0.5890380000000 1.0
C      1  0.5108850000000  0.4773260000000  0.4311830000000 1.0
C      1  0.5545360000000  0.4773250000000  0.5438940000000 1.0
C      1  0.4351000000000  0.4773250000000  0.5253410000000 1.0
C      1  0.5636340000000  0.5108610000000  0.5337110000000 1.0
C      1  0.4393700000000  0.5108610000000  0.5383120000000 1.0
C      1  0.4975170000000  0.5108620000000  0.4283960000000 1.0
C      1  0.5230280000000  0.4947020000000  0.5152950000000 1.0
C      1  0.4756220000000  0.4947020000000  0.5123540000000 1.0
C      1  0.5018720000000  0.4947030000000  0.4727690000000 1.0
C      1  0.4700180000000  0.4921080000000  0.4371340000000 1.0
C      1  0.5698150000000  0.4921070000000  0.5055260000000 1.0
C      1  0.4606880000000  0.4921060000000  0.5577570000000 1.0
C      1  0.4685900000000  0.5536860000000  0.4940230000000 1.0
C      1  0.5212620000000  0.5536870000000  0.4758460000000 1.0
C      1  0.5106680000000  0.5536860000000  0.5305510000000 1.0
C      1  0.4840440000000  0.5266480000000  0.5126050000000 1.0
C      1  0.4974430000000  0.5266480000000  0.4799390000000 1.0
C      1  0.5190330000000  0.5266480000000  0.5078760000000 1.0
C      1  0.4602680000000  0.5357200000000  0.5540690000000 1.0
C      1  0.4734220000000  0.5357210000000  0.4386160000000 1.0
C      1  0.5668300000000  0.5357210000000  0.5077340000000 1.0
C      1  0.4603830000000  0.4866270000000  0.4868430000000 1.0
C      1  0.5315840000000  0.4866270000000  0.4723280000000 1.0
C      1  0.5085540000000  0.4866260000000  0.5412470000000 1.0
C      1  0.5404750000000  0.4429970000000  0.4563150000000 1.0
C      1  0.5179760000000  0.4429950000000  0.5569520000000 1.0
C      1  0.4420710000000  0.4429960000000  0.4871490000000 1.0
C      1  0.5452360000000  0.5582770000000  0.4993400000000 1.0
C      1  0.4783350000000  0.5582760000000  0.5395660000000 1.0
C      1  0.4769490000000  0.5582770000000  0.4615150000000 1.0
C      1  0.4779030000000  0.4762890000000  0.5388180000000 1.0
C      1  0.4778120000000  0.4762900000000  0.4615130000000 1.0
C      1  0.5448060000000  0.4762900000000  0.5000870000000 1.0
C      1  0.4340920000000  0.4734220000000  0.4945700000000 1.0
C      1  0.5380380000000  0.4734220000000  0.4456950000000 1.0
C      1  0.5283920000000  0.4734210000000  0.5601530000000 1.0
C      1  0.5288940000000  0.5479090000000  0.5535730000000 1.0
C      1  0.4395390000000  0.5479100000000  0.4982960000000 1.0
C      1  0.5320870000000  0.5479110000000  0.4485510000000 1.0
C      1  0.5213920000000  0.4294880000000  0.4769630000000 1.0
C      1  0.5096350000000  0.4294870000000  0.5301020000000 1.0
C      1  0.4694940000000  0.4294870000000  0.4933500000000 1.0
C      1  0.4539790000000  0.4564380000000  0.5366910000000 1.0
C      1  0.4916160000000  0.4564400000000  0.4418570000000 1.0
C      1  0.5549260000000  0.4564390000000  0.5218690000000 1.0
C      1  0.5882940000000  0.4954390000000  0.4827060000000 1.0
C      1  0.4712110000000  0.4954370000000  0.5851700000000 1.0
C      1  0.4410160000000  0.4954390000000  0.4325410000000 1.0
C      1  0.5001740000000  0.4847030000000  0.5001390000000 1.0
C      1  0.5001740000000  0.4571390000000  0.5001390000000 1.0
END
