TITL C-862502-1143-1026 0.000903619012192151 125000 -322.560131410461 0 0 64 (D2) n - 1
REM
REM in /home/nfs/bkarasulu/CARBON/AIRSS/Generating-Clusters/TERSOFF/Higher-Symm/FIRE-HFTN
REM
REM
REM
REM
REM
REM ./C.cell (b20cbc046b6831c77cfcea5457e17084)
REM AIRSS Version 0.9.1 bugfix July 2018 build 013d7b7c2542+ Fri, 06 Jul 2018 19:26:36 +0100
REM compiler GCC version 9.2.1 20190827 (Red Hat 9.2.1-1)
REM options -cpp -mtune=generic -march=x86-64 -g -O0 -fpre-include=/usr/include/finclude/math-vector-fortran.h
REM seed -1725116549 -2085645616 573200457 205953729 -919841441 -1774513447 -1764833816 -9579459 -1483843833 -1190057986 1854655514 1164022146 1839308450 218751255 -1881121439 634144436 -1963063553 169992971 -2059484801 1050537724 2101834044 -599797927 1458340291 300531197 1842690574 -903177371 -1430307548 487820710 1523377585 -1899767742 -241786202 -1610599192 -987699558
REM
CELL 1.54180   50.00000   50.00000   50.00000   90.00000   90.00000   90.00000
LATT -1
SFAC C  
C      1  0.5366640000000  0.4756750000000  0.5073670000000 1.0
C      1  0.4633360000000  0.5243250000000  0.5073670000000 1.0
C      1  0.4633360000000  0.4756750000000  0.4926330000000 1.0
C      1  0.5366640000000  0.5243250000000  0.4926330000000 1.0
C      1  0.4292970000000  0.5516510000000  0.5225260000000 1.0
C      1  0.5707030000000  0.4483490000000  0.5225260000000 1.0
C      1  0.5707030000000  0.5516510000000  0.4774740000000 1.0
C      1  0.4292970000000  0.4483490000000  0.4774740000000 1.0
C      1  0.4561230000000  0.5519400000000  0.4764580000000 1.0
C      1  0.5438770000000  0.4480600000000  0.4764580000000 1.0
C      1  0.5438770000000  0.5519400000000  0.5235420000000 1.0
C      1  0.4561230000000  0.4480600000000  0.5235420000000 1.0
C      1  0.5299460000000  0.4539080000000  0.5533020000000 1.0
C      1  0.4700540000000  0.5460920000000  0.5533020000000 1.0
C      1  0.4700540000000  0.4539080000000  0.4466980000000 1.0
C      1  0.5299460000000  0.5460920000000  0.4466980000000 1.0
C      1  0.4738760000000  0.5663780000000  0.5047160000000 1.0
C      1  0.5261240000000  0.4336220000000  0.5047160000000 1.0
C      1  0.5261240000000  0.5663780000000  0.4952840000000 1.0
C      1  0.4738760000000  0.4336220000000  0.4952840000000 1.0
C      1  0.5138340000000  0.4555360000000  0.4590580000000 1.0
C      1  0.4861660000000  0.5444640000000  0.4590580000000 1.0
C      1  0.4861660000000  0.4555360000000  0.5409420000000 1.0
C      1  0.5138340000000  0.5444640000000  0.5409420000000 1.0
C      1  0.4256870000000  0.5107260000000  0.4887630000000 1.0
C      1  0.5743130000000  0.4892740000000  0.4887630000000 1.0
C      1  0.5743130000000  0.5107260000000  0.5112370000000 1.0
C      1  0.4256870000000  0.4892740000000  0.5112370000000 1.0
C      1  0.4783210000000  0.5213160000000  0.5654700000000 1.0
C      1  0.5216790000000  0.4786840000000  0.5654700000000 1.0
C      1  0.5216790000000  0.5213160000000  0.4345300000000 1.0
C      1  0.4783210000000  0.4786840000000  0.4345300000000 1.0
C      1  0.5516610000000  0.4795160000000  0.4667770000000 1.0
C      1  0.4483390000000  0.5204840000000  0.4667770000000 1.0
C      1  0.4483390000000  0.4795160000000  0.5332230000000 1.0
C      1  0.5516610000000  0.5204840000000  0.5332230000000 1.0
C      1  0.5121850000000  0.5197660000000  0.5070340000000 1.0
C      1  0.4878150000000  0.4802340000000  0.5070340000000 1.0
C      1  0.4878150000000  0.5197660000000  0.4929660000000 1.0
C      1  0.5121850000000  0.4802340000000  0.4929660000000 1.0
C      1  0.4927700000000  0.5160570000000  0.4219570000000 1.0
C      1  0.5072300000000  0.4839430000000  0.4219570000000 1.0
C      1  0.5072300000000  0.5160570000000  0.5780430000000 1.0
C      1  0.4927700000000  0.4839430000000  0.5780430000000 1.0
C      1  0.5038440000000  0.4344650000000  0.4794220000000 1.0
C      1  0.4961560000000  0.5655350000000  0.4794220000000 1.0
C      1  0.4961560000000  0.4344650000000  0.5205780000000 1.0
C      1  0.5038440000000  0.5655350000000  0.5205780000000 1.0
C      1  0.4652230000000  0.4938280000000  0.5568950000000 1.0
C      1  0.5347770000000  0.5061720000000  0.5568950000000 1.0
C      1  0.5347770000000  0.4938280000000  0.4431050000000 1.0
C      1  0.4652230000000  0.5061720000000  0.4431050000000 1.0
C      1  0.4263000000000  0.5428850000000  0.4945510000000 1.0
C      1  0.5737000000000  0.4571150000000  0.4945510000000 1.0
C      1  0.5737000000000  0.5428850000000  0.5054490000000 1.0
C      1  0.4263000000000  0.4571150000000  0.5054490000000 1.0
C      1  0.4588080000000  0.5480730000000  0.5265080000000 1.0
C      1  0.5411920000000  0.4519270000000  0.5265080000000 1.0
C      1  0.5411920000000  0.5480730000000  0.4734920000000 1.0
C      1  0.4588080000000  0.4519270000000  0.4734920000000 1.0
C      1  0.5106420000000  0.4878300000000  0.4635700000000 1.0
C      1  0.4893580000000  0.5121700000000  0.4635700000000 1.0
C      1  0.4893580000000  0.4878300000000  0.5364300000000 1.0
C      1  0.5106420000000  0.5121700000000  0.5364300000000 1.0
END
