TITL C-862131-2149-1478 -0.00116111151247323 125000 -420.917092521499 0 0 83 (C1) n - 1
REM
REM in /home/nfs/bkarasulu/CARBON/AIRSS/Generating-Clusters/TERSOFF/Higher-Symm/FIRE-HFTN
REM
REM
REM
REM
REM
REM ./C.cell (b20cbc046b6831c77cfcea5457e17084)
REM AIRSS Version 0.9.1 bugfix July 2018 build 013d7b7c2542+ Fri, 06 Jul 2018 19:26:36 +0100
REM compiler GCC version 9.2.1 20190827 (Red Hat 9.2.1-1)
REM options -cpp -mtune=generic -march=x86-64 -g -O0 -fpre-include=/usr/include/finclude/math-vector-fortran.h
REM seed 716856272 -1929335327 262918732 458861177 -1066986463 399573111 -1582239187 843488380 1721328356 95257017 1748342220 2097668376 -198267955 196902254 -547114660 -1652746629 1347575961 -1437066584 -656812353 -724890886 93249400 595647759 -1445942981 -1695686995 -1624089557 -1392532723 790535312 -179327825 1816846143 1735187872 -964777988 -2067484254 1338999524
REM
CELL 1.54180   50.00000   50.00000   50.00000   90.00000   90.00000   90.00000
LATT -1
SFAC C  
C      1  0.4844390000000  0.4707680000000  0.4892670000000 1.0
C      1  0.4801320000000  0.5330190000000  0.4850390000000 1.0
C      1  0.5329910000000  0.5058300000000  0.4858340000000 1.0
C      1  0.4319610000000  0.4768020000000  0.4843020000000 1.0
C      1  0.5162870000000  0.5649990000000  0.4711570000000 1.0
C      1  0.5453660000000  0.4579600000000  0.4717640000000 1.0
C      1  0.5093600000000  0.4240150000000  0.4736760000000 1.0
C      1  0.4387100000000  0.5443820000000  0.4728930000000 1.0
C      1  0.5601620000000  0.5444600000000  0.4742730000000 1.0
C      1  0.4970490000000  0.5499480000000  0.5699560000000 1.0
C      1  0.5363080000000  0.4776390000000  0.5700450000000 1.0
C      1  0.4610670000000  0.4676940000000  0.5680970000000 1.0
C      1  0.5587730000000  0.4870980000000  0.4395850000000 1.0
C      1  0.4532980000000  0.4562760000000  0.4497250000000 1.0
C      1  0.4812420000000  0.5603280000000  0.4408690000000 1.0
C      1  0.4544390000000  0.4562620000000  0.4806300000000 1.0
C      1  0.4873100000000  0.5617850000000  0.4712770000000 1.0
C      1  0.5571490000000  0.4847820000000  0.4707680000000 1.0
C      1  0.4394410000000  0.4823370000000  0.4433900000000 1.0
C      1  0.5094390000000  0.5590200000000  0.4301700000000 1.0
C      1  0.5431660000000  0.4628800000000  0.4301370000000 1.0
C      1  0.4532020000000  0.5313320000000  0.5441270000000 1.0
C      1  0.5390870000000  0.5204970000000  0.5469240000000 1.0
C      1  0.4964040000000  0.4501390000000  0.5470470000000 1.0
C      1  0.5260800000000  0.5413850000000  0.5129490000000 1.0
C      1  0.5199400000000  0.4561620000000  0.5128210000000 1.0
C      1  0.4407540000000  0.5127690000000  0.5038980000000 1.0
C      1  0.5065560000000  0.5246690000000  0.5579770000000 1.0
C      1  0.5094890000000  0.4769870000000  0.5575100000000 1.0
C      1  0.4580440000000  0.4959940000000  0.5515150000000 1.0
C      1  0.5495990000000  0.4388600000000  0.5369110000000 1.0
C      1  0.4360810000000  0.4722430000000  0.5346470000000 1.0
C      1  0.5324260000000  0.5754030000000  0.5366370000000 1.0
C      1  0.5450480000000  0.5120100000000  0.4339820000000 1.0
C      1  0.4804690000000  0.4551450000000  0.4393850000000 1.0
C      1  0.4633330000000  0.5371960000000  0.4328520000000 1.0
C      1  0.5030660000000  0.5284880000000  0.5269440000000 1.0
C      1  0.5152900000000  0.4817900000000  0.5270060000000 1.0
C      1  0.4649570000000  0.4990510000000  0.5202370000000 1.0
C      1  0.5333330000000  0.5488130000000  0.4504380000000 1.0
C      1  0.5222030000000  0.4495130000000  0.4516070000000 1.0
C      1  0.4383540000000  0.5084780000000  0.4678470000000 1.0
C      1  0.4985530000000  0.4312260000000  0.4332000000000 1.0
C      1  0.4355200000000  0.5235880000000  0.4365900000000 1.0
C      1  0.5576550000000  0.5392770000000  0.4276300000000 1.0
C      1  0.4585870000000  0.4317090000000  0.5012280000000 1.0
C      1  0.4758640000000  0.5751790000000  0.4988610000000 1.0
C      1  0.5706630000000  0.4930780000000  0.5001410000000 1.0
C      1  0.5603890000000  0.4824640000000  0.5547370000000 1.0
C      1  0.4563170000000  0.4415940000000  0.5561210000000 1.0
C      1  0.4862320000000  0.5714130000000  0.5539530000000 1.0
C      1  0.4464800000000  0.5588860000000  0.4983750000000 1.0
C      1  0.5644510000000  0.5285320000000  0.5018200000000 1.0
C      1  0.4940110000000  0.4252610000000  0.5012800000000 1.0
C      1  0.5646610000000  0.4703590000000  0.5275890000000 1.0
C      1  0.4432530000000  0.4400060000000  0.5288970000000 1.0
C      1  0.4977220000000  0.5784970000000  0.5273630000000 1.0
C      1  0.5423660000000  0.4497000000000  0.4970160000000 1.0
C      1  0.4242930000000  0.4863100000000  0.5120450000000 1.0
C      1  0.5254130000000  0.5648140000000  0.4966310000000 1.0
C      1  0.4714930000000  0.5176920000000  0.4574350000000 1.0
C      1  0.5230670000000  0.5162510000000  0.4551550000000 1.0
C      1  0.4972120000000  0.4730560000000  0.4575380000000 1.0
C      1  0.4348810000000  0.5391550000000  0.5189590000000 1.0
C      1  0.5512490000000  0.5450060000000  0.5310840000000 1.0
C      1  0.5148580000000  0.4309520000000  0.5302960000000 1.0
C      1  0.5359330000000  0.5015410000000  0.5217220000000 1.0
C      1  0.4795500000000  0.4601450000000  0.5234360000000 1.0
C      1  0.4767500000000  0.5393410000000  0.5204230000000 1.0
C      1  0.5084130000000  0.4974240000000  0.6159870000000 1.0
C      1  0.4868110000000  0.4985510000000  0.5967550000000 1.0
C      1  0.4995540000000  0.5034700000000  0.4874960000000 1.0
C      1  0.5152080000000  0.5087200000000  0.3491300000000 1.0
C      1  0.4943190000000  0.5014660000000  0.5161350000000 1.0
C      1  0.4954150000000  0.5010740000000  0.4159620000000 1.0
C      1  0.5178200000000  0.4952950000000  0.3985720000000 1.0
C      1  0.5133370000000  0.5069060000000  0.6661610000000 1.0
C      1  0.5047920000000  0.5030440000000  0.6935440000000 1.0
C      1  0.4967640000000  0.5019180000000  0.4457240000000 1.0
C      1  0.5053490000000  0.4902680000000  0.6438650000000 1.0
C      1  0.5071910000000  0.5033390000000  0.3218440000000 1.0
C      1  0.5156740000000  0.4890790000000  0.3703850000000 1.0
C      1  0.4903870000000  0.4990420000000  0.5671890000000 1.0
END
