TITL C-862134-6730-358 -1380299.49799679 125000 -1111.39265935429 0 0 189 (C1) n - 1
REM
REM in /home/nfs/bkarasulu/CARBON/AIRSS/Generating-Clusters/TERSOFF/Higher-Symm/FIRE-HFTN
REM
REM
REM
REM
REM
REM ./C.cell (b20cbc046b6831c77cfcea5457e17084)
REM AIRSS Version 0.9.1 bugfix July 2018 build 013d7b7c2542+ Fri, 06 Jul 2018 19:26:36 +0100
REM compiler GCC version 9.2.1 20190827 (Red Hat 9.2.1-1)
REM options -cpp -mtune=generic -march=x86-64 -g -O0 -fpre-include=/usr/include/finclude/math-vector-fortran.h
REM seed -1556175277 -581717396 -154356518 202061185 697095785 1410278258 -568044194 1500461163 66016585 1429551137 31494597 -502534482 1850585735 1437292723 -354522775 -392225759 720216726 -892561311 484632224 1740858602 -1548811462 927620190 1219506817 -440928402 -1096388191 43604830 1262473333 -1897653035 -1131841022 -165185794 -375234527 1489403912 157955642
REM
CELL 1.54180   50.00000   50.00000   50.00000   90.00000   90.00000   90.00000
LATT -1
SFAC C  
C      1  0.4917530000000  0.4077620000000  0.4965110000000 1.0
C      1  0.4888510000000  0.5481760000000  0.4148360000000 1.0
C      1  0.4888870000000  0.5468600000000  0.5832800000000 1.0
C      1  0.4621350000000  0.5505270000000  0.5945930000000 1.0
C      1  0.4655030000000  0.3951580000000  0.4937980000000 1.0
C      1  0.4621210000000  0.5560870000000  0.4059300000000 1.0
C      1  0.4767450000000  0.4611470000000  0.4807780000000 1.0
C      1  0.4731300000000  0.5390030000000  0.4696560000000 1.0
C      1  0.4752350000000  0.5059620000000  0.5447850000000 1.0
C      1  0.6358860000000  0.4222960000000  0.4504860000000 1.0
C      1  0.6178620000000  0.5733950000000  0.4800560000000 1.0
C      1  0.6329870000000  0.4914960000000  0.5809420000000 1.0
C      1  0.5598470000000  0.4518480000000  0.4280450000000 1.0
C      1  0.5619350000000  0.5972730000000  0.5000110000000 1.0
C      1  0.5648340000000  0.4482420000000  0.5819580000000 1.0
C      1  0.4532000000000  0.5219040000000  0.4916290000000 1.0
C      1  0.4537260000000  0.4980480000000  0.5187500000000 1.0
C      1  0.4536110000000  0.4873390000000  0.4842950000000 1.0
C      1  0.5696940000000  0.6088130000000  0.4391070000000 1.0
C      1  0.5709660000000  0.4942860000000  0.6209840000000 1.0
C      1  0.5693810000000  0.3965910000000  0.4330760000000 1.0
C      1  0.4149170000000  0.5974370000000  0.5276680000000 1.0
C      1  0.4165820000000  0.4268130000000  0.5667240000000 1.0
C      1  0.4132420000000  0.4768540000000  0.4019050000000 1.0
C      1  0.4014080000000  0.4746980000000  0.4286250000000 1.0
C      1  0.4032570000000  0.5757060000000  0.5120220000000 1.0
C      1  0.4054300000000  0.4515750000000  0.5558580000000 1.0
C      1  0.5760880000000  0.4886560000000  0.4160680000000 1.0
C      1  0.5758170000000  0.5835980000000  0.5371910000000 1.0
C      1  0.5776210000000  0.4289650000000  0.5469500000000 1.0
C      1  0.5119920000000  0.5998130000000  0.5477650000000 1.0
C      1  0.5138270000000  0.4071110000000  0.5608070000000 1.0
C      1  0.5118350000000  0.4860740000000  0.3970640000000 1.0
C      1  0.5730140000000  0.5564510000000  0.5772850000000 1.0
C      1  0.5738730000000  0.3984290000000  0.5094750000000 1.0
C      1  0.5711670000000  0.5365000000000  0.4154050000000 1.0
C      1  0.4484780000000  0.5727830000000  0.5761230000000 1.0
C      1  0.4514270000000  0.3981270000000  0.5224040000000 1.0
C      1  0.4482610000000  0.5291820000000  0.3957580000000 1.0
C      1  0.5578050000000  0.3865510000000  0.4872990000000 1.0
C      1  0.5585620000000  0.5625020000000  0.4090380000000 1.0
C      1  0.5600370000000  0.5449040000000  0.6013680000000 1.0
C      1  0.6090990000000  0.4116920000000  0.4477040000000 1.0
C      1  0.6054760000000  0.5845330000000  0.4566460000000 1.0
C      1  0.6077640000000  0.4963030000000  0.5942940000000 1.0
C      1  0.4536720000000  0.4284520000000  0.5232690000000 1.0
C      1  0.4484230000000  0.5167030000000  0.4234680000000 1.0
C      1  0.4506330000000  0.5574170000000  0.5500550000000 1.0
C      1  0.4286170000000  0.5432250000000  0.5395430000000 1.0
C      1  0.4323220000000  0.4448300000000  0.5148040000000 1.0
C      1  0.4254620000000  0.5159030000000  0.4397930000000 1.0
C      1  0.4938670000000  0.5205470000000  0.5725740000000 1.0
C      1  0.4968850000000  0.4311080000000  0.4799170000000 1.0
C      1  0.4928540000000  0.5536560000000  0.4427780000000 1.0
C      1  0.4795970000000  0.5740010000000  0.5100390000000 1.0
C      1  0.4822820000000  0.4528070000000  0.5595530000000 1.0
C      1  0.4738920000000  0.4736860000000  0.4351270000000 1.0
C      1  0.4551660000000  0.4120240000000  0.4701790000000 1.0
C      1  0.4513370000000  0.5701780000000  0.4322940000000 1.0
C      1  0.4528490000000  0.5204650000000  0.5918290000000 1.0
C      1  0.4800830000000  0.4385410000000  0.5333880000000 1.0
C      1  0.4735610000000  0.5031680000000  0.4302970000000 1.0
C      1  0.4771170000000  0.5601350000000  0.5365040000000 1.0
C      1  0.4452580000000  0.4231350000000  0.5708900000000 1.0
C      1  0.4420770000000  0.4744140000000  0.3982420000000 1.0
C      1  0.4437980000000  0.6012990000000  0.5290230000000 1.0
C      1  0.3911680000000  0.5811320000000  0.4861180000000 1.0
C      1  0.3928750000000  0.4709000000000  0.5735660000000 1.0
C      1  0.3913750000000  0.4490550000000  0.4378880000000 1.0
C      1  0.4938990000000  0.4032470000000  0.4379040000000 1.0
C      1  0.4904660000000  0.6038710000000  0.4419670000000 1.0
C      1  0.4923570000000  0.4963780000000  0.6154400000000 1.0
C      1  0.5943820000000  0.4772390000000  0.6122630000000 1.0
C      1  0.5929280000000  0.4129720000000  0.4229710000000 1.0
C      1  0.5914360000000  0.6100810000000  0.4594930000000 1.0
C      1  0.5419740000000  0.6134680000000  0.5119950000000 1.0
C      1  0.5454780000000  0.4293630000000  0.5905270000000 1.0
C      1  0.5373910000000  0.4463690000000  0.4115560000000 1.0
C      1  0.5216460000000  0.5470580000000  0.4532400000000 1.0
C      1  0.5237650000000  0.5185860000000  0.5610440000000 1.0
C      1  0.5267220000000  0.4408770000000  0.4854860000000 1.0
C      1  0.5339190000000  0.5446960000000  0.5460810000000 1.0
C      1  0.5367540000000  0.4377480000000  0.5156540000000 1.0
C      1  0.5323590000000  0.5182910000000  0.4425070000000 1.0
C      1  0.3602850000000  0.4416440000000  0.4955880000000 1.0
C      1  0.3584310000000  0.5333830000000  0.4505960000000 1.0
C      1  0.3598010000000  0.5262440000000  0.5524220000000 1.0
C      1  0.5854470000000  0.5680850000000  0.4434010000000 1.0
C      1  0.5866350000000  0.5134610000000  0.5841400000000 1.0
C      1  0.5886400000000  0.4123970000000  0.4685610000000 1.0
C      1  0.3591100000000  0.5170650000000  0.4748500000000 1.0
C      1  0.3590930000000  0.5134850000000  0.5261850000000 1.0
C      1  0.3597510000000  0.4708010000000  0.4975080000000 1.0
C      1  0.5264570000000  0.4858360000000  0.5211120000000 1.0
C      1  0.5274970000000  0.4964320000000  0.4919080000000 1.0
C      1  0.5222520000000  0.5267980000000  0.4989670000000 1.0
C      1  0.5595090000000  0.5750080000000  0.5598640000000 1.0
C      1  0.5610870000000  0.4085780000000  0.5335560000000 1.0
C      1  0.5586230000000  0.5114010000000  0.4099640000000 1.0
C      1  0.5143780000000  0.3597040000000  0.4924240000000 1.0
C      1  0.5190940000000  0.5731790000000  0.3780300000000 1.0
C      1  0.5202750000000  0.5653260000000  0.6265450000000 1.0
C      1  0.3593340000000  0.4843950000000  0.5233690000000 1.0
C      1  0.3596680000000  0.4878050000000  0.4736710000000 1.0
C      1  0.3588380000000  0.5291580000000  0.5014880000000 1.0
C      1  0.4508940000000  0.6015110000000  0.4758090000000 1.0
C      1  0.4521850000000  0.4680880000000  0.5990530000000 1.0
C      1  0.4525940000000  0.4286290000000  0.4214710000000 1.0
C      1  0.5595750000000  0.4656370000000  0.5565390000000 1.0
C      1  0.5580040000000  0.4715960000000  0.4525440000000 1.0
C      1  0.5608380000000  0.5650540000000  0.5026190000000 1.0
C      1  0.4139150000000  0.4920310000000  0.4492430000000 1.0
C      1  0.4160230000000  0.5492020000000  0.5151130000000 1.0
C      1  0.4182370000000  0.4625010000000  0.5314410000000 1.0
C      1  0.5898180000000  0.5225350000000  0.4633910000000 1.0
C      1  0.5951630000000  0.5287640000000  0.5378520000000 1.0
C      1  0.6000960000000  0.4432810000000  0.5051100000000 1.0
C      1  0.5104680000000  0.5001350000000  0.5400220000000 1.0
C      1  0.5116930000000  0.4702540000000  0.4817040000000 1.0
C      1  0.5070140000000  0.5416590000000  0.4802880000000 1.0
C      1  0.4970440000000  0.5625420000000  0.5600310000000 1.0
C      1  0.4997820000000  0.4174580000000  0.5226040000000 1.0
C      1  0.4957610000000  0.5195760000000  0.4166000000000 1.0
C      1  0.5267420000000  0.5741170000000  0.5581860000000 1.0
C      1  0.5286760000000  0.4115600000000  0.5336190000000 1.0
C      1  0.5261350000000  0.5095970000000  0.4120460000000 1.0
C      1  0.4865340000000  0.6098350000000  0.5605490000000 1.0
C      1  0.4881560000000  0.3913630000000  0.5627600000000 1.0
C      1  0.4879130000000  0.4923680000000  0.3787660000000 1.0
C      1  0.4579070000000  0.5921070000000  0.5041410000000 1.0
C      1  0.4597620000000  0.4487050000000  0.5769220000000 1.0
C      1  0.4549010000000  0.4584580000000  0.4194090000000 1.0
C      1  0.5851740000000  0.4408820000000  0.4188500000000 1.0
C      1  0.5839550000000  0.6120790000000  0.4875000000000 1.0
C      1  0.5880800000000  0.4523390000000  0.5990070000000 1.0
C      1  0.5431100000000  0.3616990000000  0.4895510000000 1.0
C      1  0.5473150000000  0.5693970000000  0.3832610000000 1.0
C      1  0.5485880000000  0.5605790000000  0.6228430000000 1.0
C      1  0.3778660000000  0.5188940000000  0.5739260000000 1.0
C      1  0.3803380000000  0.4263510000000  0.4811880000000 1.0
C      1  0.3759590000000  0.5559870000000  0.4452960000000 1.0
C      1  0.5587430000000  0.4037770000000  0.4615320000000 1.0
C      1  0.5579130000000  0.5808120000000  0.4338250000000 1.0
C      1  0.5595500000000  0.5142000000000  0.6001600000000 1.0
C      1  0.5406620000000  0.4961560000000  0.4618440000000 1.0
C      1  0.5404250000000  0.5435750000000  0.5165970000000 1.0
C      1  0.5420640000000  0.4629440000000  0.5303290000000 1.0
C      1  0.4662120000000  0.4115980000000  0.4422820000000 1.0
C      1  0.4641220000000  0.5931920000000  0.4491390000000 1.0
C      1  0.4652170000000  0.4953390000000  0.6044530000000 1.0
C      1  0.4502340000000  0.4393890000000  0.4772120000000 1.0
C      1  0.4468070000000  0.5506180000000  0.4531910000000 1.0
C      1  0.4485010000000  0.5135610000000  0.5642740000000 1.0
C      1  0.5946720000000  0.4160590000000  0.4962200000000 1.0
C      1  0.5889590000000  0.5397620000000  0.4395470000000 1.0
C      1  0.5913650000000  0.5351720000000  0.5659660000000 1.0
C      1  0.4223360000000  0.5048520000000  0.5549810000000 1.0
C      1  0.4236940000000  0.4509950000000  0.4742670000000 1.0
C      1  0.4209120000000  0.5478620000000  0.4664300000000 1.0
C      1  0.5163960000000  0.4873690000000  0.6014290000000 1.0
C      1  0.5169670000000  0.4211770000000  0.4382420000000 1.0
C      1  0.5153490000000  0.5978370000000  0.4561000000000 1.0
C      1  0.5910180000000  0.5324420000000  0.4914550000000 1.0
C      1  0.5985500000000  0.5015700000000  0.5271820000000 1.0
C      1  0.6062510000000  0.4644980000000  0.4852820000000 1.0
C      1  0.5070810000000  0.4527870000000  0.5731540000000 1.0
C      1  0.4988350000000  0.4609690000000  0.4361380000000 1.0
C      1  0.5047290000000  0.5845680000000  0.5028640000000 1.0
C      1  0.4589220000000  0.5980620000000  0.5565050000000 1.0
C      1  0.4607920000000  0.4010970000000  0.5543000000000 1.0
C      1  0.4589090000000  0.4977870000000  0.3874750000000 1.0
C      1  0.4000350000000  0.4377910000000  0.4632300000000 1.0
C      1  0.3973540000000  0.5647880000000  0.4628460000000 1.0
C      1  0.3990580000000  0.4992020000000  0.5716560000000 1.0
C      1  0.5138370000000  0.4612210000000  0.4121630000000 1.0
C      1  0.5171290000000  0.6037060000000  0.5197760000000 1.0
C      1  0.5197690000000  0.4281250000000  0.5795250000000 1.0
C      1  0.4259230000000  0.5355670000000  0.4916130000000 1.0
C      1  0.4267580000000  0.4901910000000  0.5310340000000 1.0
C      1  0.4262840000000  0.4791950000000  0.4726000000000 1.0
C      1  0.5990170000000  0.4635040000000  0.4565680000000 1.0
C      1  0.6032490000000  0.5581420000000  0.4998340000000 1.0
C      1  0.5978010000000  0.4768970000000  0.5432730000000 1.0
C      1  0.5996780000000  0.5691450000000  0.5272360000000 1.0
C      1  0.5929380000000  0.4498420000000  0.5324370000000 1.0
C      1  0.5946590000000  0.4872770000000  0.4393280000000 1.0
C      1  0.5332240000000  0.5754710000000  0.4497090000000 1.0
C      1  0.5347570000000  0.5049020000000  0.5867100000000 1.0
C      1  0.5360120000000  0.4235610000000  0.4604670000000 1.0
END
