TITL C-862128-1543-1217 0.14312307101281 125000 -757.100929821188 0 0 128 (C2) n - 1
REM
REM in /home/nfs/bkarasulu/CARBON/AIRSS/Generating-Clusters/TERSOFF/Higher-Symm/FIRE-HFTN
REM
REM
REM
REM
REM
REM ./C.cell (b20cbc046b6831c77cfcea5457e17084)
REM AIRSS Version 0.9.1 bugfix July 2018 build 013d7b7c2542+ Fri, 06 Jul 2018 19:26:36 +0100
REM compiler GCC version 9.2.1 20190827 (Red Hat 9.2.1-1)
REM options -cpp -mtune=generic -march=x86-64 -g -O0 -fpre-include=/usr/include/finclude/math-vector-fortran.h
REM seed 1461167124 -1120740107 -1466806150 -1457632787 -1020418410 -53359677 734267174 -219225147 1316543246 865251006 1442130298 262876981 -964996333 -509408239 1133621773 984434924 700969067 1875058443 500623476 -461805620 -216743891 1003578976 1445998113 1940141444 -656126646 -547592381 -1065836612 1985410618 -565252274 1526580067 -704750179 -1274322260 -1719502509
REM
CELL 1.54180   50.00000   50.00000   50.00000   90.00000   90.00000   90.00000
LATT -1
SFAC C  
C      1  0.4417070000000  0.4646710000000  0.5997180000000 1.0
C      1  0.3894930000000  0.5348040000000  0.5308550000000 1.0
C      1  0.4069070000000  0.4712190000000  0.4456280000000 1.0
C      1  0.4718910000000  0.5308920000000  0.3887230000000 1.0
C      1  0.5582940000000  0.4646600000000  0.4002870000000 1.0
C      1  0.6105060000000  0.5348040000000  0.4691410000000 1.0
C      1  0.5930940000000  0.4712290000000  0.5543760000000 1.0
C      1  0.5281080000000  0.5309070000000  0.6112730000000 1.0
C      1  0.5637990000000  0.5468630000000  0.4595350000000 1.0
C      1  0.5711170000000  0.4553150000000  0.5121130000000 1.0
C      1  0.5177510000000  0.5543090000000  0.5697250000000 1.0
C      1  0.4770380000000  0.4517030000000  0.5683460000000 1.0
C      1  0.4361990000000  0.5468660000000  0.5404590000000 1.0
C      1  0.4288850000000  0.4553110000000  0.4878920000000 1.0
C      1  0.4822470000000  0.5542990000000  0.4302680000000 1.0
C      1  0.5229630000000  0.4516950000000  0.4316610000000 1.0
C      1  0.4616360000000  0.4857280000000  0.5128630000000 1.0
C      1  0.4887580000000  0.5130120000000  0.4579590000000 1.0
C      1  0.4999310000000  0.4866710000000  0.4591280000000 1.0
C      1  0.5316250000000  0.5107380000000  0.4725040000000 1.0
C      1  0.5383640000000  0.4857270000000  0.4871390000000 1.0
C      1  0.5112420000000  0.5130180000000  0.5420390000000 1.0
C      1  0.5000700000000  0.4866760000000  0.5408740000000 1.0
C      1  0.4683740000000  0.5107400000000  0.5274940000000 1.0
C      1  0.4092290000000  0.5493290000000  0.5482040000000 1.0
C      1  0.4058200000000  0.4552120000000  0.4715630000000 1.0
C      1  0.4631870000000  0.5515530000000  0.4091990000000 1.0
C      1  0.5331760000000  0.4482870000000  0.4056070000000 1.0
C      1  0.5907700000000  0.5493250000000  0.4517890000000 1.0
C      1  0.5941820000000  0.4552180000000  0.5284430000000 1.0
C      1  0.5368120000000  0.5515660000000  0.5907950000000 1.0
C      1  0.4668260000000  0.4482980000000  0.5943990000000 1.0
C      1  0.4469670000000  0.4320730000000  0.4893030000000 1.0
C      1  0.4773090000000  0.5702880000000  0.4543200000000 1.0
C      1  0.5102940000000  0.4298720000000  0.4470040000000 1.0
C      1  0.5506540000000  0.5656710000000  0.4779080000000 1.0
C      1  0.5530350000000  0.4320760000000  0.5107060000000 1.0
C      1  0.5226890000000  0.5702950000000  0.5456710000000 1.0
C      1  0.4897080000000  0.4298790000000  0.5530050000000 1.0
C      1  0.4493440000000  0.5656720000000  0.5220830000000 1.0
C      1  0.4851420000000  0.4602440000000  0.3924100000000 1.0
C      1  0.5737710000000  0.5349260000000  0.4055700000000 1.0
C      1  0.6165240000000  0.4657240000000  0.4842380000000 1.0
C      1  0.5741020000000  0.5434070000000  0.5555560000000 1.0
C      1  0.5148590000000  0.4602590000000  0.6075960000000 1.0
C      1  0.4262280000000  0.5349350000000  0.5944260000000 1.0
C      1  0.3834770000000  0.4657220000000  0.5157660000000 1.0
C      1  0.4258960000000  0.5433970000000  0.4444380000000 1.0
C      1  0.4020840000000  0.5161540000000  0.4824790000000 1.0
C      1  0.4584970000000  0.4839370000000  0.4332370000000 1.0
C      1  0.5223630000000  0.5176200000000  0.4057990000000 1.0
C      1  0.5768990000000  0.4797560000000  0.4495830000000 1.0
C      1  0.5979150000000  0.5161590000000  0.5175190000000 1.0
C      1  0.5415040000000  0.4839470000000  0.5667650000000 1.0
C      1  0.4776360000000  0.5176320000000  0.5941990000000 1.0
C      1  0.4231020000000  0.4797600000000  0.5504200000000 1.0
C      1  0.4223380000000  0.5174120000000  0.4581860000000 1.0
C      1  0.4785700000000  0.4846990000000  0.4080580000000 1.0
C      1  0.5541080000000  0.5135800000000  0.4127940000000 1.0
C      1  0.5979750000000  0.4863490000000  0.4733060000000 1.0
C      1  0.5776610000000  0.5174200000000  0.5418120000000 1.0
C      1  0.5214300000000  0.4847120000000  0.5919440000000 1.0
C      1  0.4458910000000  0.5135900000000  0.5872040000000 1.0
C      1  0.4020250000000  0.4863490000000  0.5266960000000 1.0
C      1  0.4355480000000  0.4800330000000  0.5022250000000 1.0
C      1  0.4961280000000  0.5299540000000  0.4359550000000 1.0
C      1  0.5202940000000  0.4786780000000  0.4410450000000 1.0
C      1  0.5505020000000  0.5218660000000  0.4541300000000 1.0
C      1  0.5644530000000  0.4800340000000  0.4977770000000 1.0
C      1  0.5038710000000  0.5299620000000  0.5640410000000 1.0
C      1  0.4797060000000  0.4786840000000  0.5589570000000 1.0
C      1  0.4494970000000  0.5218700000000  0.5458670000000 1.0
C      1  0.5366020000000  0.5536190000000  0.5254540000000 1.0
C      1  0.5140510000000  0.4405200000000  0.5397470000000 1.0
C      1  0.4778110000000  0.5601150000000  0.5239830000000 1.0
C      1  0.4662260000000  0.4374610000000  0.5103990000000 1.0
C      1  0.4633960000000  0.5536150000000  0.4745390000000 1.0
C      1  0.4859510000000  0.4405140000000  0.4602610000000 1.0
C      1  0.5221870000000  0.5601130000000  0.4760100000000 1.0
C      1  0.5337760000000  0.4374610000000  0.4896090000000 1.0
C      1  0.5960020000000  0.5439740000000  0.4228630000000 1.0
C      1  0.6193880000000  0.4592240000000  0.5131210000000 1.0
C      1  0.5657300000000  0.5466250000000  0.5835540000000 1.0
C      1  0.4874250000000  0.4522810000000  0.6158440000000 1.0
C      1  0.4039970000000  0.5439810000000  0.5771320000000 1.0
C      1  0.3806130000000  0.4592190000000  0.4868840000000 1.0
C      1  0.4342690000000  0.5466120000000  0.4164400000000 1.0
C      1  0.5125770000000  0.4522670000000  0.3841630000000 1.0
C      1  0.4804730000000  0.4637940000000  0.5076470000000 1.0
C      1  0.4806730000000  0.5296730000000  0.4830420000000 1.0
C      1  0.4913000000000  0.4647200000000  0.4771160000000 1.0
C      1  0.5146260000000  0.5319770000000  0.4850280000000 1.0
C      1  0.5195280000000  0.4637930000000  0.4923580000000 1.0
C      1  0.5193260000000  0.5296760000000  0.5169550000000 1.0
C      1  0.5087010000000  0.4647230000000  0.5228880000000 1.0
C      1  0.4853730000000  0.5319790000000  0.5149670000000 1.0
C      1  0.4724980000000  0.4652990000000  0.6383590000000 1.0
C      1  0.3763460000000  0.5324660000000  0.5782690000000 1.0
C      1  0.3625000000000  0.4737530000000  0.4679230000000 1.0
C      1  0.4231900000000  0.5300390000000  0.3940720000000 1.0
C      1  0.5275040000000  0.4652820000000  0.3616450000000 1.0
C      1  0.6236520000000  0.5324600000000  0.4217270000000 1.0
C      1  0.6375010000000  0.4737610000000  0.5320800000000 1.0
C      1  0.5768090000000  0.5300550000000  0.6059240000000 1.0
C      1  0.4616890000000  0.4254480000000  0.4649560000000 1.0
C      1  0.5027660000000  0.5791110000000  0.4656330000000 1.0
C      1  0.5283020000000  0.4198050000000  0.4675210000000 1.0
C      1  0.5563070000000  0.5648260000000  0.5067730000000 1.0
C      1  0.5383140000000  0.4254540000000  0.5350530000000 1.0
C      1  0.4972310000000  0.5791150000000  0.5343570000000 1.0
C      1  0.4717000000000  0.4198090000000  0.5324890000000 1.0
C      1  0.4436910000000  0.5648230000000  0.4932190000000 1.0
C      1  0.5647400000000  0.4864120000000  0.4202200000000 1.0
C      1  0.5992420000000  0.5132150000000  0.4863230000000 1.0
C      1  0.5712290000000  0.4916920000000  0.5569730000000 1.0
C      1  0.5088970000000  0.5103310000000  0.6008090000000 1.0
C      1  0.4352600000000  0.4864200000000  0.5797820000000 1.0
C      1  0.4007580000000  0.5132130000000  0.5136750000000 1.0
C      1  0.4287710000000  0.4916830000000  0.4430280000000 1.0
C      1  0.4911020000000  0.5103170000000  0.3991890000000 1.0
C      1  0.6221190000000  0.4797520000000  0.5568840000000 1.0
C      1  0.5541940000000  0.5215030000000  0.6231430000000 1.0
C      1  0.4450340000000  0.4717380000000  0.6289470000000 1.0
C      1  0.3673040000000  0.5280500000000  0.5502460000000 1.0
C      1  0.3778820000000  0.4797410000000  0.4431180000000 1.0
C      1  0.4458050000000  0.5214850000000  0.3768540000000 1.0
C      1  0.5549670000000  0.4717230000000  0.3710570000000 1.0
C      1  0.6326950000000  0.5280480000000  0.4497500000000 1.0
END
