TITL C-862133-5440-636 0.000360457556696826 125000 -563.323121359487 0 0 105 (Ci) n - 1
REM
REM in /home/nfs/bkarasulu/CARBON/AIRSS/Generating-Clusters/TERSOFF/Higher-Symm/FIRE-HFTN
REM
REM
REM
REM
REM
REM ./C.cell (b20cbc046b6831c77cfcea5457e17084)
REM AIRSS Version 0.9.1 bugfix July 2018 build 013d7b7c2542+ Fri, 06 Jul 2018 19:26:36 +0100
REM compiler GCC version 9.2.1 20190827 (Red Hat 9.2.1-1)
REM options -cpp -mtune=generic -march=x86-64 -g -O0 -fpre-include=/usr/include/finclude/math-vector-fortran.h
REM seed 569823078 -293776033 706395107 1667356711 976253076 -1596781774 304403507 -286839289 1758333752 1174883466 -1920002061 1819976719 -991903931 743983384 -184039473 32519157 -1997359177 558521224 152921880 -1489173702 212681106 460407217 -1598324075 -1557702855 1584558872 6010610 -523788766 -744763536 -230976410 1161857317 -1556129776 1691961844 -1150979341
REM
CELL 1.54180   50.00000   50.00000   50.00000   90.00000   90.00000   90.00000
LATT -1
SFAC C  
C      1  0.5343480000000  0.4515000000000  0.5146060000000 1.0
C      1  0.4652390000000  0.5476930000000  0.4860630000000 1.0
C      1  0.4627120000000  0.4728500000000  0.5139520000000 1.0
C      1  0.5368750000000  0.5263430000000  0.4867170000000 1.0
C      1  0.4777080000000  0.5443560000000  0.4186900000000 1.0
C      1  0.5218790000000  0.4548370000000  0.5819800000000 1.0
C      1  0.5660820000000  0.5367060000000  0.5335590000000 1.0
C      1  0.4335050000000  0.4624860000000  0.4671110000000 1.0
C      1  0.3971030000000  0.4894960000000  0.5056360000000 1.0
C      1  0.6024830000000  0.5096960000000  0.4950340000000 1.0
C      1  0.4540920000000  0.4596810000000  0.4415400000000 1.0
C      1  0.5454950000000  0.5395110000000  0.5591300000000 1.0
C      1  0.4288900000000  0.4912790000000  0.4526690000000 1.0
C      1  0.5706970000000  0.5079130000000  0.5480000000000 1.0
C      1  0.4646540000000  0.5190760000000  0.5917740000000 1.0
C      1  0.5349330000000  0.4801160000000  0.4088960000000 1.0
C      1  0.4920850000000  0.4457970000000  0.5703280000000 1.0
C      1  0.5075010000000  0.5533960000000  0.4303420000000 1.0
C      1  0.4518710000000  0.4913330000000  0.4244730000000 1.0
C      1  0.5477160000000  0.5078600000000  0.5761970000000 1.0
C      1  0.4813660000000  0.4552820000000  0.5309060000000 1.0
C      1  0.5182210000000  0.5439110000000  0.4697640000000 1.0
C      1  0.4697520000000  0.5473840000000  0.5575940000000 1.0
C      1  0.5298350000000  0.4518090000000  0.4430760000000 1.0
C      1  0.4973020000000  0.5188220000000  0.4090050000000 1.0
C      1  0.5022850000000  0.4803710000000  0.5916640000000 1.0
C      1  0.4293960000000  0.5120780000000  0.5486000000000 1.0
C      1  0.5701910000000  0.4871140000000  0.4520690000000 1.0
C      1  0.4669250000000  0.4877160000000  0.4699820000000 1.0
C      1  0.5326620000000  0.5114760000000  0.5306870000000 1.0
C      1  0.4459880000000  0.5293600000000  0.5687500000000 1.0
C      1  0.5535990000000  0.4698330000000  0.4319190000000 1.0
C      1  0.4775350000000  0.5813350000000  0.4869570000000 1.0
C      1  0.5220520000000  0.4178580000000  0.5137120000000 1.0
C      1  0.4834450000000  0.4932100000000  0.4070310000000 1.0
C      1  0.5161420000000  0.5059830000000  0.5936390000000 1.0
C      1  0.4899040000000  0.5283990000000  0.4797290000000 1.0
C      1  0.5096830000000  0.4707940000000  0.5209410000000 1.0
C      1  0.4699350000000  0.4149150000000  0.5259940000000 1.0
C      1  0.5296520000000  0.5842780000000  0.4746760000000 1.0
C      1  0.4937430000000  0.5070800000000  0.5471740000000 1.0
C      1  0.5058440000000  0.4921120000000  0.4534960000000 1.0
C      1  0.5600760000000  0.4327940000000  0.4751010000000 1.0
C      1  0.4395110000000  0.5663990000000  0.5255680000000 1.0
C      1  0.5472880000000  0.5434390000000  0.4218480000000 1.0
C      1  0.4522990000000  0.4557540000000  0.5788220000000 1.0
C      1  0.5585370000000  0.4843730000000  0.4808810000000 1.0
C      1  0.4410500000000  0.5148200000000  0.5197880000000 1.0
C      1  0.4649220000000  0.5190690000000  0.4356610000000 1.0
C      1  0.5346650000000  0.4801240000000  0.5650090000000 1.0
C      1  0.4810540000000  0.5091650000000  0.4577560000000 1.0
C      1  0.5185330000000  0.4900280000000  0.5429130000000 1.0
C      1  0.4303600000000  0.4586430000000  0.5365530000000 1.0
C      1  0.5692270000000  0.5405500000000  0.4641170000000 1.0
C      1  0.5328390000000  0.4317760000000  0.4635750000000 1.0
C      1  0.4667480000000  0.5674160000000  0.5370950000000 1.0
C      1  0.4946400000000  0.5258540000000  0.5894840000000 1.0
C      1  0.5049470000000  0.4733390000000  0.4111860000000 1.0
C      1  0.5193200000000  0.5502820000000  0.5557940000000 1.0
C      1  0.4802670000000  0.4489110000000  0.4448760000000 1.0
C      1  0.4094960000000  0.5390670000000  0.4562390000000 1.0
C      1  0.5900900000000  0.4601250000000  0.5444310000000 1.0
C      1  0.5381080000000  0.5664740000000  0.4990090000000 1.0
C      1  0.4614790000000  0.4327190000000  0.5016600000000 1.0
C      1  0.5122200000000  0.4301600000000  0.4859450000000 1.0
C      1  0.4873670000000  0.5690330000000  0.5147250000000 1.0
C      1  0.4855450000000  0.4442140000000  0.4862390000000 1.0
C      1  0.5140420000000  0.5549790000000  0.5144310000000 1.0
C      1  0.5457720000000  0.5528730000000  0.4510800000000 1.0
C      1  0.4538150000000  0.4463190000000  0.5495890000000 1.0
C      1  0.4820030000000  0.5819440000000  0.4546950000000 1.0
C      1  0.5175840000000  0.4172490000000  0.5459740000000 1.0
C      1  0.4055310000000  0.4625390000000  0.5029170000000 1.0
C      1  0.5940560000000  0.5366530000000  0.4977520000000 1.0
C      1  0.5637600000000  0.5438730000000  0.4982880000000 1.0
C      1  0.4358270000000  0.4553200000000  0.5023810000000 1.0
C      1  0.4741640000000  0.4772430000000  0.5693170000000 1.0
C      1  0.5254220000000  0.5219490000000  0.4313520000000 1.0
C      1  0.5810010000000  0.5157650000000  0.4495320000000 1.0
C      1  0.4185860000000  0.4834280000000  0.5511370000000 1.0
C      1  0.5498410000000  0.4492250000000  0.5401850000000 1.0
C      1  0.4497460000000  0.5499670000000  0.4604840000000 1.0
C      1  0.6005970000000  0.4599050000000  0.4987770000000 1.0
C      1  0.3989890000000  0.5392880000000  0.5018920000000 1.0
C      1  0.4660650000000  0.4946560000000  0.5383640000000 1.0
C      1  0.5335220000000  0.5045360000000  0.4623060000000 1.0
C      1  0.5785710000000  0.4846090000000  0.5322250000000 1.0
C      1  0.4210160000000  0.5145840000000  0.4684440000000 1.0
C      1  0.5040060000000  0.4645340000000  0.4395370000000 1.0
C      1  0.4955800000000  0.5346580000000  0.5611330000000 1.0
C      1  0.5187260000000  0.5243060000000  0.5099960000000 1.0
C      1  0.4808610000000  0.4748870000000  0.4906730000000 1.0
C      1  0.5047200000000  0.5972310000000  0.4865370000000 1.0
C      1  0.4948670000000  0.4019620000000  0.5141330000000 1.0
C      1  0.5522330000000  0.4566210000000  0.4913150000000 1.0
C      1  0.4473540000000  0.5425720000000  0.5093550000000 1.0
C      1  0.5360350000000  0.4351880000000  0.5615190000000 1.0
C      1  0.4635520000000  0.5640050000000  0.4391510000000 1.0
C      1  0.5110400000000  0.5786430000000  0.4475740000000 1.0
C      1  0.4885470000000  0.4205500000000  0.5530960000000 1.0
C      1  0.5849490000000  0.4866900000000  0.5005300000000 1.0
C      1  0.4146370000000  0.5125020000000  0.5001400000000 1.0
C      1  0.6038270000000  0.4445260000000  0.5236630000000 1.0
C      1  0.3957600000000  0.5546670000000  0.4770060000000 1.0
C      1  0.4997930000000  0.4995960000000  0.5003350000000 1.0
END
