TITL C-862133-5440-310 36.66397448853 125000 -706.795588241435 0 0 118 (C1) n - 1
REM
REM in /home/nfs/bkarasulu/CARBON/AIRSS/Generating-Clusters/TERSOFF/Higher-Symm/FIRE-HFTN
REM
REM
REM
REM
REM
REM ./C.cell (b20cbc046b6831c77cfcea5457e17084)
REM AIRSS Version 0.9.1 bugfix July 2018 build 013d7b7c2542+ Fri, 06 Jul 2018 19:26:36 +0100
REM compiler GCC version 9.2.1 20190827 (Red Hat 9.2.1-1)
REM options -cpp -mtune=generic -march=x86-64 -g -O0 -fpre-include=/usr/include/finclude/math-vector-fortran.h
REM seed -701532097 -1329908894 -281868657 -102783459 229072674 -180713674 849988625 65608563 -1170724965 -118920327 972793288 780926698 1838519354 2139705485 1912138677 -887401625 -269445086 532662176 291352675 -121800360 -688310410 -102284620 -1245625038 725037861 192698869 425141891 70618987 -2052212044 833140265 407265076 -372192245 458946425 -1228805979
REM
CELL 1.54180   50.00000   50.00000   50.00000   90.00000   90.00000   90.00000
LATT -1
SFAC C  
C      1  0.5887260000000  0.4934210000000  0.4539700000000 1.0
C      1  0.4110830000000  0.4933840000000  0.5461300000000 1.0
C      1  0.4164740000000  0.4909860000000  0.4340430000000 1.0
C      1  0.5836440000000  0.4904530000000  0.5658250000000 1.0
C      1  0.4913150000000  0.4415570000000  0.4127170000000 1.0
C      1  0.5087920000000  0.4402100000000  0.5849210000000 1.0
C      1  0.5219370000000  0.4415450000000  0.4158580000000 1.0
C      1  0.4781210000000  0.4403700000000  0.5822120000000 1.0
C      1  0.4772960000000  0.5170870000000  0.4078590000000 1.0
C      1  0.5227130000000  0.5156070000000  0.5927340000000 1.0
C      1  0.5350910000000  0.5175510000000  0.4136810000000 1.0
C      1  0.4649360000000  0.5162550000000  0.5869900000000 1.0
C      1  0.4544160000000  0.4722430000000  0.5518710000000 1.0
C      1  0.5454410000000  0.4722340000000  0.4474790000000 1.0
C      1  0.5394460000000  0.4712490000000  0.5601690000000 1.0
C      1  0.4606980000000  0.4714790000000  0.4388900000000 1.0
C      1  0.4045050000000  0.5625040000000  0.5099050000000 1.0
C      1  0.5953830000000  0.5625570000000  0.4909570000000 1.0
C      1  0.6000930000000  0.5473330000000  0.5179360000000 1.0
C      1  0.3998030000000  0.5470370000000  0.4831030000000 1.0
C      1  0.5339410000000  0.4183660000000  0.5419940000000 1.0
C      1  0.4663320000000  0.4181730000000  0.4546060000000 1.0
C      1  0.4624760000000  0.4199150000000  0.5341680000000 1.0
C      1  0.5375670000000  0.4194770000000  0.4633080000000 1.0
C      1  0.4419620000000  0.5325910000000  0.5355780000000 1.0
C      1  0.5579540000000  0.5323980000000  0.4655350000000 1.0
C      1  0.5573760000000  0.5296700000000  0.5468380000000 1.0
C      1  0.4426040000000  0.5297530000000  0.4541740000000 1.0
C      1  0.5310230000000  0.5742290000000  0.5157670000000 1.0
C      1  0.4688900000000  0.5739570000000  0.4856690000000 1.0
C      1  0.4719360000000  0.5764160000000  0.5139310000000 1.0
C      1  0.5280730000000  0.5761020000000  0.4874530000000 1.0
C      1  0.3379660000000  0.5393230000000  0.5463330000000 1.0
C      1  0.6620520000000  0.5392280000000  0.4548540000000 1.0
C      1  0.6711160000000  0.5168100000000  0.5011500000000 1.0
C      1  0.3288940000000  0.5164640000000  0.5002570000000 1.0
C      1  0.4853940000000  0.5083490000000  0.5345970000000 1.0
C      1  0.5145200000000  0.5078640000000  0.4657710000000 1.0
C      1  0.5140080000000  0.5081570000000  0.5368330000000 1.0
C      1  0.4859440000000  0.5077320000000  0.4634610000000 1.0
C      1  0.3522740000000  0.5367470000000  0.4983420000000 1.0
C      1  0.6476680000000  0.5370340000000  0.5028420000000 1.0
C      1  0.6425480000000  0.5497690000000  0.4765310000000 1.0
C      1  0.3573980000000  0.5497330000000  0.5245290000000 1.0
C      1  0.5519270000000  0.5156750000000  0.5944670000000 1.0
C      1  0.4480670000000  0.5171640000000  0.4061620000000 1.0
C      1  0.4359420000000  0.5169390000000  0.5821230000000 1.0
C      1  0.5640700000000  0.5180820000000  0.4186130000000 1.0
C      1  0.5677370000000  0.4666170000000  0.5618590000000 1.0
C      1  0.4324000000000  0.4670220000000  0.4370110000000 1.0
C      1  0.4263660000000  0.4688290000000  0.5467540000000 1.0
C      1  0.5735100000000  0.4688550000000  0.4525710000000 1.0
C      1  0.3093600000000  0.5454370000000  0.5361000000000 1.0
C      1  0.6906200000000  0.5455250000000  0.4650830000000 1.0
C      1  0.6957520000000  0.5328300000000  0.4913120000000 1.0
C      1  0.3042240000000  0.5324910000000  0.5099940000000 1.0
C      1  0.5168200000000  0.4623750000000  0.5177350000000 1.0
C      1  0.4829820000000  0.4615290000000  0.4815850000000 1.0
C      1  0.4856450000000  0.4629780000000  0.5151280000000 1.0
C      1  0.5143120000000  0.4620250000000  0.4844730000000 1.0
C      1  0.4881520000000  0.4180810000000  0.4341310000000 1.0
C      1  0.5121700000000  0.4174240000000  0.5625890000000 1.0
C      1  0.5225130000000  0.4176970000000  0.4378250000000 1.0
C      1  0.4778720000000  0.4174170000000  0.5593500000000 1.0
C      1  0.4244280000000  0.5179810000000  0.5549460000000 1.0
C      1  0.5755110000000  0.5182960000000  0.4458320000000 1.0
C      1  0.5691540000000  0.5155880000000  0.5706520000000 1.0
C      1  0.4308440000000  0.5163100000000  0.4299860000000 1.0
C      1  0.6266230000000  0.5363590000000  0.5228650000000 1.0
C      1  0.3732970000000  0.5359480000000  0.4783020000000 1.0
C      1  0.3832240000000  0.5619510000000  0.5297880000000 1.0
C      1  0.6167010000000  0.5618740000000  0.4711170000000 1.0
C      1  0.5731540000000  0.5305650000000  0.5210780000000 1.0
C      1  0.4267810000000  0.5303730000000  0.4798960000000 1.0
C      1  0.4313200000000  0.5453030000000  0.5108050000000 1.0
C      1  0.5686350000000  0.5452510000000  0.4901910000000 1.0
C      1  0.4711400000000  0.4316790000000  0.4809150000000 1.0
C      1  0.5294150000000  0.4337710000000  0.5170150000000 1.0
C      1  0.5238200000000  0.4317830000000  0.4858630000000 1.0
C      1  0.4754330000000  0.4338360000000  0.5122360000000 1.0
C      1  0.4330670000000  0.4193020000000  0.5350320000000 1.0
C      1  0.5669720000000  0.4190730000000  0.4629840000000 1.0
C      1  0.5619030000000  0.4166410000000  0.5512550000000 1.0
C      1  0.4383500000000  0.4167620000000  0.4454050000000 1.0
C      1  0.5216050000000  0.4917830000000  0.4088520000000 1.0
C      1  0.4784430000000  0.4903270000000  0.5909920000000 1.0
C      1  0.4920370000000  0.4915760000000  0.4061510000000 1.0
C      1  0.5080170000000  0.4900160000000  0.5935840000000 1.0
C      1  0.5300640000000  0.5658790000000  0.4203740000000 1.0
C      1  0.4699220000000  0.5647850000000  0.5818840000000 1.0
C      1  0.4793580000000  0.5654430000000  0.4155120000000 1.0
C      1  0.5206220000000  0.5641970000000  0.5866820000000 1.0
C      1  0.4722540000000  0.4816950000000  0.4635980000000 1.0
C      1  0.5278190000000  0.4822390000000  0.5358180000000 1.0
C      1  0.5280930000000  0.4818760000000  0.4684770000000 1.0
C      1  0.4716990000000  0.4825370000000  0.5310940000000 1.0
C      1  0.4218270000000  0.4400870000000  0.4393590000000 1.0
C      1  0.5783410000000  0.4397670000000  0.5583770000000 1.0
C      1  0.5837860000000  0.4426670000000  0.4595550000000 1.0
C      1  0.4161630000000  0.4427560000000  0.5391480000000 1.0
C      1  0.5200910000000  0.5389040000000  0.4286590000000 1.0
C      1  0.4798860000000  0.5381040000000  0.5726850000000 1.0
C      1  0.4880380000000  0.5386360000000  0.4256650000000 1.0
C      1  0.5119480000000  0.5377390000000  0.5756410000000 1.0
C      1  0.5286250000000  0.5335630000000  0.4591570000000 1.0
C      1  0.4713240000000  0.5338010000000  0.5420360000000 1.0
C      1  0.4728370000000  0.5331830000000  0.4542400000000 1.0
C      1  0.5270930000000  0.5332750000000  0.5468940000000 1.0
C      1  0.5140450000000  0.5565610000000  0.4715570000000 1.0
C      1  0.4858730000000  0.5571060000000  0.5301690000000 1.0
C      1  0.4848590000000  0.5562680000000  0.4696350000000 1.0
C      1  0.5151000000000  0.5567620000000  0.5320710000000 1.0
C      1  0.5340190000000  0.4677950000000  0.4211280000000 1.0
C      1  0.4659880000000  0.4667960000000  0.5779600000000 1.0
C      1  0.4780970000000  0.4675080000000  0.4158930000000 1.0
C      1  0.5220060000000  0.4663110000000  0.5829150000000 1.0
C      1  0.6633940000000  0.5116550000000  0.4707050000000 1.0
C      1  0.3366860000000  0.5116050000000  0.5307330000000 1.0
END
