TITL C-862501-1041-990 0.0404604507353723 125000 -161.686745112201 0 0 30 (Cs) n - 1
REM
REM in /home/nfs/bkarasulu/CARBON/AIRSS/Generating-Clusters/TERSOFF/Higher-Symm/FIRE-HFTN
REM
REM
REM
REM
REM
REM ./C.cell (b20cbc046b6831c77cfcea5457e17084)
REM AIRSS Version 0.9.1 bugfix July 2018 build 013d7b7c2542+ Fri, 06 Jul 2018 19:26:36 +0100
REM compiler GCC version 9.2.1 20190827 (Red Hat 9.2.1-1)
REM options -cpp -mtune=generic -march=x86-64 -g -O0 -fpre-include=/usr/include/finclude/math-vector-fortran.h
REM seed -919105436 -464148468 -772536825 -649556760 -2006386004 1803812972 903751262 -837271890 1687590069 826196601 1261607706 1506784234 -1752815865 -1830622079 1976153253 -1207838167 168093823 1507011056 783148876 1789989238 -140223702 -410478292 -503246707 -643845613 -196294491 288694449 1368398967 -1785922010 1759133429 -18201181 247341405 397540165 -694109381
REM
CELL 1.54180   50.00000   50.00000   50.00000   90.00000   90.00000   90.00000
LATT -1
SFAC C  
C      1  0.4562270000000  0.5570050000000  0.5090960000000 1.0
C      1  0.5437730000000  0.5570050000000  0.5090960000000 1.0
C      1  0.4678980000000  0.4369250000000  0.5185450000000 1.0
C      1  0.5321020000000  0.4369250000000  0.5185450000000 1.0
C      1  0.4855040000000  0.5495320000000  0.4690980000000 1.0
C      1  0.5144960000000  0.5495320000000  0.4690980000000 1.0
C      1  0.5155560000000  0.4543710000000  0.4560540000000 1.0
C      1  0.4844440000000  0.4543710000000  0.4560540000000 1.0
C      1  0.4849270000000  0.5053110000000  0.5049200000000 1.0
C      1  0.5150730000000  0.5053110000000  0.5049200000000 1.0
C      1  0.4687640000000  0.4830640000000  0.4954440000000 1.0
C      1  0.5312360000000  0.4830640000000  0.4954440000000 1.0
C      1  0.5421440000000  0.4639440000000  0.5145380000000 1.0
C      1  0.4578560000000  0.4639440000000  0.5145380000000 1.0
C      1  0.5286700000000  0.5005720000000  0.5541130000000 1.0
C      1  0.4713300000000  0.5005720000000  0.5541130000000 1.0
C      1  0.5155420000000  0.4223870000000  0.4995610000000 1.0
C      1  0.4844580000000  0.4223870000000  0.4995610000000 1.0
C      1  0.5308510000000  0.4761770000000  0.4672180000000 1.0
C      1  0.4691490000000  0.4761770000000  0.4672180000000 1.0
C      1  0.4709870000000  0.5680340000000  0.4866800000000 1.0
C      1  0.5290130000000  0.5680340000000  0.4866800000000 1.0
C      1  0.4684760000000  0.5453730000000  0.5327390000000 1.0
C      1  0.5315240000000  0.5453730000000  0.5327390000000 1.0
C      1  0.5178120000000  0.4249990000000  0.4678390000000 1.0
C      1  0.4821880000000  0.4249990000000  0.4678390000000 1.0
C      1  0.5144960000000  0.5932540000000  0.4906080000000 1.0
C      1  0.4855040000000  0.5932540000000  0.4906080000000 1.0
C      1  0.5180270000000  0.5190530000000  0.5335470000000 1.0
C      1  0.4819730000000  0.5190530000000  0.5335470000000 1.0
END
