TITL C-862132-7359-355 0.0255984421694143 125000 -347.581154234953 0 0 70 (C1) n - 1
REM
REM in /home/nfs/bkarasulu/CARBON/AIRSS/Generating-Clusters/TERSOFF/Higher-Symm/FIRE-HFTN
REM
REM
REM
REM
REM
REM ./C.cell (b20cbc046b6831c77cfcea5457e17084)
REM AIRSS Version 0.9.1 bugfix July 2018 build 013d7b7c2542+ Fri, 06 Jul 2018 19:26:36 +0100
REM compiler GCC version 9.2.1 20190827 (Red Hat 9.2.1-1)
REM options -cpp -mtune=generic -march=x86-64 -g -O0 -fpre-include=/usr/include/finclude/math-vector-fortran.h
REM seed 1691091369 -1506503721 -728528284 -1635832940 1748520248 2086370220 1470851579 -881599905 -619111240 -1715287640 891871962 -557664983 1150679507 -632888316 -2089471001 -609012172 -1837114924 1051850797 -998336243 1521036057 1456803417 1683947248 1996439474 1419556520 -2036904734 -2104082095 -333508456 1134448986 269019166 150876625 -1029649621 210189496 1471140097
REM
CELL 1.54180   50.00000   50.00000   50.00000   90.00000   90.00000   90.00000
LATT -1
SFAC C  
C      1  0.5433120000000  0.5103680000000  0.4482500000000 1.0
C      1  0.5429430000000  0.5434020000000  0.5409430000000 1.0
C      1  0.5426020000000  0.4498380000000  0.5158600000000 1.0
C      1  0.4593780000000  0.4887810000000  0.4462200000000 1.0
C      1  0.4604420000000  0.4560780000000  0.5408690000000 1.0
C      1  0.4586030000000  0.5538690000000  0.5175550000000 1.0
C      1  0.4254850000000  0.5421630000000  0.5160080000000 1.0
C      1  0.4292600000000  0.4625640000000  0.5375050000000 1.0
C      1  0.4270960000000  0.4909230000000  0.4561210000000 1.0
C      1  0.5739520000000  0.4586770000000  0.5163580000000 1.0
C      1  0.5737790000000  0.5373570000000  0.5374020000000 1.0
C      1  0.5743140000000  0.5083990000000  0.4573550000000 1.0
C      1  0.4995500000000  0.5455420000000  0.5064050000000 1.0
C      1  0.4994310000000  0.4711300000000  0.5371740000000 1.0
C      1  0.4990600000000  0.4819770000000  0.4581670000000 1.0
C      1  0.5023850000000  0.4542030000000  0.5047010000000 1.0
C      1  0.5019770000000  0.5255080000000  0.5369600000000 1.0
C      1  0.5038380000000  0.5183770000000  0.4601200000000 1.0
C      1  0.4861740000000  0.4313050000000  0.5357170000000 1.0
C      1  0.4847450000000  0.5043650000000  0.4256690000000 1.0
C      1  0.4833820000000  0.5626470000000  0.5422390000000 1.0
C      1  0.5183430000000  0.5685740000000  0.5358050000000 1.0
C      1  0.5198980000000  0.4960100000000  0.4248430000000 1.0
C      1  0.5214920000000  0.4359580000000  0.5415100000000 1.0
C      1  0.4277680000000  0.5380920000000  0.4678250000000 1.0
C      1  0.4268100000000  0.5074130000000  0.5395590000000 1.0
C      1  0.4259340000000  0.4599310000000  0.4891090000000 1.0
C      1  0.5744540000000  0.4614300000000  0.4687760000000 1.0
C      1  0.5731000000000  0.4943300000000  0.5385350000000 1.0
C      1  0.5758350000000  0.5392860000000  0.4888510000000 1.0
C      1  0.4696580000000  0.4613250000000  0.4579340000000 1.0
C      1  0.4716140000000  0.5583130000000  0.4888590000000 1.0
C      1  0.4715630000000  0.4812630000000  0.5563710000000 1.0
C      1  0.5317640000000  0.5368710000000  0.4590600000000 1.0
C      1  0.5304700000000  0.4413110000000  0.4883660000000 1.0
C      1  0.5288810000000  0.5187940000000  0.5526570000000 1.0
C      1  0.5175120000000  0.5651290000000  0.4671290000000 1.0
C      1  0.5163180000000  0.4977750000000  0.5734960000000 1.0
C      1  0.5132100000000  0.4358530000000  0.4605780000000 1.0
C      1  0.4851750000000  0.4341790000000  0.4667550000000 1.0
C      1  0.4875190000000  0.5030540000000  0.5735890000000 1.0
C      1  0.4893710000000  0.5637350000000  0.4611930000000 1.0
C      1  0.4630550000000  0.5241440000000  0.5212370000000 1.0
C      1  0.4635560000000  0.4688180000000  0.5130170000000 1.0
C      1  0.4628110000000  0.5083190000000  0.4697360000000 1.0
C      1  0.5356220000000  0.4791500000000  0.5175620000000 1.0
C      1  0.5378790000000  0.5297940000000  0.5131350000000 1.0
C      1  0.5380740000000  0.4905810000000  0.4710470000000 1.0
C      1  0.4560380000000  0.5087350000000  0.5464180000000 1.0
C      1  0.4550940000000  0.4555020000000  0.4866960000000 1.0
C      1  0.4570890000000  0.5379650000000  0.4681810000000 1.0
C      1  0.5439900000000  0.4931530000000  0.5423020000000 1.0
C      1  0.5466200000000  0.5424070000000  0.4869720000000 1.0
C      1  0.5452810000000  0.4614890000000  0.4688580000000 1.0
C      1  0.4803220000000  0.5359240000000  0.4419510000000 1.0
C      1  0.4782260000000  0.5332040000000  0.5598510000000 1.0
C      1  0.4777950000000  0.4311370000000  0.5006590000000 1.0
C      1  0.5231050000000  0.4643450000000  0.4418670000000 1.0
C      1  0.5256640000000  0.4676680000000  0.5581690000000 1.0
C      1  0.5249190000000  0.5676690000000  0.5004590000000 1.0
C      1  0.4168810000000  0.5121790000000  0.4756690000000 1.0
C      1  0.4157690000000  0.5081500000000  0.5089510000000 1.0
C      1  0.4175850000000  0.4749780000000  0.5126220000000 1.0
C      1  0.5850580000000  0.4874020000000  0.4765090000000 1.0
C      1  0.5864840000000  0.4917310000000  0.5092160000000 1.0
C      1  0.5852150000000  0.5249210000000  0.5124360000000 1.0
C      1  0.4977140000000  0.5219320000000  0.4886340000000 1.0
C      1  0.4957720000000  0.4984390000000  0.5266640000000 1.0
C      1  0.4955700000000  0.4768740000000  0.4870830000000 1.0
C      1  0.4897630000000  0.4992010000000  0.5006150000000 1.0
END
