TITL C-862133-5440-621 0.642068166460459 125000 -380.972368420098 0 0 70 (D5) n - 1
REM
REM in /home/nfs/bkarasulu/CARBON/AIRSS/Generating-Clusters/TERSOFF/Higher-Symm/FIRE-HFTN
REM
REM
REM
REM
REM
REM ./C.cell (b20cbc046b6831c77cfcea5457e17084)
REM AIRSS Version 0.9.1 bugfix July 2018 build 013d7b7c2542+ Fri, 06 Jul 2018 19:26:36 +0100
REM compiler GCC version 9.2.1 20190827 (Red Hat 9.2.1-1)
REM options -cpp -mtune=generic -march=x86-64 -g -O0 -fpre-include=/usr/include/finclude/math-vector-fortran.h
REM seed -830943303 1733394932 2924662 1633670484 -1941654172 1177034786 -450452271 367686817 521899967 -1455815230 -1414070137 -2017934476 -1757197488 -2005015562 -1573312301 2094446910 1221807675 -715711558 -833285089 383330928 -1123329111 1331749463 -1762197045 -1886791566 -1765220399 1357663950 104961657 1796579611 506802910 869206834 -978840853 -1633528651 -787838945
REM
CELL 1.54180   50.00000   50.00000   50.00000   90.00000   90.00000   90.00000
LATT -1
SFAC C  
C      1  0.4883810000000  0.4825230000000  0.4618950000000 1.0
C      1  0.4883810000000  0.5308390000000  0.4716030000000 1.0
C      1  0.4883810000000  0.5365370000000  0.5205550000000 1.0
C      1  0.4883810000000  0.4917420000000  0.5411000000000 1.0
C      1  0.4883810000000  0.4583590000000  0.5048470000000 1.0
C      1  0.5116190000000  0.5174770000000  0.4618950000000 1.0
C      1  0.5116190000000  0.4691610000000  0.4716030000000 1.0
C      1  0.5116190000000  0.4634630000000  0.5205550000000 1.0
C      1  0.5116190000000  0.5082580000000  0.5411000000000 1.0
C      1  0.5116190000000  0.5416410000000  0.5048470000000 1.0
C      1  0.5504530000000  0.5317430000000  0.4546770000000 1.0
C      1  0.5504530000000  0.5529140000000  0.5161830000000 1.0
C      1  0.5504530000000  0.5009600000000  0.5553250000000 1.0
C      1  0.5504530000000  0.4476800000000  0.5180090000000 1.0
C      1  0.5504530000000  0.4667040000000  0.4558050000000 1.0
C      1  0.4495470000000  0.4682570000000  0.4546770000000 1.0
C      1  0.4495470000000  0.4470860000000  0.5161830000000 1.0
C      1  0.4495470000000  0.4990400000000  0.5553250000000 1.0
C      1  0.4495470000000  0.5523200000000  0.5180090000000 1.0
C      1  0.4495470000000  0.5332960000000  0.4558050000000 1.0
C      1  0.4849370000000  0.5241790000000  0.5829380000000 1.0
C      1  0.4849370000000  0.4285930000000  0.5486250000000 1.0
C      1  0.4849370000000  0.4316890000000  0.4471140000000 1.0
C      1  0.4849370000000  0.5291880000000  0.4186900000000 1.0
C      1  0.4849370000000  0.5863500000000  0.5026330000000 1.0
C      1  0.5150630000000  0.4758210000000  0.5829380000000 1.0
C      1  0.5150630000000  0.5714070000000  0.5486250000000 1.0
C      1  0.5150630000000  0.5683110000000  0.4471140000000 1.0
C      1  0.5150630000000  0.4708120000000  0.4186900000000 1.0
C      1  0.5150630000000  0.4136500000000  0.5026330000000 1.0
C      1  0.5790830000000  0.5571680000000  0.5178180000000 1.0
C      1  0.5790830000000  0.5007200000000  0.5598760000000 1.0
C      1  0.5790830000000  0.4432770000000  0.5191870000000 1.0
C      1  0.5790830000000  0.4642230000000  0.4519820000000 1.0
C      1  0.5790830000000  0.5346120000000  0.4511360000000 1.0
C      1  0.4209170000000  0.4428320000000  0.5178180000000 1.0
C      1  0.4209170000000  0.4992800000000  0.5598760000000 1.0
C      1  0.4209170000000  0.5567230000000  0.5191870000000 1.0
C      1  0.4209170000000  0.5357770000000  0.4519820000000 1.0
C      1  0.4209170000000  0.4653880000000  0.4511360000000 1.0
C      1  0.5305870000000  0.5740810000000  0.5235860000000 1.0
C      1  0.5305870000000  0.5004610000000  0.5777430000000 1.0
C      1  0.5305870000000  0.4262040000000  0.5244620000000 1.0
C      1  0.5305870000000  0.4539310000000  0.4373750000000 1.0
C      1  0.5305870000000  0.5453240000000  0.4368330000000 1.0
C      1  0.4694130000000  0.4259190000000  0.5235860000000 1.0
C      1  0.4694130000000  0.4995390000000  0.5777430000000 1.0
C      1  0.4694130000000  0.5737960000000  0.5244620000000 1.0
C      1  0.4694130000000  0.5460690000000  0.4373750000000 1.0
C      1  0.4694130000000  0.4546760000000  0.4368330000000 1.0
C      1  0.4857190000000  0.4754200000000  0.5831240000000 1.0
C      1  0.4857190000000  0.4133490000000  0.5023100000000 1.0
C      1  0.4857190000000  0.4710270000000  0.4183040000000 1.0
C      1  0.4857190000000  0.5687450000000  0.4471990000000 1.0
C      1  0.4857190000000  0.5714600000000  0.5490640000000 1.0
C      1  0.5142810000000  0.5245800000000  0.5831240000000 1.0
C      1  0.5142810000000  0.5866510000000  0.5023100000000 1.0
C      1  0.5142810000000  0.5289730000000  0.4183040000000 1.0
C      1  0.5142810000000  0.4312550000000  0.4471990000000 1.0
C      1  0.5142810000000  0.4285400000000  0.5490640000000 1.0
C      1  0.5381050000000  0.5259880000000  0.5065980000000 1.0
C      1  0.5381050000000  0.5017560000000  0.5267550000000 1.0
C      1  0.5381050000000  0.4750970000000  0.5099370000000 1.0
C      1  0.5381050000000  0.4828540000000  0.4793870000000 1.0
C      1  0.5381050000000  0.5143060000000  0.4773230000000 1.0
C      1  0.4618950000000  0.4740120000000  0.5065980000000 1.0
C      1  0.4618950000000  0.4982440000000  0.5267550000000 1.0
C      1  0.4618950000000  0.5249030000000  0.5099370000000 1.0
C      1  0.4618950000000  0.5171460000000  0.4793870000000 1.0
C      1  0.4618950000000  0.4856940000000  0.4773230000000 1.0
END
