TITL C-862133-5440-353 0.952638327097782 125000 -726.286234940512 0 0 118 (C2h) n - 1
REM
REM in /home/nfs/bkarasulu/CARBON/AIRSS/Generating-Clusters/TERSOFF/Higher-Symm/FIRE-HFTN
REM
REM
REM
REM
REM
REM ./C.cell (b20cbc046b6831c77cfcea5457e17084)
REM AIRSS Version 0.9.1 bugfix July 2018 build 013d7b7c2542+ Fri, 06 Jul 2018 19:26:36 +0100
REM compiler GCC version 9.2.1 20190827 (Red Hat 9.2.1-1)
REM options -cpp -mtune=generic -march=x86-64 -g -O0 -fpre-include=/usr/include/finclude/math-vector-fortran.h
REM seed -1391820400 -1670240054 -1837697234 -141874196 1013295492 -1574117979 1381455695 -1873989593 369140284 -117683812 2066129454 -669303949 555631390 -742113878 -1753867356 2075444789 197619615 -1018088123 -77097827 742476575 1617869599 -1308581598 1898537932 -231636593 447170745 1933296754 -2045743377 1488711223 894600655 -518418084 458377333 795810468 708348061
REM
CELL 1.54180   50.00000   50.00000   50.00000   90.00000   90.00000   90.00000
LATT -1
SFAC C  
C      1  0.3982230000000  0.5142990000000  0.5243910000000 1.0
C      1  0.6017990000000  0.5141460000000  0.4756120000000 1.0
C      1  0.3982010000000  0.4850390000000  0.5243880000000 1.0
C      1  0.6017770000000  0.4848860000000  0.4756090000000 1.0
C      1  0.5073560000000  0.5974220000000  0.4803290000000 1.0
C      1  0.4927970000000  0.5974290000000  0.5196940000000 1.0
C      1  0.5072030000000  0.4017570000000  0.4803060000000 1.0
C      1  0.4926440000000  0.4017630000000  0.5196710000000 1.0
C      1  0.5477480000000  0.5293030000000  0.5087270000000 1.0
C      1  0.4522980000000  0.5293790000000  0.4912800000000 1.0
C      1  0.5477020000000  0.4698060000000  0.5087200000000 1.0
C      1  0.4522520000000  0.4698830000000  0.4912730000000 1.0
C      1  0.4854910000000  0.5292940000000  0.6749570000000 1.0
C      1  0.5145550000000  0.5293130000000  0.3250500000000 1.0
C      1  0.4854450000000  0.4698720000000  0.6749500000000 1.0
C      1  0.5145090000000  0.4698920000000  0.3250430000000 1.0
C      1  0.4606030000000  0.5139520000000  0.6031070000000 1.0
C      1  0.5394190000000  0.5139150000000  0.3968970000000 1.0
C      1  0.4605810000000  0.4852700000000  0.6031030000000 1.0
C      1  0.5393970000000  0.4852340000000  0.3968930000000 1.0
C      1  0.4756830000000  0.5429420000000  0.5351480000000 1.0
C      1  0.5243850000000  0.5429120000000  0.4648620000000 1.0
C      1  0.4756150000000  0.4562730000000  0.5351380000000 1.0
C      1  0.5243170000000  0.4562440000000  0.4648520000000 1.0
C      1  0.4136710000000  0.4700730000000  0.5442000000000 1.0
C      1  0.5862830000000  0.4699490000000  0.4557930000000 1.0
C      1  0.4137170000000  0.5292360000000  0.5442070000000 1.0
C      1  0.5863290000000  0.5291120000000  0.4558000000000 1.0
C      1  0.5780950000000  0.5288110000000  0.5472990000000 1.0
C      1  0.4219510000000  0.5289440000000  0.4527080000000 1.0
C      1  0.5780490000000  0.4702420000000  0.5472920000000 1.0
C      1  0.4219050000000  0.4703750000000  0.4527010000000 1.0
C      1  0.4773380000000  0.5143370000000  0.6514420000000 1.0
C      1  0.5226850000000  0.5143380000000  0.3485620000000 1.0
C      1  0.4773150000000  0.4848470000000  0.6514380000000 1.0
C      1  0.5226620000000  0.4848480000000  0.3485580000000 1.0
C      1  0.5719800000000  0.5505140000000  0.4692250000000 1.0
C      1  0.4280990000000  0.5506190000000  0.5307880000000 1.0
C      1  0.5719010000000  0.4485670000000  0.4692120000000 1.0
C      1  0.4280200000000  0.4486710000000  0.5307750000000 1.0
C      1  0.5705910000000  0.5142620000000  0.4358980000000 1.0
C      1  0.4294320000000  0.5143570000000  0.5641060000000 1.0
C      1  0.5705680000000  0.4848290000000  0.4358940000000 1.0
C      1  0.4294090000000  0.4849230000000  0.5641020000000 1.0
C      1  0.4812590000000  0.3744070000000  0.4465580000000 1.0
C      1  0.5185460000000  0.3743650000000  0.5534120000000 1.0
C      1  0.4814540000000  0.6248200000000  0.4465880000000 1.0
C      1  0.5187410000000  0.6247780000000  0.5534420000000 1.0
C      1  0.5769810000000  0.5784910000000  0.4643120000000 1.0
C      1  0.4231420000000  0.5786030000000  0.5357070000000 1.0
C      1  0.5768580000000  0.4205830000000  0.4642930000000 1.0
C      1  0.4230190000000  0.4206940000000  0.5356880000000 1.0
C      1  0.4807300000000  0.4044560000000  0.5675020000000 1.0
C      1  0.5191220000000  0.4044430000000  0.4324750000000 1.0
C      1  0.4808780000000  0.5947430000000  0.5675250000000 1.0
C      1  0.5192700000000  0.5947290000000  0.4324980000000 1.0
C      1  0.5569540000000  0.5993050000000  0.4667640000000 1.0
C      1  0.4432020000000  0.5993850000000  0.5332600000000 1.0
C      1  0.5567980000000  0.3998000000000  0.4667400000000 1.0
C      1  0.4430460000000  0.3998810000000  0.5332360000000 1.0
C      1  0.4024830000000  0.4748480000000  0.4973240000000 1.0
C      1  0.5974790000000  0.4746960000000  0.5026700000000 1.0
C      1  0.4025210000000  0.5244900000000  0.4973300000000 1.0
C      1  0.5975170000000  0.5243370000000  0.5026760000000 1.0
C      1  0.4755440000000  0.4850480000000  0.4489950000000 1.0
C      1  0.5244340000000  0.4849980000000  0.5510020000000 1.0
C      1  0.4755660000000  0.5141880000000  0.4489980000000 1.0
C      1  0.5244560000000  0.5141370000000  0.5510050000000 1.0
C      1  0.4859480000000  0.3824820000000  0.4739860000000 1.0
C      1  0.5138690000000  0.3824540000000  0.5259860000000 1.0
C      1  0.4861310000000  0.6167320000000  0.4740140000000 1.0
C      1  0.5140520000000  0.6167040000000  0.5260140000000 1.0
C      1  0.4756040000000  0.5309690000000  0.4729860000000 1.0
C      1  0.5244440000000  0.5309250000000  0.5270220000000 1.0
C      1  0.4755560000000  0.4682610000000  0.4729780000000 1.0
C      1  0.5243960000000  0.4682160000000  0.5270140000000 1.0
C      1  0.4986210000000  0.4498050000000  0.4771520000000 1.0
C      1  0.5013020000000  0.4497980000000  0.5228360000000 1.0
C      1  0.4986980000000  0.5493880000000  0.4771640000000 1.0
C      1  0.5013790000000  0.5493800000000  0.5228480000000 1.0
C      1  0.5737480000000  0.4823730000000  0.5198910000000 1.0
C      1  0.4262250000000  0.4824920000000  0.4801050000000 1.0
C      1  0.5737750000000  0.5166930000000  0.5198950000000 1.0
C      1  0.4262520000000  0.5168130000000  0.4801090000000 1.0
C      1  0.4714390000000  0.5960920000000  0.5398030000000 1.0
C      1  0.5287110000000  0.5960570000000  0.4602200000000 1.0
C      1  0.4712890000000  0.4031280000000  0.5397800000000 1.0
C      1  0.5285610000000  0.4030930000000  0.4601970000000 1.0
C      1  0.5311450000000  0.5280050000000  0.3729680000000 1.0
C      1  0.4688990000000  0.5280230000000  0.6270390000000 1.0
C      1  0.5311010000000  0.4711630000000  0.3729610000000 1.0
C      1  0.4688550000000  0.4711810000000  0.6270320000000 1.0
C      1  0.5479180000000  0.5271370000000  0.4214150000000 1.0
C      1  0.4521250000000  0.5271920000000  0.5785910000000 1.0
C      1  0.5478750000000  0.4719930000000  0.4214090000000 1.0
C      1  0.4520820000000  0.4720490000000  0.5785850000000 1.0
C      1  0.4979010000000  0.3855010000000  0.4256190000000 1.0
C      1  0.5019210000000  0.3854800000000  0.5743540000000 1.0
C      1  0.4980790000000  0.6137050000000  0.4256460000000 1.0
C      1  0.5020990000000  0.6136840000000  0.5743810000000 1.0
C      1  0.5197510000000  0.5685390000000  0.4209050000000 1.0
C      1  0.4803560000000  0.5685500000000  0.5791120000000 1.0
C      1  0.5196440000000  0.4306350000000  0.4208880000000 1.0
C      1  0.4802490000000  0.4306470000000  0.5790950000000 1.0
C      1  0.5818450000000  0.4853210000000  0.5713490000000 1.0
C      1  0.4181330000000  0.4854650000000  0.4286480000000 1.0
C      1  0.5818670000000  0.5137200000000  0.5713520000000 1.0
C      1  0.4181550000000  0.5138650000000  0.4286510000000 1.0
C      1  0.4524170000000  0.5423540000000  0.5180020000000 1.0
C      1  0.5476490000000  0.5422840000000  0.4820080000000 1.0
C      1  0.4523510000000  0.4569010000000  0.5179920000000 1.0
C      1  0.5475830000000  0.4568310000000  0.4819980000000 1.0
C      1  0.5290310000000  0.4540220000000  0.4351490000000 1.0
C      1  0.4708980000000  0.4540520000000  0.5648400000000 1.0
C      1  0.5291020000000  0.5451340000000  0.4351600000000 1.0
C      1  0.4709690000000  0.5451630000000  0.5648510000000 1.0
C      1  0.4999440000000  0.4272650000000  0.4999910000000 1.0
C      1  0.5000560000000  0.5719210000000  0.5000090000000 1.0
END
