TITL C-862128-1543-158 -544954.018405358 125000 -1016.29335949995 0 0 174 (C1) n - 1
REM
REM in /home/nfs/bkarasulu/CARBON/AIRSS/Generating-Clusters/TERSOFF/Higher-Symm/FIRE-HFTN
REM
REM
REM
REM
REM
REM ./C.cell (b20cbc046b6831c77cfcea5457e17084)
REM AIRSS Version 0.9.1 bugfix July 2018 build 013d7b7c2542+ Fri, 06 Jul 2018 19:26:36 +0100
REM compiler GCC version 9.2.1 20190827 (Red Hat 9.2.1-1)
REM options -cpp -mtune=generic -march=x86-64 -g -O0 -fpre-include=/usr/include/finclude/math-vector-fortran.h
REM seed 262943380 -1867879505 1141107027 -1028929107 863324397 -1971768508 217841166 -663930670 -1883214367 23317397 -1604075303 1308367302 -816880473 -917895652 180608065 -464108888 1403216803 -1255143189 1457595307 -1545647027 445515024 681341959 -1417822461 1817532447 2094263163 915447368 1456080008 -819057289 -487336113 -669810144 -1787487947 -2122326692 1585758773
REM
CELL 1.54180   50.00000   50.00000   50.00000   90.00000   90.00000   90.00000
LATT -1
SFAC C  
C      1  0.5748590000000  0.4216330000000  0.4763200000000 1.0
C      1  0.4268890000000  0.4439670000000  0.4546200000000 1.0
C      1  0.5050240000000  0.4974740000000  0.3877490000000 1.0
C      1  0.5780740000000  0.4659160000000  0.4193170000000 1.0
C      1  0.4924610000000  0.5365170000000  0.4622730000000 1.0
C      1  0.6134730000000  0.5346320000000  0.5120890000000 1.0
C      1  0.5440970000000  0.4727300000000  0.3818580000000 1.0
C      1  0.5610910000000  0.5272840000000  0.5103340000000 1.0
C      1  0.4698030000000  0.5174710000000  0.4528180000000 1.0
C      1  0.5579160000000  0.4765080000000  0.5203000000000 1.0
C      1  0.4648680000000  0.5972310000000  0.5470150000000 1.0
C      1  0.5241660000000  0.4317680000000  0.4973770000000 1.0
C      1  0.4878170000000  0.5822130000000  0.5124090000000 1.0
C      1  0.3992190000000  0.4452640000000  0.4944090000000 1.0
C      1  0.4605860000000  0.4761080000000  0.5359740000000 1.0
C      1  0.5521910000000  0.5029080000000  0.3842500000000 1.0
C      1  0.4607860000000  0.5685660000000  0.5430120000000 1.0
C      1  0.5775160000000  0.4466560000000  0.5467920000000 1.0
C      1  0.5562670000000  0.5006740000000  0.4367370000000 1.0
C      1  0.4381800000000  0.5047210000000  0.5570120000000 1.0
C      1  0.3933680000000  0.5114580000000  0.4550560000000 1.0
C      1  0.4928100000000  0.4934020000000  0.4142250000000 1.0
C      1  0.4300390000000  0.5248420000000  0.5163010000000 1.0
C      1  0.5196210000000  0.5944150000000  0.5639470000000 1.0
C      1  0.5206320000000  0.4156320000000  0.5720980000000 1.0
C      1  0.4952020000000  0.4994770000000  0.5316160000000 1.0
C      1  0.5285350000000  0.5428690000000  0.6098710000000 1.0
C      1  0.5904630000000  0.4146720000000  0.5002540000000 1.0
C      1  0.5287440000000  0.4606300000000  0.5457280000000 1.0
C      1  0.5624620000000  0.6069600000000  0.5050520000000 1.0
C      1  0.4140770000000  0.4600440000000  0.5576090000000 1.0
C      1  0.4489510000000  0.4424460000000  0.4993270000000 1.0
C      1  0.3896350000000  0.5200490000000  0.5056260000000 1.0
C      1  0.5033800000000  0.4406770000000  0.6085860000000 1.0
C      1  0.5537050000000  0.5716950000000  0.5730650000000 1.0
C      1  0.5161340000000  0.4436040000000  0.4678450000000 1.0
C      1  0.4670330000000  0.4557910000000  0.5546400000000 1.0
C      1  0.5882850000000  0.4256010000000  0.4258380000000 1.0
C      1  0.4898600000000  0.4602000000000  0.5728150000000 1.0
C      1  0.5668860000000  0.5356830000000  0.5413640000000 1.0
C      1  0.5915470000000  0.4898640000000  0.4093650000000 1.0
C      1  0.5739300000000  0.5353070000000  0.4208430000000 1.0
C      1  0.4327400000000  0.5037820000000  0.5865880000000 1.0
C      1  0.3953320000000  0.4814630000000  0.5420540000000 1.0
C      1  0.4491520000000  0.4891770000000  0.4893400000000 1.0
C      1  0.4718710000000  0.6057910000000  0.5736730000000 1.0
C      1  0.5357880000000  0.5691940000000  0.5976830000000 1.0
C      1  0.5489240000000  0.4552240000000  0.4090150000000 1.0
C      1  0.4536470000000  0.4499180000000  0.5970340000000 1.0
C      1  0.4745460000000  0.4072300000000  0.5496460000000 1.0
C      1  0.5863260000000  0.4647750000000  0.5013930000000 1.0
C      1  0.3883340000000  0.4715890000000  0.4890810000000 1.0
C      1  0.3973650000000  0.5297620000000  0.4783980000000 1.0
C      1  0.4460860000000  0.5995960000000  0.4861660000000 1.0
C      1  0.4247290000000  0.4376230000000  0.4832710000000 1.0
C      1  0.4594040000000  0.5600650000000  0.4908510000000 1.0
C      1  0.5193110000000  0.5141480000000  0.5361040000000 1.0
C      1  0.3970950000000  0.5107660000000  0.5508750000000 1.0
C      1  0.5453550000000  0.4556200000000  0.5008570000000 1.0
C      1  0.5171340000000  0.5414750000000  0.5532340000000 1.0
C      1  0.4547050000000  0.5400460000000  0.6184230000000 1.0
C      1  0.5893850000000  0.5367070000000  0.4477270000000 1.0
C      1  0.5781520000000  0.5165160000000  0.5603090000000 1.0
C      1  0.5368520000000  0.5159570000000  0.5983410000000 1.0
C      1  0.5057510000000  0.5428800000000  0.6287930000000 1.0
C      1  0.5138780000000  0.5896440000000  0.5926360000000 1.0
C      1  0.5491260000000  0.5990930000000  0.5556080000000 1.0
C      1  0.4674170000000  0.5341140000000  0.4066210000000 1.0
C      1  0.4761680000000  0.5609640000000  0.4661960000000 1.0
C      1  0.4757890000000  0.4342420000000  0.4589160000000 1.0
C      1  0.6139390000000  0.5250970000000  0.5400690000000 1.0
C      1  0.5267240000000  0.4394880000000  0.5904650000000 1.0
C      1  0.5185410000000  0.4932940000000  0.6002270000000 1.0
C      1  0.4816690000000  0.5096670000000  0.5728660000000 1.0
C      1  0.5751940000000  0.5115830000000  0.4008840000000 1.0
C      1  0.5545490000000  0.4044250000000  0.4637970000000 1.0
C      1  0.5190880000000  0.5384610000000  0.4485620000000 1.0
C      1  0.5000830000000  0.4695490000000  0.4291830000000 1.0
C      1  0.4550680000000  0.4302380000000  0.5494570000000 1.0
C      1  0.4401760000000  0.5326860000000  0.3968310000000 1.0
C      1  0.5788450000000  0.4511060000000  0.4685930000000 1.0
C      1  0.6108240000000  0.4953380000000  0.4296670000000 1.0
C      1  0.4043340000000  0.5317530000000  0.5302940000000 1.0
C      1  0.4744120000000  0.5125810000000  0.4239130000000 1.0
C      1  0.4822430000000  0.5583860000000  0.4165680000000 1.0
C      1  0.5197350000000  0.3945810000000  0.4277210000000 1.0
C      1  0.4230880000000  0.5450860000000  0.4760250000000 1.0
C      1  0.4202940000000  0.5128680000000  0.4066260000000 1.0
C      1  0.5968970000000  0.5071450000000  0.4765770000000 1.0
C      1  0.4293350000000  0.4696970000000  0.5821400000000 1.0
C      1  0.4755870000000  0.5584080000000  0.5818720000000 1.0
C      1  0.5275040000000  0.4710120000000  0.4609010000000 1.0
C      1  0.4422750000000  0.5376350000000  0.4540990000000 1.0
C      1  0.3926070000000  0.4818980000000  0.4607480000000 1.0
C      1  0.5021630000000  0.4581010000000  0.5318580000000 1.0
C      1  0.3874610000000  0.4902290000000  0.5112200000000 1.0
C      1  0.5393360000000  0.4828290000000  0.4223760000000 1.0
C      1  0.5436950000000  0.5971520000000  0.5247760000000 1.0
C      1  0.4526760000000  0.4692540000000  0.5086900000000 1.0
C      1  0.5532490000000  0.4669560000000  0.4748000000000 1.0
C      1  0.5243900000000  0.5555010000000  0.5002820000000 1.0
C      1  0.5431610000000  0.5557890000000  0.4782970000000 1.0
C      1  0.5471840000000  0.5202040000000  0.4563760000000 1.0
C      1  0.5439520000000  0.4080970000000  0.4364430000000 1.0
C      1  0.5951630000000  0.5556900000000  0.5006290000000 1.0
C      1  0.5190260000000  0.5799760000000  0.5161690000000 1.0
C      1  0.6000490000000  0.4975340000000  0.5505620000000 1.0
C      1  0.6001180000000  0.4397190000000  0.5122830000000 1.0
C      1  0.4901650000000  0.4106710000000  0.5744220000000 1.0
C      1  0.5598320000000  0.4246290000000  0.4178750000000 1.0
C      1  0.4530080000000  0.4510380000000  0.4125890000000 1.0
C      1  0.4979900000000  0.4439160000000  0.5056950000000 1.0
C      1  0.4779440000000  0.4286520000000  0.5978150000000 1.0
C      1  0.5586950000000  0.6051580000000  0.4761990000000 1.0
C      1  0.5020350000000  0.5359510000000  0.5031470000000 1.0
C      1  0.5497370000000  0.4401400000000  0.5396370000000 1.0
C      1  0.4936850000000  0.3977630000000  0.4400000000000 1.0
C      1  0.4459200000000  0.5545480000000  0.5694370000000 1.0
C      1  0.5349020000000  0.4145280000000  0.5454350000000 1.0
C      1  0.5165500000000  0.4480890000000  0.4162250000000 1.0
C      1  0.4945920000000  0.5365760000000  0.5746350000000 1.0
C      1  0.4004390000000  0.5235010000000  0.4274470000000 1.0
C      1  0.5266670000000  0.5441550000000  0.3973740000000 1.0
C      1  0.5626010000000  0.5076650000000  0.5854080000000 1.0
C      1  0.5689590000000  0.5205550000000  0.4806760000000 1.0
C      1  0.4807260000000  0.5279850000000  0.6249280000000 1.0
C      1  0.4294090000000  0.5077320000000  0.4941240000000 1.0
C      1  0.6030840000000  0.4884580000000  0.4562490000000 1.0
C      1  0.5118100000000  0.5512280000000  0.4210580000000 1.0
C      1  0.5621140000000  0.4779370000000  0.5809550000000 1.0
C      1  0.4097720000000  0.5780030000000  0.5141280000000 1.0
C      1  0.4676300000000  0.4930010000000  0.4682050000000 1.0
C      1  0.5454070000000  0.5052030000000  0.5220480000000 1.0
C      1  0.5020550000000  0.5074170000000  0.4909760000000 1.0
C      1  0.4178850000000  0.4867580000000  0.3932670000000 1.0
C      1  0.4622740000000  0.4998230000000  0.5946610000000 1.0
C      1  0.4253450000000  0.4342480000000  0.5460630000000 1.0
C      1  0.5184900000000  0.4094000000000  0.5212020000000 1.0
C      1  0.4189460000000  0.5666640000000  0.5617630000000 1.0
C      1  0.4672090000000  0.4747200000000  0.6075270000000 1.0
C      1  0.5466920000000  0.5499110000000  0.5555990000000 1.0
C      1  0.4526110000000  0.4410620000000  0.4414150000000 1.0
C      1  0.4993860000000  0.4870450000000  0.5797330000000 1.0
C      1  0.4396070000000  0.5351060000000  0.5935050000000 1.0
C      1  0.5133370000000  0.4706000000000  0.3756090000000 1.0
C      1  0.5513300000000  0.5796750000000  0.4637530000000 1.0
C      1  0.4558700000000  0.5293430000000  0.5279590000000 1.0
C      1  0.4370440000000  0.5607820000000  0.4341480000000 1.0
C      1  0.5124770000000  0.5719710000000  0.5448100000000 1.0
C      1  0.4073370000000  0.4630540000000  0.4438780000000 1.0
C      1  0.4797190000000  0.3770920000000  0.4547680000000 1.0
C      1  0.4081590000000  0.5525800000000  0.4274590000000 1.0
C      1  0.5616680000000  0.6289680000000  0.4597470000000 1.0
C      1  0.4897700000000  0.4002240000000  0.5243180000000 1.0
C      1  0.5863040000000  0.5574280000000  0.4705260000000 1.0
C      1  0.5126850000000  0.4972020000000  0.4646530000000 1.0
C      1  0.5009890000000  0.4469380000000  0.3906360000000 1.0
C      1  0.4255860000000  0.4606980000000  0.4045520000000 1.0
C      1  0.4720810000000  0.4411310000000  0.3915960000000 1.0
C      1  0.4735570000000  0.5519500000000  0.5170270000000 1.0
C      1  0.5272750000000  0.5177130000000  0.3855750000000 1.0
C      1  0.5844060000000  0.4705180000000  0.5626120000000 1.0
C      1  0.4753620000000  0.4025000000000  0.4991240000000 1.0
C      1  0.4738370000000  0.4306810000000  0.4897660000000 1.0
C      1  0.4056640000000  0.5602740000000  0.5368170000000 1.0
C      1  0.5353740000000  0.4639500000000  0.5753640000000 1.0
C      1  0.5914390000000  0.4509410000000  0.4413920000000 1.0
C      1  0.6182780000000  0.5150890000000  0.4929370000000 1.0
C      1  0.4674060000000  0.5060810000000  0.5444020000000 1.0
C      1  0.4698990000000  0.3799180000000  0.4818650000000 1.0
C      1  0.4662060000000  0.5705400000000  0.4390460000000 1.0
C      1  0.4735780000000  0.6028200000000  0.4966420000000 1.0
C      1  0.4289710000000  0.5728150000000  0.4915790000000 1.0
C      1  0.4846490000000  0.5853610000000  0.5906080000000 1.0
END
