TITL C-862127-1500-1200 0.11531736181792 125000 -443.380681906066 0 0 82 (C1) n - 1
REM
REM in /home/nfs/bkarasulu/CARBON/AIRSS/Generating-Clusters/TERSOFF/Higher-Symm/FIRE-HFTN
REM
REM
REM
REM
REM
REM ./C.cell (b20cbc046b6831c77cfcea5457e17084)
REM AIRSS Version 0.9.1 bugfix July 2018 build 013d7b7c2542+ Fri, 06 Jul 2018 19:26:36 +0100
REM compiler GCC version 9.2.1 20190827 (Red Hat 9.2.1-1)
REM options -cpp -mtune=generic -march=x86-64 -g -O0 -fpre-include=/usr/include/finclude/math-vector-fortran.h
REM seed 226742405 -1483595558 -711891546 1735834056 -107611312 955007945 -1894145973 1193962007 -1440718884 -1227164166 1192523267 -553645498 1433282109 386100349 -2018919955 -1779275238 1701930289 1989684417 1211475412 1400825058 1910605651 -1039301175 97171971 -622251956 1262055996 -345650757 859400156 460387943 -65832650 -415187762 -199718289 565169535 -1815514009
REM
CELL 1.54180   50.00000   50.00000   50.00000   90.00000   90.00000   90.00000
LATT -1
SFAC C  
C      1  0.5312300000000  0.5686560000000  0.5074910000000 1.0
C      1  0.5071230000000  0.5291640000000  0.5718450000000 1.0
C      1  0.5798640000000  0.5071450000000  0.5233900000000 1.0
C      1  0.5316680000000  0.4288990000000  0.4794290000000 1.0
C      1  0.4967080000000  0.4286880000000  0.5163320000000 1.0
C      1  0.4836960000000  0.5711530000000  0.4974240000000 1.0
C      1  0.5054500000000  0.4842730000000  0.4263750000000 1.0
C      1  0.4799070000000  0.4883610000000  0.5697810000000 1.0
C      1  0.4752450000000  0.5215730000000  0.4359260000000 1.0
C      1  0.5766200000000  0.4710040000000  0.4900090000000 1.0
C      1  0.4185280000000  0.4813080000000  0.5145070000000 1.0
C      1  0.4149150000000  0.5148450000000  0.4790550000000 1.0
C      1  0.5004660000000  0.4472770000000  0.5590290000000 1.0
C      1  0.5483490000000  0.4990250000000  0.4454020000000 1.0
C      1  0.4375190000000  0.5510740000000  0.5010840000000 1.0
C      1  0.5011080000000  0.5586720000000  0.4574130000000 1.0
C      1  0.5072710000000  0.5555620000000  0.5392250000000 1.0
C      1  0.5098340000000  0.4475890000000  0.4488480000000 1.0
C      1  0.5480350000000  0.5087240000000  0.5622760000000 1.0
C      1  0.4468890000000  0.4990110000000  0.4569290000000 1.0
C      1  0.4467900000000  0.4978450000000  0.5460160000000 1.0
C      1  0.4502630000000  0.4487250000000  0.5019150000000 1.0
C      1  0.5437790000000  0.4470720000000  0.5207110000000 1.0
C      1  0.5699890000000  0.5464280000000  0.4987420000000 1.0
C      1  0.5308260000000  0.5658170000000  0.5596780000000 1.0
C      1  0.5698600000000  0.5292150000000  0.5634350000000 1.0
C      1  0.5743100000000  0.5664040000000  0.5252140000000 1.0
C      1  0.5272840000000  0.4484730000000  0.4240450000000 1.0
C      1  0.4733050000000  0.4416310000000  0.5728430000000 1.0
C      1  0.4773040000000  0.5678080000000  0.4390980000000 1.0
C      1  0.5680890000000  0.4769820000000  0.4403270000000 1.0
C      1  0.4317030000000  0.4708340000000  0.5559930000000 1.0
C      1  0.4350240000000  0.5306400000000  0.4438810000000 1.0
C      1  0.5666630000000  0.4264340000000  0.4422930000000 1.0
C      1  0.4504040000000  0.4296180000000  0.5252070000000 1.0
C      1  0.4404380000000  0.5719460000000  0.4796710000000 1.0
C      1  0.4739340000000  0.4666300000000  0.5877150000000 1.0
C      1  0.5858130000000  0.4725500000000  0.4626500000000 1.0
C      1  0.4615160000000  0.5878660000000  0.4904380000000 1.0
C      1  0.4769530000000  0.5456310000000  0.4204300000000 1.0
C      1  0.5161700000000  0.5544940000000  0.5840230000000 1.0
C      1  0.5155860000000  0.4669120000000  0.4045130000000 1.0
C      1  0.5909790000000  0.5172800000000  0.5478960000000 1.0
C      1  0.4059140000000  0.5235020000000  0.4520840000000 1.0
C      1  0.4068800000000  0.4721740000000  0.5398150000000 1.0
C      1  0.4733230000000  0.4127220000000  0.5212990000000 1.0
C      1  0.5532400000000  0.4152960000000  0.4651900000000 1.0
C      1  0.5552760000000  0.5836260000000  0.5115070000000 1.0
C      1  0.4518020000000  0.4693990000000  0.4489580000000 1.0
C      1  0.4531160000000  0.4422030000000  0.4728130000000 1.0
C      1  0.4794720000000  0.4459120000000  0.4481070000000 1.0
C      1  0.4482900000000  0.5273260000000  0.5531280000000 1.0
C      1  0.5539540000000  0.5289790000000  0.4443940000000 1.0
C      1  0.5513990000000  0.4803150000000  0.5699740000000 1.0
C      1  0.4446130000000  0.5546180000000  0.5297520000000 1.0
C      1  0.5623660000000  0.5534310000000  0.4699180000000 1.0
C      1  0.5525040000000  0.4528760000000  0.5485580000000 1.0
C      1  0.4767540000000  0.5494970000000  0.5455800000000 1.0
C      1  0.5311830000000  0.5564390000000  0.4505760000000 1.0
C      1  0.5267620000000  0.4531070000000  0.5725090000000 1.0
C      1  0.5576430000000  0.5229240000000  0.5102030000000 1.0
C      1  0.5280850000000  0.5351360000000  0.5209850000000 1.0
C      1  0.5240800000000  0.5187500000000  0.5504270000000 1.0
C      1  0.5488870000000  0.4631550000000  0.4964730000000 1.0
C      1  0.4481070000000  0.4757350000000  0.5104280000000 1.0
C      1  0.4401380000000  0.5259980000000  0.4883710000000 1.0
C      1  0.5250880000000  0.4616990000000  0.4731970000000 1.0
C      1  0.4971600000000  0.4556340000000  0.5311780000000 1.0
C      1  0.4886630000000  0.5459130000000  0.4808020000000 1.0
C      1  0.5224080000000  0.4875840000000  0.4510100000000 1.0
C      1  0.4741030000000  0.4831070000000  0.5343510000000 1.0
C      1  0.4678090000000  0.5224720000000  0.4711660000000 1.0
C      1  0.5068940000000  0.5829220000000  0.5073680000000 1.0
C      1  0.4847710000000  0.5144910000000  0.5799940000000 1.0
C      1  0.5908740000000  0.4846140000000  0.5103020000000 1.0
C      1  0.5196760000000  0.4176630000000  0.5028760000000 1.0
C      1  0.4805920000000  0.4967860000000  0.4242290000000 1.0
C      1  0.4031300000000  0.4940300000000  0.4941020000000 1.0
C      1  0.5608070000000  0.5565990000000  0.5528250000000 1.0
C      1  0.5566930000000  0.4505340000000  0.4294710000000 1.0
C      1  0.4487110000000  0.4439380000000  0.5534650000000 1.0
C      1  0.4480890000000  0.5592780000000  0.4523170000000 1.0
END
