TITL C-862129-6180-831 1.61634420438059 125000 -1102.05375463254 0 0 190 (C1) n - 1
REM
REM in /home/nfs/bkarasulu/CARBON/AIRSS/Generating-Clusters/TERSOFF/Higher-Symm/FIRE-HFTN
REM
REM
REM
REM
REM
REM ./C.cell (b20cbc046b6831c77cfcea5457e17084)
REM AIRSS Version 0.9.1 bugfix July 2018 build 013d7b7c2542+ Fri, 06 Jul 2018 19:26:36 +0100
REM compiler GCC version 9.2.1 20190827 (Red Hat 9.2.1-1)
REM options -cpp -mtune=generic -march=x86-64 -g -O0 -fpre-include=/usr/include/finclude/math-vector-fortran.h
REM seed 1195732342 -608525090 1188966076 -2079737351 -1656688856 -145988249 -1877733839 -1956655024 10457080 1469526982 1554979801 -477203653 815085489 781540821 7283700 -1222440155 2041778463 -601785966 1499908262 1895269877 1116748172 -336649923 788956380 -167211822 1722205614 295781482 1918780206 -2049005378 1088557498 565282196 -1609874117 -1727663436 -383697204
REM
CELL 1.54180   50.00000   50.00000   50.00000   90.00000   90.00000   90.00000
LATT -1
SFAC C  
C      1  0.5141830000000  0.5332190000000  0.4061290000000 1.0
C      1  0.5145140000000  0.4678820000000  0.4047590000000 1.0
C      1  0.5536440000000  0.4663630000000  0.4974010000000 1.0
C      1  0.5526890000000  0.5335420000000  0.4992250000000 1.0
C      1  0.5695090000000  0.5257770000000  0.4133770000000 1.0
C      1  0.5697810000000  0.4761090000000  0.4127200000000 1.0
C      1  0.4301490000000  0.5260790000000  0.4714060000000 1.0
C      1  0.4306710000000  0.4732730000000  0.4719350000000 1.0
C      1  0.4278050000000  0.4721090000000  0.5336660000000 1.0
C      1  0.4329050000000  0.5287670000000  0.5256230000000 1.0
C      1  0.5337980000000  0.5892180000000  0.4463470000000 1.0
C      1  0.5343350000000  0.4111610000000  0.4446710000000 1.0
C      1  0.4901980000000  0.4504470000000  0.3929570000000 1.0
C      1  0.4901310000000  0.5507890000000  0.3943600000000 1.0
C      1  0.4713260000000  0.4596580000000  0.5377640000000 1.0
C      1  0.4727140000000  0.5367720000000  0.5381660000000 1.0
C      1  0.4791570000000  0.3995060000000  0.5148960000000 1.0
C      1  0.4771650000000  0.5989610000000  0.5169480000000 1.0
C      1  0.5242010000000  0.4761130000000  0.5363730000000 1.0
C      1  0.5232200000000  0.5187510000000  0.5383430000000 1.0
C      1  0.5285550000000  0.4555400000000  0.4532660000000 1.0
C      1  0.5280460000000  0.5442150000000  0.4549310000000 1.0
C      1  0.5193850000000  0.4304020000000  0.5245720000000 1.0
C      1  0.5184330000000  0.5696070000000  0.5260720000000 1.0
C      1  0.4215090000000  0.4319620000000  0.4359470000000 1.0
C      1  0.4210820000000  0.5681820000000  0.4368810000000 1.0
C      1  0.5695390000000  0.4195440000000  0.5284440000000 1.0
C      1  0.5683130000000  0.5808700000000  0.5305760000000 1.0
C      1  0.6193840000000  0.5254850000000  0.4978530000000 1.0
C      1  0.6199550000000  0.4760950000000  0.4976630000000 1.0
C      1  0.5283880000000  0.5445220000000  0.4842550000000 1.0
C      1  0.5293890000000  0.4551170000000  0.4825160000000 1.0
C      1  0.5914130000000  0.4771240000000  0.4342270000000 1.0
C      1  0.5909080000000  0.5244500000000  0.4349510000000 1.0
C      1  0.4529950000000  0.4565220000000  0.4579960000000 1.0
C      1  0.4524660000000  0.5434610000000  0.4586640000000 1.0
C      1  0.5078700000000  0.5937610000000  0.4826680000000 1.0
C      1  0.5087530000000  0.4061250000000  0.4811720000000 1.0
C      1  0.4831300000000  0.4708770000000  0.5623430000000 1.0
C      1  0.4857610000000  0.5239610000000  0.5620660000000 1.0
C      1  0.4517010000000  0.5322990000000  0.5923840000000 1.0
C      1  0.4498070000000  0.4658230000000  0.5916990000000 1.0
C      1  0.5187110000000  0.5928540000000  0.5832900000000 1.0
C      1  0.5170680000000  0.3990130000000  0.5822140000000 1.0
C      1  0.5985900000000  0.4618350000000  0.4836950000000 1.0
C      1  0.5970380000000  0.5390150000000  0.4846760000000 1.0
C      1  0.5497150000000  0.4365900000000  0.4397980000000 1.0
C      1  0.5489250000000  0.5636390000000  0.4418430000000 1.0
C      1  0.3765080000000  0.5240430000000  0.5112510000000 1.0
C      1  0.3765980000000  0.4717720000000  0.5100460000000 1.0
C      1  0.5461220000000  0.4349700000000  0.5361450000000 1.0
C      1  0.5449560000000  0.5653320000000  0.5381950000000 1.0
C      1  0.4042790000000  0.4585640000000  0.5153850000000 1.0
C      1  0.4036060000000  0.5391180000000  0.5153460000000 1.0
C      1  0.5338730000000  0.3949020000000  0.4701850000000 1.0
C      1  0.5328270000000  0.6054490000000  0.4718830000000 1.0
C      1  0.5833400000000  0.4765060000000  0.4631520000000 1.0
C      1  0.5824770000000  0.5243390000000  0.4637400000000 1.0
C      1  0.5465400000000  0.4411780000000  0.5847860000000 1.0
C      1  0.5402270000000  0.5461000000000  0.5843880000000 1.0
C      1  0.6191130000000  0.4760430000000  0.5275000000000 1.0
C      1  0.6188140000000  0.5253880000000  0.5275810000000 1.0
C      1  0.5759220000000  0.5525840000000  0.5004850000000 1.0
C      1  0.5771790000000  0.4478530000000  0.4984110000000 1.0
C      1  0.4330030000000  0.5753550000000  0.4901020000000 1.0
C      1  0.4337800000000  0.4235350000000  0.4890910000000 1.0
C      1  0.4333530000000  0.4416350000000  0.4105780000000 1.0
C      1  0.4331080000000  0.5589680000000  0.4114370000000 1.0
C      1  0.4619030000000  0.4103570000000  0.4502380000000 1.0
C      1  0.4612320000000  0.5898450000000  0.4517850000000 1.0
C      1  0.4801470000000  0.6024720000000  0.4724530000000 1.0
C      1  0.4810690000000  0.3974700000000  0.4705940000000 1.0
C      1  0.4610170000000  0.5759400000000  0.5038940000000 1.0
C      1  0.4620610000000  0.4219190000000  0.5022360000000 1.0
C      1  0.5360970000000  0.6075590000000  0.5229060000000 1.0
C      1  0.5379130000000  0.3928860000000  0.5211560000000 1.0
C      1  0.5753060000000  0.4725330000000  0.5536280000000 1.0
C      1  0.5738290000000  0.5264660000000  0.5511580000000 1.0
C      1  0.5506290000000  0.5439930000000  0.5573590000000 1.0
C      1  0.5515450000000  0.4533490000000  0.5584960000000 1.0
C      1  0.5740360000000  0.4289390000000  0.4559970000000 1.0
C      1  0.5730770000000  0.5714170000000  0.4582590000000 1.0
C      1  0.5956820000000  0.4313680000000  0.5323130000000 1.0
C      1  0.5945250000000  0.5692720000000  0.5342240000000 1.0
C      1  0.4642570000000  0.4422920000000  0.4097870000000 1.0
C      1  0.4640130000000  0.5584650000000  0.4109490000000 1.0
C      1  0.4796750000000  0.4690180000000  0.5098630000000 1.0
C      1  0.4799970000000  0.5285930000000  0.5100760000000 1.0
C      1  0.5073080000000  0.4179790000000  0.4409140000000 1.0
C      1  0.5068510000000  0.5822510000000  0.4422980000000 1.0
C      1  0.5472610000000  0.4564490000000  0.4146200000000 1.0
C      1  0.5468020000000  0.5449530000000  0.4159720000000 1.0
C      1  0.4207280000000  0.4512230000000  0.4916650000000 1.0
C      1  0.4190840000000  0.5479180000000  0.4908970000000 1.0
C      1  0.4708940000000  0.4609860000000  0.4333490000000 1.0
C      1  0.4704780000000  0.5392960000000  0.4342270000000 1.0
C      1  0.4940540000000  0.5947370000000  0.4200260000000 1.0
C      1  0.4945480000000  0.4059930000000  0.4183380000000 1.0
C      1  0.5159710000000  0.4326510000000  0.4961600000000 1.0
C      1  0.5150800000000  0.5672180000000  0.4976970000000 1.0
C      1  0.4280930000000  0.4360960000000  0.5552630000000 1.0
C      1  0.4289890000000  0.5596010000000  0.5559830000000 1.0
C      1  0.4751240000000  0.4242980000000  0.5678450000000 1.0
C      1  0.4756290000000  0.5716080000000  0.5683170000000 1.0
C      1  0.5725270000000  0.4214550000000  0.4853470000000 1.0
C      1  0.5712330000000  0.5791090000000  0.4875920000000 1.0
C      1  0.5034210000000  0.4683540000000  0.4354440000000 1.0
C      1  0.5028190000000  0.5316240000000  0.4365650000000 1.0
C      1  0.4757650000000  0.5538190000000  0.4920220000000 1.0
C      1  0.4761270000000  0.4445790000000  0.4909200000000 1.0
C      1  0.5516260000000  0.4001690000000  0.4932580000000 1.0
C      1  0.5502500000000  0.6003360000000  0.4952510000000 1.0
C      1  0.4088090000000  0.5231930000000  0.4508940000000 1.0
C      1  0.4085320000000  0.4748860000000  0.4523130000000 1.0
C      1  0.5040010000000  0.5951930000000  0.5339160000000 1.0
C      1  0.5054660000000  0.4042600000000  0.5322300000000 1.0
C      1  0.5085760000000  0.5198600000000  0.5117680000000 1.0
C      1  0.5083260000000  0.4774040000000  0.5110850000000 1.0
C      1  0.4904730000000  0.5602790000000  0.4644060000000 1.0
C      1  0.4910290000000  0.4395550000000  0.4631180000000 1.0
C      1  0.5319660000000  0.5709290000000  0.5969970000000 1.0
C      1  0.5415940000000  0.4129040000000  0.5892930000000 1.0
C      1  0.4980780000000  0.5896370000000  0.5630880000000 1.0
C      1  0.4985940000000  0.4075140000000  0.5614470000000 1.0
C      1  0.4679830000000  0.4136320000000  0.4209910000000 1.0
C      1  0.4675140000000  0.5870100000000  0.4225580000000 1.0
C      1  0.4265300000000  0.4509800000000  0.5807630000000 1.0
C      1  0.4283520000000  0.5472010000000  0.5824590000000 1.0
C      1  0.4787490000000  0.5450600000000  0.5836190000000 1.0
C      1  0.4772100000000  0.4505990000000  0.5845420000000 1.0
C      1  0.4058400000000  0.4364350000000  0.5364870000000 1.0
C      1  0.4060080000000  0.5588660000000  0.5382480000000 1.0
C      1  0.4561990000000  0.4332590000000  0.5450730000000 1.0
C      1  0.4569470000000  0.5626190000000  0.5455370000000 1.0
C      1  0.4408820000000  0.4277850000000  0.4593930000000 1.0
C      1  0.4403610000000  0.5720610000000  0.4604520000000 1.0
C      1  0.5974380000000  0.5406970000000  0.5397100000000 1.0
C      1  0.5986780000000  0.4595400000000  0.5399840000000 1.0
C      1  0.5489710000000  0.4806000000000  0.5990220000000 1.0
C      1  0.6357750000000  0.5008030000000  0.5701350000000 1.0
C      1  0.4108880000000  0.4988650000000  0.5060810000000 1.0
C      1  0.6269300000000  0.5007580000000  0.5414240000000 1.0
C      1  0.4889210000000  0.5002690000000  0.4123880000000 1.0
C      1  0.5229340000000  0.4902230000000  0.5906770000000 1.0
C      1  0.3704220000000  0.4982670000000  0.4956040000000 1.0
C      1  0.4426590000000  0.4991110000000  0.5333270000000 1.0
C      1  0.5391330000000  0.4994140000000  0.4681450000000 1.0
C      1  0.4362170000000  0.5078940000000  0.5619130000000 1.0
C      1  0.6175800000000  0.5024280000000  0.5937450000000 1.0
C      1  0.4013960000000  0.5042960000000  0.5387090000000 1.0
C      1  0.5535330000000  0.5151230000000  0.6316790000000 1.0
C      1  0.4094210000000  0.4975530000000  0.5925520000000 1.0
C      1  0.5682900000000  0.5000310000000  0.4734050000000 1.0
C      1  0.4262110000000  0.5011120000000  0.3758700000000 1.0
C      1  0.5054110000000  0.4980150000000  0.6141520000000 1.0
C      1  0.4759390000000  0.4977460000000  0.5710350000000 1.0
C      1  0.5300750000000  0.5001420000000  0.4416870000000 1.0
C      1  0.5112960000000  0.5008790000000  0.3899150000000 1.0
C      1  0.4501100000000  0.5037610000000  0.6283220000000 1.0
C      1  0.5241910000000  0.5109360000000  0.6375470000000 1.0
C      1  0.4930930000000  0.4992640000000  0.4707010000000 1.0
C      1  0.5775420000000  0.5008240000000  0.5655810000000 1.0
C      1  0.4364490000000  0.4998220000000  0.4875490000000 1.0
C      1  0.4509810000000  0.4986740000000  0.5866540000000 1.0
C      1  0.5884630000000  0.5035560000000  0.5920130000000 1.0
C      1  0.5686240000000  0.4968100000000  0.6132980000000 1.0
C      1  0.5592330000000  0.5000580000000  0.5049910000000 1.0
C      1  0.6286400000000  0.5009590000000  0.4841510000000 1.0
C      1  0.4622780000000  0.4993750000000  0.5065040000000 1.0
C      1  0.6324760000000  0.5010930000000  0.4543230000000 1.0
C      1  0.4993770000000  0.4999120000000  0.4412520000000 1.0
C      1  0.6101920000000  0.5010580000000  0.4341840000000 1.0
C      1  0.4148410000000  0.4891500000000  0.4019360000000 1.0
C      1  0.4567200000000  0.5100650000000  0.3763370000000 1.0
C      1  0.5159130000000  0.4989290000000  0.4907420000000 1.0
C      1  0.5636330000000  0.5010980000000  0.3988390000000 1.0
C      1  0.5167450000000  0.4957100000000  0.5614960000000 1.0
C      1  0.3902170000000  0.4963380000000  0.4167100000000 1.0
C      1  0.3950670000000  0.5113820000000  0.5694230000000 1.0
C      1  0.4399190000000  0.4887380000000  0.4179030000000 1.0
C      1  0.4773040000000  0.5151400000000  0.6208450000000 1.0
C      1  0.4868340000000  0.5037800000000  0.3681330000000 1.0
C      1  0.5472040000000  0.4981610000000  0.5326840000000 1.0
C      1  0.3685070000000  0.4990450000000  0.4657640000000 1.0
C      1  0.5409470000000  0.5012140000000  0.3806160000000 1.0
C      1  0.4982610000000  0.5293430000000  0.6411640000000 1.0
C      1  0.4616100000000  0.5032680000000  0.4053180000000 1.0
C      1  0.4233980000000  0.5116670000000  0.6155330000000 1.0
C      1  0.3921850000000  0.4990720000000  0.4471080000000 1.0
C      1  0.3749830000000  0.5316570000000  0.5752260000000 1.0
END
