TITL C-862506-1665-471 5.98667482671872 125000 -848.805328237819 0 0 153 (C1) n - 1
REM
REM in /home/nfs/bkarasulu/CARBON/AIRSS/Generating-Clusters/TERSOFF/Higher-Symm/FIRE-HFTN
REM
REM
REM
REM
REM
REM ./C.cell (b20cbc046b6831c77cfcea5457e17084)
REM AIRSS Version 0.9.1 bugfix July 2018 build 013d7b7c2542+ Fri, 06 Jul 2018 19:26:36 +0100
REM compiler GCC version 9.2.1 20190827 (Red Hat 9.2.1-1)
REM options -cpp -mtune=generic -march=x86-64 -g -O0 -fpre-include=/usr/include/finclude/math-vector-fortran.h
REM seed -2143569248 1825043331 -473131299 -1502448589 468278537 782655775 897790429 1336530075 1441895729 -203234333 385266726 -1385523747 515630726 1363881055 -41311022 176326084 762259742 -1403477450 -1377153501 -734596507 -1690298720 429141635 -1535096187 -1764902748 -1237864547 57766511 1921185342 846541609 941685757 1258272208 1793305416 626430265 731968204
REM
CELL 1.54180   50.00000   50.00000   50.00000   90.00000   90.00000   90.00000
LATT -1
SFAC C  
C      1  0.5859360000000  0.5204080000000  0.5512150000000 1.0
C      1  0.4124450000000  0.5199390000000  0.5515910000000 1.0
C      1  0.5535530000000  0.4123120000000  0.4977590000000 1.0
C      1  0.4466190000000  0.4111290000000  0.4977240000000 1.0
C      1  0.4716180000000  0.4024260000000  0.5429250000000 1.0
C      1  0.5283560000000  0.4030200000000  0.5427920000000 1.0
C      1  0.4654270000000  0.6098430000000  0.5245660000000 1.0
C      1  0.5325050000000  0.6104200000000  0.5250350000000 1.0
C      1  0.4267020000000  0.4280130000000  0.5578210000000 1.0
C      1  0.5728310000000  0.4290120000000  0.5577840000000 1.0
C      1  0.5567930000000  0.4574350000000  0.4571890000000 1.0
C      1  0.4427720000000  0.4561440000000  0.4571980000000 1.0
C      1  0.4599300000000  0.5778030000000  0.4896580000000 1.0
C      1  0.5381870000000  0.5779040000000  0.4896900000000 1.0
C      1  0.5477080000000  0.5895650000000  0.5409180000000 1.0
C      1  0.4504390000000  0.5891230000000  0.5407020000000 1.0
C      1  0.5459490000000  0.4313630000000  0.4496440000000 1.0
C      1  0.4546090000000  0.4304090000000  0.4497110000000 1.0
C      1  0.4671360000000  0.4563760000000  0.5669440000000 1.0
C      1  0.5318960000000  0.4569380000000  0.5667430000000 1.0
C      1  0.3960420000000  0.5041100000000  0.4297280000000 1.0
C      1  0.6035860000000  0.5057420000000  0.4301100000000 1.0
C      1  0.5926300000000  0.5501930000000  0.5063060000000 1.0
C      1  0.4061370000000  0.5493970000000  0.5063690000000 1.0
C      1  0.5591390000000  0.4762720000000  0.5615270000000 1.0
C      1  0.4396430000000  0.4756000000000  0.5620270000000 1.0
C      1  0.4286910000000  0.5515300000000  0.5855590000000 1.0
C      1  0.5697170000000  0.5517370000000  0.5853850000000 1.0
C      1  0.5605710000000  0.4769760000000  0.4338550000000 1.0
C      1  0.4393000000000  0.4758420000000  0.4341250000000 1.0
C      1  0.5591910000000  0.5031930000000  0.4485190000000 1.0
C      1  0.4398000000000  0.5015660000000  0.4495890000000 1.0
C      1  0.4744930000000  0.5634290000000  0.4438210000000 1.0
C      1  0.5230320000000  0.5611010000000  0.4429890000000 1.0
C      1  0.4522820000000  0.4081440000000  0.4687090000000 1.0
C      1  0.5486740000000  0.4091730000000  0.4686610000000 1.0
C      1  0.4397760000000  0.5039240000000  0.5487660000000 1.0
C      1  0.5586470000000  0.5045350000000  0.5482770000000 1.0
C      1  0.4603190000000  0.4767030000000  0.4133220000000 1.0
C      1  0.5410200000000  0.4769110000000  0.4117950000000 1.0
C      1  0.4557530000000  0.5259070000000  0.5662970000000 1.0
C      1  0.5426160000000  0.5262050000000  0.5660540000000 1.0
C      1  0.5642720000000  0.5095330000000  0.5146260000000 1.0
C      1  0.4340380000000  0.5087640000000  0.5153100000000 1.0
C      1  0.5395880000000  0.3945540000000  0.5168710000000 1.0
C      1  0.4604730000000  0.3936260000000  0.5171010000000 1.0
C      1  0.4751610000000  0.5063850000000  0.5979860000000 1.0
C      1  0.5233190000000  0.5064740000000  0.5976830000000 1.0
C      1  0.4751890000000  0.4303900000000  0.4282970000000 1.0
C      1  0.5257260000000  0.4307230000000  0.4280860000000 1.0
C      1  0.5928260000000  0.4778930000000  0.4301870000000 1.0
C      1  0.4071680000000  0.4764080000000  0.4295080000000 1.0
C      1  0.5234260000000  0.5510180000000  0.5665860000000 1.0
C      1  0.4748580000000  0.5508540000000  0.5666970000000 1.0
C      1  0.4563700000000  0.4242450000000  0.5598070000000 1.0
C      1  0.5432110000000  0.4249990000000  0.5596570000000 1.0
C      1  0.5896360000000  0.4607530000000  0.4593840000000 1.0
C      1  0.4098760000000  0.4587930000000  0.4586890000000 1.0
C      1  0.4741080000000  0.4660810000000  0.5400010000000 1.0
C      1  0.5243570000000  0.4667080000000  0.5400270000000 1.0
C      1  0.5740450000000  0.4313470000000  0.5074150000000 1.0
C      1  0.4252940000000  0.4294720000000  0.5069800000000 1.0
C      1  0.4513420000000  0.4711890000000  0.5219340000000 1.0
C      1  0.5465540000000  0.4722160000000  0.5216640000000 1.0
C      1  0.5292130000000  0.5054590000000  0.4092190000000 1.0
C      1  0.4727640000000  0.5048420000000  0.4128550000000 1.0
C      1  0.5258730000000  0.4474070000000  0.4948270000000 1.0
C      1  0.4729670000000  0.4468470000000  0.4954180000000 1.0
C      1  0.5917180000000  0.5212220000000  0.5093610000000 1.0
C      1  0.4068030000000  0.5204660000000  0.5097290000000 1.0
C      1  0.3898930000000  0.5120940000000  0.5331510000000 1.0
C      1  0.6084680000000  0.5125840000000  0.5327850000000 1.0
C      1  0.4113590000000  0.4754890000000  0.4845210000000 1.0
C      1  0.5871920000000  0.4777950000000  0.4849070000000 1.0
C      1  0.4485640000000  0.5510910000000  0.4298820000000 1.0
C      1  0.5502390000000  0.5529140000000  0.4286990000000 1.0
C      1  0.4729680000000  0.5510160000000  0.4897460000000 1.0
C      1  0.5249520000000  0.5508510000000  0.4893590000000 1.0
C      1  0.4541740000000  0.5010660000000  0.4926180000000 1.0
C      1  0.5440890000000  0.5014760000000  0.4917180000000 1.0
C      1  0.5260910000000  0.5802240000000  0.5592520000000 1.0
C      1  0.4719590000000  0.5800240000000  0.5592670000000 1.0
C      1  0.5249630000000  0.4527150000000  0.4075980000000 1.0
C      1  0.4758790000000  0.4525970000000  0.4082310000000 1.0
C      1  0.5284640000000  0.5627970000000  0.4013900000000 1.0
C      1  0.4698340000000  0.5609810000000  0.4021640000000 1.0
C      1  0.4534880000000  0.5205240000000  0.4309870000000 1.0
C      1  0.5487040000000  0.5218470000000  0.4272860000000 1.0
C      1  0.4607390000000  0.5255910000000  0.4769250000000 1.0
C      1  0.5366700000000  0.5255700000000  0.4760050000000 1.0
C      1  0.5799510000000  0.5514320000000  0.4492740000000 1.0
C      1  0.4184660000000  0.5496320000000  0.4497960000000 1.0
C      1  0.4582120000000  0.4685880000000  0.4805950000000 1.0
C      1  0.5405020000000  0.4697150000000  0.4801820000000 1.0
C      1  0.4177310000000  0.5047320000000  0.4723580000000 1.0
C      1  0.5804630000000  0.5066440000000  0.4716550000000 1.0
C      1  0.5813000000000  0.5491360000000  0.5575450000000 1.0
C      1  0.4171130000000  0.5487290000000  0.5577430000000 1.0
C      1  0.5237130000000  0.6021380000000  0.4848100000000 1.0
C      1  0.4747360000000  0.6017160000000  0.4842380000000 1.0
C      1  0.4477710000000  0.5262940000000  0.5976500000000 1.0
C      1  0.5506650000000  0.5263910000000  0.5973450000000 1.0
C      1  0.4243320000000  0.5699710000000  0.5302040000000 1.0
C      1  0.5740150000000  0.5703820000000  0.5302340000000 1.0
C      1  0.5710630000000  0.4606790000000  0.5075110000000 1.0
C      1  0.4273590000000  0.4588960000000  0.5073450000000 1.0
C      1  0.5815000000000  0.4569180000000  0.5584320000000 1.0
C      1  0.4176510000000  0.4558070000000  0.5587000000000 1.0
C      1  0.4127730000000  0.5647240000000  0.4772330000000 1.0
C      1  0.5855270000000  0.5660220000000  0.4771190000000 1.0
C      1  0.5649900000000  0.5800470000000  0.4966870000000 1.0
C      1  0.4330070000000  0.5799100000000  0.4965940000000 1.0
C      1  0.4034760000000  0.5225120000000  0.4518450000000 1.0
C      1  0.5952920000000  0.5244070000000  0.4517090000000 1.0
C      1  0.5235440000000  0.5354260000000  0.5146630000000 1.0
C      1  0.4744890000000  0.5360320000000  0.5152110000000 1.0
C      1  0.4996550000000  0.4329630000000  0.5366490000000 1.0
C      1  0.4989230000000  0.5764940000000  0.4051230000000 1.0
C      1  0.4974880000000  0.5310980000000  0.4573850000000 1.0
C      1  0.4988370000000  0.6138620000000  0.5277400000000 1.0
C      1  0.4990980000000  0.4796660000000  0.4973330000000 1.0
C      1  0.4989050000000  0.5943220000000  0.4284120000000 1.0
C      1  0.4773270000000  0.3725880000000  0.4474220000000 1.0
C      1  0.5001790000000  0.3395030000000  0.4792770000000 1.0
C      1  0.4985950000000  0.5427410000000  0.4298750000000 1.0
C      1  0.4995710000000  0.4507990000000  0.5100890000000 1.0
C      1  0.4992360000000  0.5460250000000  0.5903210000000 1.0
C      1  0.5069610000000  0.5034210000000  0.4539900000000 1.0
C      1  0.4990680000000  0.6088010000000  0.4971960000000 1.0
C      1  0.4990090000000  0.4847400000000  0.3508590000000 1.0
C      1  0.4995520000000  0.4577450000000  0.5832710000000 1.0
C      1  0.4988930000000  0.5078570000000  0.5485120000000 1.0
C      1  0.4997500000000  0.4301880000000  0.5679140000000 1.0
C      1  0.4777970000000  0.3483130000000  0.4631780000000 1.0
C      1  0.4995050000000  0.5235410000000  0.6357870000000 1.0
C      1  0.4998440000000  0.4588970000000  0.3638670000000 1.0
C      1  0.4991040000000  0.5301200000000  0.5290110000000 1.0
C      1  0.4991340000000  0.5498470000000  0.5486040000000 1.0
C      1  0.4993970000000  0.4970490000000  0.6199510000000 1.0
C      1  0.5007480000000  0.3878100000000  0.4398380000000 1.0
C      1  0.4989710000000  0.5939310000000  0.5531550000000 1.0
C      1  0.5002220000000  0.4548300000000  0.3925740000000 1.0
C      1  0.5005440000000  0.4158210000000  0.4322060000000 1.0
C      1  0.4990900000000  0.4809910000000  0.5392590000000 1.0
C      1  0.4961360000000  0.4824610000000  0.4690560000000 1.0
C      1  0.4989410000000  0.5533950000000  0.4764330000000 1.0
C      1  0.4993730000000  0.5478620000000  0.6198040000000 1.0
C      1  0.4995730000000  0.4668090000000  0.6118910000000 1.0
C      1  0.5000680000000  0.4031090000000  0.5812070000000 1.0
C      1  0.5016720000000  0.5100580000000  0.4213070000000 1.0
C      1  0.5001320000000  0.3910960000000  0.5526770000000 1.0
C      1  0.4990820000000  0.5143810000000  0.5778790000000 1.0
C      1  0.4997270000000  0.5817910000000  0.4570000000000 1.0
END
