TITL C-862130-1496-399 0.00137873896331722 125000 -697.616981116066 0 0 130 (C3) n - 1
REM
REM in /home/nfs/bkarasulu/CARBON/AIRSS/Generating-Clusters/TERSOFF/Higher-Symm/FIRE-HFTN
REM
REM
REM
REM
REM
REM ./C.cell (b20cbc046b6831c77cfcea5457e17084)
REM AIRSS Version 0.9.1 bugfix July 2018 build 013d7b7c2542+ Fri, 06 Jul 2018 19:26:36 +0100
REM compiler GCC version 9.2.1 20190827 (Red Hat 9.2.1-1)
REM options -cpp -mtune=generic -march=x86-64 -g -O0 -fpre-include=/usr/include/finclude/math-vector-fortran.h
REM seed -1739741640 1342092517 -381569488 -242209364 -1527281172 199792241 -1419541775 1818568450 614832164 -1555157249 901174987 1700374184 -1827226124 1127615300 765122314 1798343230 -2092643875 847470624 -2002526332 1997315391 1942806756 -1368412471 1836012408 -951312756 1500356662 -1663364292 -493384309 158287056 1566644937 -1025244260 125242199 2039219922 -2022672989
REM
CELL 1.54180   50.00000   50.00000   50.00000   90.00000   90.00000   90.00000
LATT -1
SFAC C  
C      1  0.4413160000000  0.5255160000000  0.4885270000000 1.0
C      1  0.5192190000000  0.5255160000000  0.5565190000000 1.0
C      1  0.5391500000000  0.5255160000000  0.4550570000000 1.0
C      1  0.4450820000000  0.4710640000000  0.4886100000000 1.0
C      1  0.5174070000000  0.4710640000000  0.5532160000000 1.0
C      1  0.5371950000000  0.4710640000000  0.4582770000000 1.0
C      1  0.5214090000000  0.4297890000000  0.5590890000000 1.0
C      1  0.5402800000000  0.4297900000000  0.4518740000000 1.0
C      1  0.4379940000000  0.4297900000000  0.4891390000000 1.0
C      1  0.5206450000000  0.5673790000000  0.5577820000000 1.0
C      1  0.5395310000000  0.5673790000000  0.4531910000000 1.0
C      1  0.4395090000000  0.5673790000000  0.4891310000000 1.0
C      1  0.5523440000000  0.4757560000000  0.5003040000000 1.0
C      1  0.4739040000000  0.4757560000000  0.4544770000000 1.0
C      1  0.4734360000000  0.4757560000000  0.5453220000000 1.0
C      1  0.5507690000000  0.5279760000000  0.5013500000000 1.0
C      1  0.4755970000000  0.5279770000000  0.4553180000000 1.0
C      1  0.4733180000000  0.5279760000000  0.5434350000000 1.0
C      1  0.6096790000000  0.4833950000000  0.4802530000000 1.0
C      1  0.4278720000000  0.4833960000000  0.4148490000000 1.0
C      1  0.4621340000000  0.4833950000000  0.6050010000000 1.0
C      1  0.6086370000000  0.5138350000000  0.4831760000000 1.0
C      1  0.4309240000000  0.5138360000000  0.4142900000000 1.0
C      1  0.4601240000000  0.5138350000000  0.6026370000000 1.0
C      1  0.4463350000000  0.5357590000000  0.4578200000000 1.0
C      1  0.4901160000000  0.5357580000000  0.5675260000000 1.0
C      1  0.5632330000000  0.5357590000000  0.4747570000000 1.0
C      1  0.4462590000000  0.4635720000000  0.4581250000000 1.0
C      1  0.4904180000000  0.4635710000000  0.5674390000000 1.0
C      1  0.5630070000000  0.4635720000000  0.4745390000000 1.0
C      1  0.4724490000000  0.4066130000000  0.4945450000000 1.0
C      1  0.5088640000000  0.4066130000000  0.5265470000000 1.0
C      1  0.5183710000000  0.4066130000000  0.4790100000000 1.0
C      1  0.4724550000000  0.5929190000000  0.4940520000000 1.0
C      1  0.5084340000000  0.5929190000000  0.5267900000000 1.0
C      1  0.5187960000000  0.5929190000000  0.4792630000000 1.0
C      1  0.5533780000000  0.5749710000000  0.5106910000000 1.0
C      1  0.4823820000000  0.5749720000000  0.4483890000000 1.0
C      1  0.4639240000000  0.5749710000000  0.5410240000000 1.0
C      1  0.5533000000000  0.4251020000000  0.5095100000000 1.0
C      1  0.4813980000000  0.4251020000000  0.4490460000000 1.0
C      1  0.4649850000000  0.4251020000000  0.5415460000000 1.0
C      1  0.4443710000000  0.5161070000000  0.5433530000000 1.0
C      1  0.5651720000000  0.5161070000000  0.5264600000000 1.0
C      1  0.4901420000000  0.5161070000000  0.4302900000000 1.0
C      1  0.4450160000000  0.4828230000000  0.5486300000000 1.0
C      1  0.5694190000000  0.4828230000000  0.5232630000000 1.0
C      1  0.4852490000000  0.4828240000000  0.4282110000000 1.0
C      1  0.4498540000000  0.5662600000000  0.4578470000000 1.0
C      1  0.4883790000000  0.5662590000000  0.5644650000000 1.0
C      1  0.5614510000000  0.5662600000000  0.4777920000000 1.0
C      1  0.4501200000000  0.4334230000000  0.4579370000000 1.0
C      1  0.4883250000000  0.4334230000000  0.5641890000000 1.0
C      1  0.5612390000000  0.4334230000000  0.4779760000000 1.0
C      1  0.4020960000000  0.4827850000000  0.4902150000000 1.0
C      1  0.5402910000000  0.4827850000000  0.5896400000000 1.0
C      1  0.5572980000000  0.4827850000000  0.4202470000000 1.0
C      1  0.3999030000000  0.5190420000000  0.4866210000000 1.0
C      1  0.5382740000000  0.5190420000000  0.5933360000000 1.0
C      1  0.5615070000000  0.5190430000000  0.4201460000000 1.0
C      1  0.4792290000000  0.4017290000000  0.5232840000000 1.0
C      1  0.5303630000000  0.4017290000000  0.5063060000000 1.0
C      1  0.4900920000000  0.4017300000000  0.4705120000000 1.0
C      1  0.4788940000000  0.5981520000000  0.5228910000000 1.0
C      1  0.5301890000000  0.5981520000000  0.5067940000000 1.0
C      1  0.4906010000000  0.5981520000000  0.4704200000000 1.0
C      1  0.5653790000000  0.4437050000000  0.5379100000000 1.0
C      1  0.4999540000000  0.4437060000000  0.4243850000000 1.0
C      1  0.4343510000000  0.4437060000000  0.5378070000000 1.0
C      1  0.5643870000000  0.5560470000000  0.5393810000000 1.0
C      1  0.5017230000000  0.5560480000000  0.4245090000000 1.0
C      1  0.4335740000000  0.5560470000000  0.5362140000000 1.0
C      1  0.5134390000000  0.5099630000000  0.4569430000000 1.0
C      1  0.4558050000000  0.5099620000000  0.5098500000000 1.0
C      1  0.5304400000000  0.5099620000000  0.5333100000000 1.0
C      1  0.5120020000000  0.4830100000000  0.4700450000000 1.0
C      1  0.4678700000000  0.4830100000000  0.5045440000000 1.0
C      1  0.5198130000000  0.4830100000000  0.5255140000000 1.0
C      1  0.5306740000000  0.5523780000000  0.5048020000000 1.0
C      1  0.4886340000000  0.5523780000000  0.4709950000000 1.0
C      1  0.4803760000000  0.5523780000000  0.5243070000000 1.0
C      1  0.5312480000000  0.4486700000000  0.5042520000000 1.0
C      1  0.4878710000000  0.4486700000000  0.4707730000000 1.0
C      1  0.4805650000000  0.4486700000000  0.5250780000000 1.0
C      1  0.5182080000000  0.4385190000000  0.4767290000000 1.0
C      1  0.4705550000000  0.4385190000000  0.4958270000000 1.0
C      1  0.5109210000000  0.4385190000000  0.5275460000000 1.0
C      1  0.5183640000000  0.5613080000000  0.4769410000000 1.0
C      1  0.4706600000000  0.5613080000000  0.4955860000000 1.0
C      1  0.5106600000000  0.5613080000000  0.5275770000000 1.0
C      1  0.5124170000000  0.4860380000000  0.6054550000000 1.0
C      1  0.5849300000000  0.4860390000000  0.4364790000000 1.0
C      1  0.4023370000000  0.4860390000000  0.4581690000000 1.0
C      1  0.5100430000000  0.5164650000000  0.6081920000000 1.0
C      1  0.5884870000000  0.5164660000000  0.4371670000000 1.0
C      1  0.4011530000000  0.5164660000000  0.4547450000000 1.0
C      1  0.4235720000000  0.4733300000000  0.4424030000000 1.0
C      1  0.4881460000000  0.4733290000000  0.5949470000000 1.0
C      1  0.5879660000000  0.4733300000000  0.4627530000000 1.0
C      1  0.4246910000000  0.5266340000000  0.4400050000000 1.0
C      1  0.4855100000000  0.5266330000000  0.5951780000000 1.0
C      1  0.5894840000000  0.5266340000000  0.4649210000000 1.0
C      1  0.5441490000000  0.4573330000000  0.5641310000000 1.0
C      1  0.5332770000000  0.4573330000000  0.4296600000000 1.0
C      1  0.4222580000000  0.4573330000000  0.5063110000000 1.0
C      1  0.5441980000000  0.5432500000000  0.5669280000000 1.0
C      1  0.5356750000000  0.5432510000000  0.4282200000000 1.0
C      1  0.4198120000000  0.5432510000000  0.5049560000000 1.0
C      1  0.6102310000000  0.5189250000000  0.5147840000000 1.0
C      1  0.4575000000000  0.5189250000000  0.3971050000000 1.0
C      1  0.4319530000000  0.5189250000000  0.5882140000000 1.0
C      1  0.6105470000000  0.4830030000000  0.5121570000000 1.0
C      1  0.4550670000000  0.4830040000000  0.3981460000000 1.0
C      1  0.4340700000000  0.4830030000000  0.5898000000000 1.0
C      1  0.4787380000000  0.4634440000000  0.4047280000000 1.0
C      1  0.4279350000000  0.4634430000000  0.5660090000000 1.0
C      1  0.5930100000000  0.4634430000000  0.5293650000000 1.0
C      1  0.4820090000000  0.5355020000000  0.4069580000000 1.0
C      1  0.4282310000000  0.5355020000000  0.5620620000000 1.0
C      1  0.5894440000000  0.5355020000000  0.5310830000000 1.0
C      1  0.5153970000000  0.4835080000000  0.4227100000000 1.0
C      1  0.4251780000000  0.4835080000000  0.5252710000000 1.0
C      1  0.5591090000000  0.4835070000000  0.5521220000000 1.0
C      1  0.5200250000000  0.5149460000000  0.4157930000000 1.0
C      1  0.4168750000000  0.5149450000000  0.5247220000000 1.0
C      1  0.5627850000000  0.5149450000000  0.5595880000000 1.0
C      1  0.4736850000000  0.5023050000000  0.4680290000000 1.0
C      1  0.5407170000000  0.5023050000000  0.4933390000000 1.0
C      1  0.4852820000000  0.5023050000000  0.5387350000000 1.0
C      1  0.4998950000000  0.4795860000000  0.5000340000000 1.0
END
