TITL C-862129-6180-684 0.000488248501924342 125000 -340.063077282666 0 0 60 (D2) n - 1
REM
REM in /home/nfs/bkarasulu/CARBON/AIRSS/Generating-Clusters/TERSOFF/Higher-Symm/FIRE-HFTN
REM
REM
REM
REM
REM
REM ./C.cell (b20cbc046b6831c77cfcea5457e17084)
REM AIRSS Version 0.9.1 bugfix July 2018 build 013d7b7c2542+ Fri, 06 Jul 2018 19:26:36 +0100
REM compiler GCC version 9.2.1 20190827 (Red Hat 9.2.1-1)
REM options -cpp -mtune=generic -march=x86-64 -g -O0 -fpre-include=/usr/include/finclude/math-vector-fortran.h
REM seed 1678719493 791292753 -617822982 1597985758 1242112215 885333741 886083212 -741957745 -887652317 553473464 -1582325341 -1785416261 1529040226 1569909581 798037700 2024949254 -978679439 -120865471 674451951 1261817358 1906953469 960144600 -482167481 323711025 227455682 -1037983106 1362499125 16484343 -1337464308 94028201 1806323967 1637558729 -1465339041
REM
CELL 1.54180   50.00000   50.00000   50.00000   90.00000   90.00000   90.00000
LATT -1
SFAC C  
C      1  0.4539950000000  0.5620260000000  0.4838220000000 1.0
C      1  0.4554770000000  0.5367490000000  0.5362080000000 1.0
C      1  0.4527950000000  0.4841500000000  0.5629430000000 1.0
C      1  0.4539950000000  0.4379740000000  0.5161780000000 1.0
C      1  0.4554770000000  0.4632510000000  0.4637920000000 1.0
C      1  0.4527950000000  0.5158500000000  0.4370570000000 1.0
C      1  0.4508400000000  0.5599890000000  0.5166410000000 1.0
C      1  0.4556980000000  0.5393960000000  0.4630040000000 1.0
C      1  0.4521790000000  0.4863490000000  0.4373710000000 1.0
C      1  0.4508400000000  0.4400110000000  0.4833590000000 1.0
C      1  0.4556980000000  0.4606040000000  0.5369960000000 1.0
C      1  0.4521790000000  0.5136510000000  0.5626290000000 1.0
C      1  0.5261840000000  0.5830080000000  0.4856670000000 1.0
C      1  0.5237380000000  0.5504820000000  0.5595980000000 1.0
C      1  0.5257200000000  0.4719750000000  0.5813330000000 1.0
C      1  0.5261840000000  0.4169920000000  0.5143330000000 1.0
C      1  0.5237380000000  0.4495180000000  0.4404020000000 1.0
C      1  0.5257200000000  0.5280250000000  0.4186670000000 1.0
C      1  0.5241010000000  0.5852860000000  0.5165330000000 1.0
C      1  0.5254280000000  0.5489610000000  0.4409890000000 1.0
C      1  0.5245660000000  0.4709190000000  0.4184220000000 1.0
C      1  0.5241010000000  0.4147140000000  0.4834670000000 1.0
C      1  0.5254280000000  0.4510390000000  0.5590110000000 1.0
C      1  0.5245660000000  0.5290810000000  0.5815780000000 1.0
C      1  0.5460040000000  0.4379740000000  0.4838220000000 1.0
C      1  0.5472050000000  0.4841500000000  0.4370570000000 1.0
C      1  0.5445230000000  0.5367490000000  0.4637920000000 1.0
C      1  0.5460040000000  0.5620260000000  0.5161780000000 1.0
C      1  0.5472050000000  0.5158500000000  0.5629430000000 1.0
C      1  0.5445230000000  0.4632510000000  0.5362080000000 1.0
C      1  0.5491600000000  0.4400110000000  0.5166410000000 1.0
C      1  0.5478210000000  0.4863490000000  0.5626290000000 1.0
C      1  0.5443020000000  0.5393960000000  0.5369950000000 1.0
C      1  0.5491600000000  0.5599890000000  0.4833590000000 1.0
C      1  0.5478210000000  0.5136510000000  0.4373710000000 1.0
C      1  0.5443020000000  0.4606040000000  0.4630050000000 1.0
C      1  0.4985150000000  0.5812370000000  0.5300470000000 1.0
C      1  0.4996870000000  0.5146990000000  0.5884400000000 1.0
C      1  0.5012410000000  0.4369710000000  0.5523340000000 1.0
C      1  0.4985150000000  0.4187630000000  0.4699530000000 1.0
C      1  0.4996870000000  0.4853010000000  0.4115600000000 1.0
C      1  0.5012410000000  0.5630290000000  0.4476660000000 1.0
C      1  0.5014850000000  0.5812370000000  0.4699530000000 1.0
C      1  0.5003130000000  0.5146990000000  0.4115600000000 1.0
C      1  0.4987590000000  0.4369710000000  0.4476660000000 1.0
C      1  0.5014850000000  0.4187630000000  0.5300470000000 1.0
C      1  0.5003130000000  0.4853010000000  0.5884400000000 1.0
C      1  0.4987590000000  0.5630290000000  0.5523340000000 1.0
C      1  0.4754340000000  0.5290810000000  0.4184220000000 1.0
C      1  0.4758990000000  0.5852860000000  0.4834660000000 1.0
C      1  0.4745720000000  0.5489610000000  0.5590110000000 1.0
C      1  0.4754340000000  0.4709190000000  0.5815780000000 1.0
C      1  0.4758990000000  0.4147140000000  0.5165340000000 1.0
C      1  0.4745720000000  0.4510390000000  0.4409890000000 1.0
C      1  0.4742800000000  0.5280250000000  0.5813330000000 1.0
C      1  0.4738160000000  0.5830080000000  0.5143330000000 1.0
C      1  0.4762620000000  0.5504820000000  0.4404020000000 1.0
C      1  0.4742800000000  0.4719750000000  0.4186670000000 1.0
C      1  0.4738160000000  0.4169920000000  0.4856670000000 1.0
C      1  0.4762620000000  0.4495180000000  0.5595980000000 1.0
END
