TITL C-862133-5440-495 0.000860885781499304 125000 -367.693225698919 0 0 65 (C3) n - 1
REM
REM in /home/nfs/bkarasulu/CARBON/AIRSS/Generating-Clusters/TERSOFF/Higher-Symm/FIRE-HFTN
REM
REM
REM
REM
REM
REM ./C.cell (b20cbc046b6831c77cfcea5457e17084)
REM AIRSS Version 0.9.1 bugfix July 2018 build 013d7b7c2542+ Fri, 06 Jul 2018 19:26:36 +0100
REM compiler GCC version 9.2.1 20190827 (Red Hat 9.2.1-1)
REM options -cpp -mtune=generic -march=x86-64 -g -O0 -fpre-include=/usr/include/finclude/math-vector-fortran.h
REM seed 1349821947 -1404599028 636074234 -1523636263 568772652 -760063881 -2085145543 -1827222786 1386532204 1984664767 -1452493950 81958596 -1503470155 482187647 167209953 -1368378743 2082408356 -1052067237 -964543473 -357386839 -114553535 1388001295 -1976656218 -746951248 -1800798685 260788801 -2112545195 -556130095 1730307339 378562286 1230852802 -1516979637 -1157889663
REM
CELL 1.54180   50.00000   50.00000   50.00000   90.00000   90.00000   90.00000
LATT -1
SFAC C  
C      1  0.5600740000000  0.5494490000000  0.5127080000000 1.0
C      1  0.5600770000000  0.4875740000000  0.4506470000000 1.0
C      1  0.5600740000000  0.4647650000000  0.5352620000000 1.0
C      1  0.5653360000000  0.4856780000000  0.5544120000000 1.0
C      1  0.5653380000000  0.5555760000000  0.4850220000000 1.0
C      1  0.5653400000000  0.4605330000000  0.4591830000000 1.0
C      1  0.5084710000000  0.4506060000000  0.5328650000000 1.0
C      1  0.5084700000000  0.5544520000000  0.5261640000000 1.0
C      1  0.5084740000000  0.4967260000000  0.4395810000000 1.0
C      1  0.4273360000000  0.5195740000000  0.5562280000000 1.0
C      1  0.4273400000000  0.5402020000000  0.4547490000000 1.0
C      1  0.4273400000000  0.4420040000000  0.4876240000000 1.0
C      1  0.5383490000000  0.5268480000000  0.5590870000000 1.0
C      1  0.5383540000000  0.5390400000000  0.4470280000000 1.0
C      1  0.5383530000000  0.4358980000000  0.4924980000000 1.0
C      1  0.4634360000000  0.5171980000000  0.4448630000000 1.0
C      1  0.4634350000000  0.4449460000000  0.5124910000000 1.0
C      1  0.4634320000000  0.5396390000000  0.5412490000000 1.0
C      1  0.4432310000000  0.4543760000000  0.4649380000000 1.0
C      1  0.4432260000000  0.4937410000000  0.5568580000000 1.0
C      1  0.4432280000000  0.5536640000000  0.4768060000000 1.0
C      1  0.4827050000000  0.5055720000000  0.4265310000000 1.0
C      1  0.4827020000000  0.4348810000000  0.5317270000000 1.0
C      1  0.4826990000000  0.5613300000000  0.5403490000000 1.0
C      1  0.4341050000000  0.5437240000000  0.5381200000000 1.0
C      1  0.4341100000000  0.5124450000000  0.4428890000000 1.0
C      1  0.4341080000000  0.4456120000000  0.5175920000000 1.0
C      1  0.5018130000000  0.5528420000000  0.4943910000000 1.0
C      1  0.5018160000000  0.4700150000000  0.4568620000000 1.0
C      1  0.5018120000000  0.4789270000000  0.5473570000000 1.0
C      1  0.4723750000000  0.5126940000000  0.5270660000000 1.0
C      1  0.4723770000000  0.5183870000000  0.4752910000000 1.0
C      1  0.4723770000000  0.4707020000000  0.4962480000000 1.0
C      1  0.5230970000000  0.5699380000000  0.4811410000000 1.0
C      1  0.5231010000000  0.4499920000000  0.4486820000000 1.0
C      1  0.5230950000000  0.4818550000000  0.5687880000000 1.0
C      1  0.5379600000000  0.4928710000000  0.4313320000000 1.0
C      1  0.5379560000000  0.4453890000000  0.5403310000000 1.0
C      1  0.5379550000000  0.5635260000000  0.5269510000000 1.0
C      1  0.5120180000000  0.5286080000000  0.5460220000000 1.0
C      1  0.5120220000000  0.5268460000000  0.4520340000000 1.0
C      1  0.5120210000000  0.4463310000000  0.5005550000000 1.0
C      1  0.4901560000000  0.5493180000000  0.4486170000000 1.0
C      1  0.4901570000000  0.4321360000000  0.4828000000000 1.0
C      1  0.4901520000000  0.5203300000000  0.5671910000000 1.0
C      1  0.4738930000000  0.4939710000000  0.5646040000000 1.0
C      1  0.4738950000000  0.5602570000000  0.4727370000000 1.0
C      1  0.4738980000000  0.4475540000000  0.4612650000000 1.0
C      1  0.5609070000000  0.5134100000000  0.5477570000000 1.0
C      1  0.5609100000000  0.5359470000000  0.4643320000000 1.0
C      1  0.5609110000000  0.4524300000000  0.4865270000000 1.0
C      1  0.5022710000000  0.4735340000000  0.4885300000000 1.0
C      1  0.5022690000000  0.5045930000000  0.5284750000000 1.0
C      1  0.5022710000000  0.5236570000000  0.4816050000000 1.0
C      1  0.4355440000000  0.5426590000000  0.5053140000000 1.0
C      1  0.4355470000000  0.4845670000000  0.4602130000000 1.0
C      1  0.4355440000000  0.4745550000000  0.5330730000000 1.0
C      1  0.4599580000000  0.4862640000000  0.5190910000000 1.0
C      1  0.4599580000000  0.5246950000000  0.5021660000000 1.0
C      1  0.4599590000000  0.4908220000000  0.4773470000000 1.0
C      1  0.5676070000000  0.5083670000000  0.4705250000000 1.0
C      1  0.5676060000000  0.4715830000000  0.5073160000000 1.0
C      1  0.5676050000000  0.5218370000000  0.5207760000000 1.0
C      1  0.5706560000000  0.5005960000000  0.4995390000000 1.0
C      1  0.5107530000000  0.5005950000000  0.4995370000000 1.0
END
