TITL C-862128-1543-32 2.73903079660702e-05 125000 -925.695892952346 0 0 180 (C6) n - 1
REM
REM in /home/nfs/bkarasulu/CARBON/AIRSS/Generating-Clusters/TERSOFF/Higher-Symm/FIRE-HFTN
REM
REM
REM
REM
REM
REM ./C.cell (b20cbc046b6831c77cfcea5457e17084)
REM AIRSS Version 0.9.1 bugfix July 2018 build 013d7b7c2542+ Fri, 06 Jul 2018 19:26:36 +0100
REM compiler GCC version 9.2.1 20190827 (Red Hat 9.2.1-1)
REM options -cpp -mtune=generic -march=x86-64 -g -O0 -fpre-include=/usr/include/finclude/math-vector-fortran.h
REM seed 1167299366 1063543405 -275858223 -438778779 795565952 -1269154188 14736350 -2051649834 -315252903 2085690206 309646852 -1752323007 -242140820 476326442 1000227124 -1816668210 -1200664245 1627172507 -873037803 -859949222 1637721083 126228463 -640352495 640010382 1707273175 -1195965415 -696760533 -2037517347 -1926644927 546629993 583129270 -87438569 917107034
REM
CELL 1.54180   50.00000   50.00000   50.00000   90.00000   90.00000   90.00000
LATT -1
SFAC C  
C      1  0.4843360000000  0.5158990000000  0.4739030000000 1.0
C      1  0.5147690000000  0.5158990000000  0.4733860000000 1.0
C      1  0.5304330000000  0.5158990000000  0.4994830000000 1.0
C      1  0.5156640000000  0.5158990000000  0.5260970000000 1.0
C      1  0.4852310000000  0.5158990000000  0.5266140000000 1.0
C      1  0.4695670000000  0.5158990000000  0.5005170000000 1.0
C      1  0.5156640000000  0.4841010000000  0.4739030000000 1.0
C      1  0.4852310000000  0.4841010000000  0.4733860000000 1.0
C      1  0.4695670000000  0.4841010000000  0.4994830000000 1.0
C      1  0.4843360000000  0.4841010000000  0.5260970000000 1.0
C      1  0.5147690000000  0.4841010000000  0.5266140000000 1.0
C      1  0.5304330000000  0.4841010000000  0.5005170000000 1.0
C      1  0.4261160000000  0.4435780000000  0.4275490000000 1.0
C      1  0.5258020000000  0.4435780000000  0.3997890000000 1.0
C      1  0.5996860000000  0.4435780000000  0.4722400000000 1.0
C      1  0.5738840000000  0.4435780000000  0.5724510000000 1.0
C      1  0.4741980000000  0.4435780000000  0.6002110000000 1.0
C      1  0.4003140000000  0.4435780000000  0.5277600000000 1.0
C      1  0.5738840000000  0.5564220000000  0.4275490000000 1.0
C      1  0.4741980000000  0.5564220000000  0.3997890000000 1.0
C      1  0.4003140000000  0.5564220000000  0.4722400000000 1.0
C      1  0.4261160000000  0.5564220000000  0.5724510000000 1.0
C      1  0.5258020000000  0.5564220000000  0.6002110000000 1.0
C      1  0.5996860000000  0.5564220000000  0.5277600000000 1.0
C      1  0.5838000000000  0.5038410000000  0.4272080000000 1.0
C      1  0.6049400000000  0.5038410000000  0.5361770000000 1.0
C      1  0.5211400000000  0.5038410000000  0.6089690000000 1.0
C      1  0.4162000000000  0.5038410000000  0.5727920000000 1.0
C      1  0.3950600000000  0.5038410000000  0.4638230000000 1.0
C      1  0.4788600000000  0.5038410000000  0.3910310000000 1.0
C      1  0.4162000000000  0.4961590000000  0.4272080000000 1.0
C      1  0.3950600000000  0.4961590000000  0.5361770000000 1.0
C      1  0.4788600000000  0.4961590000000  0.6089690000000 1.0
C      1  0.5838000000000  0.4961590000000  0.5727920000000 1.0
C      1  0.6049400000000  0.4961590000000  0.4638230000000 1.0
C      1  0.5211400000000  0.4961590000000  0.3910310000000 1.0
C      1  0.4989500000000  0.4571120000000  0.5545480000000 1.0
C      1  0.4522350000000  0.4571120000000  0.5263640000000 1.0
C      1  0.4532850000000  0.4571120000000  0.4718160000000 1.0
C      1  0.5010500000000  0.4571120000000  0.4454520000000 1.0
C      1  0.5477650000000  0.4571120000000  0.4736360000000 1.0
C      1  0.5467150000000  0.4571120000000  0.5281840000000 1.0
C      1  0.5010500000000  0.5428880000000  0.5545480000000 1.0
C      1  0.5477650000000  0.5428880000000  0.5263640000000 1.0
C      1  0.5467150000000  0.5428880000000  0.4718160000000 1.0
C      1  0.4989500000000  0.5428880000000  0.4454520000000 1.0
C      1  0.4522350000000  0.5428880000000  0.4736360000000 1.0
C      1  0.4532850000000  0.5428880000000  0.5281840000000 1.0
C      1  0.4090290000000  0.4614400000000  0.4687050000000 1.0
C      1  0.4816170000000  0.4614400000000  0.4055690000000 1.0
C      1  0.5725880000000  0.4614400000000  0.4368640000000 1.0
C      1  0.5909710000000  0.4614400000000  0.5312950000000 1.0
C      1  0.5183830000000  0.4614400000000  0.5944310000000 1.0
C      1  0.4274120000000  0.4614400000000  0.5631360000000 1.0
C      1  0.5909710000000  0.5385600000000  0.4687050000000 1.0
C      1  0.5183830000000  0.5385600000000  0.4055690000000 1.0
C      1  0.4274120000000  0.5385600000000  0.4368640000000 1.0
C      1  0.4090290000000  0.5385600000000  0.5312950000000 1.0
C      1  0.4816170000000  0.5385600000000  0.5944310000000 1.0
C      1  0.5725880000000  0.5385600000000  0.5631360000000 1.0
C      1  0.4885440000000  0.5795090000000  0.4161230000000 1.0
C      1  0.5669120000000  0.5795090000000  0.4481400000000 1.0
C      1  0.5783680000000  0.5795090000000  0.5320170000000 1.0
C      1  0.5114560000000  0.5795090000000  0.5838770000000 1.0
C      1  0.4330880000000  0.5795090000000  0.5518600000000 1.0
C      1  0.4216320000000  0.5795090000000  0.4679830000000 1.0
C      1  0.5114560000000  0.4204910000000  0.4161230000000 1.0
C      1  0.4330880000000  0.4204910000000  0.4481400000000 1.0
C      1  0.4216320000000  0.4204910000000  0.5320170000000 1.0
C      1  0.4885440000000  0.4204910000000  0.5838770000000 1.0
C      1  0.5669120000000  0.4204910000000  0.5518600000000 1.0
C      1  0.5783680000000  0.4204910000000  0.4679830000000 1.0
C      1  0.4738280000000  0.5610600000000  0.5161780000000 1.0
C      1  0.4729030000000  0.5610600000000  0.4854240000000 1.0
C      1  0.4990750000000  0.5610600000000  0.4692450000000 1.0
C      1  0.5261720000000  0.5610600000000  0.4838220000000 1.0
C      1  0.5270970000000  0.5610600000000  0.5145760000000 1.0
C      1  0.5009250000000  0.5610600000000  0.5307550000000 1.0
C      1  0.5261720000000  0.4389400000000  0.5161780000000 1.0
C      1  0.5270970000000  0.4389400000000  0.4854240000000 1.0
C      1  0.5009250000000  0.4389400000000  0.4692450000000 1.0
C      1  0.4738280000000  0.4389400000000  0.4838220000000 1.0
C      1  0.4729030000000  0.4389400000000  0.5145760000000 1.0
C      1  0.4990750000000  0.4389400000000  0.5307550000000 1.0
C      1  0.4472610000000  0.3926410000000  0.4602970000000 1.0
C      1  0.5080140000000  0.3926410000000  0.4344750000000 1.0
C      1  0.5607530000000  0.3926410000000  0.4741780000000 1.0
C      1  0.5527390000000  0.3926410000000  0.5397030000000 1.0
C      1  0.4919860000000  0.3926410000000  0.5655250000000 1.0
C      1  0.4392470000000  0.3926410000000  0.5258220000000 1.0
C      1  0.5527390000000  0.6073590000000  0.4602970000000 1.0
C      1  0.4919860000000  0.6073590000000  0.4344750000000 1.0
C      1  0.4392470000000  0.6073590000000  0.4741780000000 1.0
C      1  0.4472610000000  0.6073590000000  0.5397030000000 1.0
C      1  0.5080140000000  0.6073590000000  0.5655250000000 1.0
C      1  0.5607530000000  0.6073590000000  0.5258220000000 1.0
C      1  0.5497290000000  0.4995760000000  0.5442700000000 1.0
C      1  0.4865260000000  0.4995760000000  0.5652010000000 1.0
C      1  0.4367970000000  0.4995760000000  0.5209310000000 1.0
C      1  0.4502710000000  0.4995760000000  0.4557300000000 1.0
C      1  0.5134740000000  0.4995760000000  0.4347990000000 1.0
C      1  0.5632030000000  0.4995760000000  0.4790690000000 1.0
C      1  0.4502710000000  0.5004240000000  0.5442700000000 1.0
C      1  0.5134740000000  0.5004240000000  0.5652010000000 1.0
C      1  0.5632030000000  0.5004240000000  0.5209310000000 1.0
C      1  0.5497290000000  0.5004240000000  0.4557300000000 1.0
C      1  0.4865260000000  0.5004240000000  0.4347990000000 1.0
C      1  0.4367970000000  0.5004240000000  0.4790690000000 1.0
C      1  0.5188790000000  0.4322830000000  0.5817370000000 1.0
C      1  0.4386530000000  0.4322830000000  0.5572180000000 1.0
C      1  0.4197740000000  0.4322830000000  0.4754810000000 1.0
C      1  0.4811210000000  0.4322830000000  0.4182630000000 1.0
C      1  0.5613470000000  0.4322830000000  0.4427820000000 1.0
C      1  0.5802260000000  0.4322830000000  0.5245190000000 1.0
C      1  0.4811210000000  0.5677170000000  0.5817370000000 1.0
C      1  0.5613470000000  0.5677170000000  0.5572180000000 1.0
C      1  0.5802260000000  0.5677170000000  0.4754810000000 1.0
C      1  0.5188790000000  0.5677170000000  0.4182630000000 1.0
C      1  0.4386530000000  0.5677170000000  0.4427820000000 1.0
C      1  0.4197740000000  0.5677170000000  0.5245190000000 1.0
C      1  0.4161860000000  0.5315240000000  0.5600330000000 1.0
C      1  0.4061030000000  0.5315240000000  0.4574310000000 1.0
C      1  0.4899170000000  0.5315240000000  0.3973990000000 1.0
C      1  0.5838140000000  0.5315240000000  0.4399670000000 1.0
C      1  0.5938970000000  0.5315240000000  0.5425690000000 1.0
C      1  0.5100830000000  0.5315240000000  0.6026010000000 1.0
C      1  0.5838140000000  0.4684760000000  0.5600330000000 1.0
C      1  0.5938970000000  0.4684760000000  0.4574310000000 1.0
C      1  0.5100830000000  0.4684760000000  0.3973990000000 1.0
C      1  0.4161860000000  0.4684760000000  0.4399670000000 1.0
C      1  0.4061030000000  0.4684760000000  0.5425690000000 1.0
C      1  0.4899170000000  0.4684760000000  0.6026010000000 1.0
C      1  0.4759670000000  0.4054390000000  0.4728020000000 1.0
C      1  0.5115370000000  0.4054390000000  0.4655880000000 1.0
C      1  0.5355700000000  0.4054390000000  0.4927850000000 1.0
C      1  0.5240330000000  0.4054390000000  0.5271980000000 1.0
C      1  0.4884630000000  0.4054390000000  0.5344120000000 1.0
C      1  0.4644300000000  0.4054390000000  0.5072150000000 1.0
C      1  0.5240330000000  0.5945610000000  0.4728020000000 1.0
C      1  0.4884630000000  0.5945610000000  0.4655880000000 1.0
C      1  0.4644300000000  0.5945610000000  0.4927850000000 1.0
C      1  0.4759670000000  0.5945610000000  0.5271980000000 1.0
C      1  0.5115370000000  0.5945610000000  0.5344120000000 1.0
C      1  0.5355700000000  0.5945610000000  0.5072150000000 1.0
C      1  0.4686990000000  0.5266500000000  0.5562970000000 1.0
C      1  0.4355950000000  0.5266500000000  0.5010410000000 1.0
C      1  0.4668960000000  0.5266500000000  0.4447450000000 1.0
C      1  0.5313010000000  0.5266500000000  0.4437030000000 1.0
C      1  0.5644050000000  0.5266500000000  0.4989590000000 1.0
C      1  0.5331040000000  0.5266500000000  0.5552550000000 1.0
C      1  0.5313010000000  0.4733500000000  0.5562970000000 1.0
C      1  0.5644050000000  0.4733500000000  0.5010410000000 1.0
C      1  0.5331040000000  0.4733500000000  0.4447450000000 1.0
C      1  0.4686990000000  0.4733500000000  0.4437030000000 1.0
C      1  0.4355950000000  0.4733500000000  0.4989590000000 1.0
C      1  0.4668960000000  0.4733500000000  0.5552550000000 1.0
C      1  0.4660660000000  0.5734540000000  0.5554940000000 1.0
C      1  0.4349740000000  0.5734540000000  0.4983600000000 1.0
C      1  0.4689070000000  0.5734540000000  0.4428650000000 1.0
C      1  0.5339340000000  0.5734540000000  0.4445060000000 1.0
C      1  0.5650260000000  0.5734540000000  0.5016400000000 1.0
C      1  0.5310930000000  0.5734540000000  0.5571350000000 1.0
C      1  0.5339340000000  0.4265460000000  0.5554940000000 1.0
C      1  0.5650260000000  0.4265460000000  0.4983600000000 1.0
C      1  0.5310930000000  0.4265460000000  0.4428650000000 1.0
C      1  0.4660660000000  0.4265460000000  0.4445060000000 1.0
C      1  0.4349740000000  0.4265460000000  0.5016400000000 1.0
C      1  0.4689070000000  0.4265460000000  0.5571350000000 1.0
C      1  0.5573230000000  0.4841750000000  0.4184330000000 1.0
C      1  0.5993000000000  0.4841750000000  0.5088600000000 1.0
C      1  0.5419770000000  0.4841750000000  0.5904260000000 1.0
C      1  0.4426770000000  0.4841750000000  0.5815670000000 1.0
C      1  0.4007000000000  0.4841750000000  0.4911400000000 1.0
C      1  0.4580230000000  0.4841750000000  0.4095740000000 1.0
C      1  0.4426770000000  0.5158250000000  0.4184330000000 1.0
C      1  0.4007000000000  0.5158250000000  0.5088600000000 1.0
C      1  0.4580230000000  0.5158250000000  0.5904260000000 1.0
C      1  0.5573230000000  0.5158250000000  0.5815670000000 1.0
C      1  0.5993000000000  0.5158250000000  0.4911400000000 1.0
C      1  0.5419770000000  0.5158250000000  0.4095740000000 1.0
END
