TITL C-862131-2149-1325 9.61245052090962e-05 125000 -721.222298804018 0 0 130 (D5) n - 1
REM
REM in /home/nfs/bkarasulu/CARBON/AIRSS/Generating-Clusters/TERSOFF/Higher-Symm/FIRE-HFTN
REM
REM
REM
REM
REM
REM ./C.cell (b20cbc046b6831c77cfcea5457e17084)
REM AIRSS Version 0.9.1 bugfix July 2018 build 013d7b7c2542+ Fri, 06 Jul 2018 19:26:36 +0100
REM compiler GCC version 9.2.1 20190827 (Red Hat 9.2.1-1)
REM options -cpp -mtune=generic -march=x86-64 -g -O0 -fpre-include=/usr/include/finclude/math-vector-fortran.h
REM seed -928349372 952728263 -2144324219 -151330373 1046954560 1334764325 1992866515 -895443486 97055249 -298133919 1946464224 -76902673 749639073 -763023043 660994479 243252998 -808141118 1691543240 -1814562032 1417564882 -1070684871 -674925841 -1764895060 -23648011 754857397 1575526699 1070350802 936387271 340902939 1142839042 506346408 -1938075734 -1498342327
REM
CELL 1.54180   50.00000   50.00000   50.00000   90.00000   90.00000   90.00000
LATT -1
SFAC C  
C      1  0.4237880000000  0.5563660000000  0.4723800000000 1.0
C      1  0.4228420000000  0.4449360000000  0.4723800000000 1.0
C      1  0.5285260000000  0.4096020000000  0.4723800000000 1.0
C      1  0.5947880000000  0.4991950000000  0.4723800000000 1.0
C      1  0.5300570000000  0.5899000000000  0.4723800000000 1.0
C      1  0.5762120000000  0.5563660000000  0.5276200000000 1.0
C      1  0.5771580000000  0.4449360000000  0.5276200000000 1.0
C      1  0.4714740000000  0.4096020000000  0.5276200000000 1.0
C      1  0.4052120000000  0.4991950000000  0.5276200000000 1.0
C      1  0.4699430000000  0.5899000000000  0.5276200000000 1.0
C      1  0.5231750000000  0.4910120000000  0.4462500000000 1.0
C      1  0.5157100000000  0.5192630000000  0.4462500000000 1.0
C      1  0.4865340000000  0.5208930000000  0.4462500000000 1.0
C      1  0.4759680000000  0.4936500000000  0.4462500000000 1.0
C      1  0.4986130000000  0.4751820000000  0.4462500000000 1.0
C      1  0.4768250000000  0.4910120000000  0.5537500000000 1.0
C      1  0.4842900000000  0.5192630000000  0.5537500000000 1.0
C      1  0.5134660000000  0.5208930000000  0.5537500000000 1.0
C      1  0.5240320000000  0.4936500000000  0.5537500000000 1.0
C      1  0.5013870000000  0.4751820000000  0.5537500000000 1.0
C      1  0.4576450000000  0.4656800000000  0.5811620000000 1.0
C      1  0.5195520000000  0.4491130000000  0.5811620000000 1.0
C      1  0.5544380000000  0.5028700000000  0.5811620000000 1.0
C      1  0.5140930000000  0.5526610000000  0.5811620000000 1.0
C      1  0.4542710000000  0.5296760000000  0.5811620000000 1.0
C      1  0.5423550000000  0.4656800000000  0.4188380000000 1.0
C      1  0.4804480000000  0.4491130000000  0.4188380000000 1.0
C      1  0.4455620000000  0.5028700000000  0.4188380000000 1.0
C      1  0.4859070000000  0.5526610000000  0.4188380000000 1.0
C      1  0.5457290000000  0.5296760000000  0.4188380000000 1.0
C      1  0.5814820000000  0.5579340000000  0.4990270000000 1.0
C      1  0.4700810000000  0.5953970000000  0.4990270000000 1.0
C      1  0.4000270000000  0.5010240000000  0.4990270000000 1.0
C      1  0.4681330000000  0.4052360000000  0.4990270000000 1.0
C      1  0.5802780000000  0.4404090000000  0.4990270000000 1.0
C      1  0.4185180000000  0.5579340000000  0.5009730000000 1.0
C      1  0.5299190000000  0.5953970000000  0.5009730000000 1.0
C      1  0.5999730000000  0.5010240000000  0.5009730000000 1.0
C      1  0.5318670000000  0.4052360000000  0.5009730000000 1.0
C      1  0.4197220000000  0.4404090000000  0.5009730000000 1.0
C      1  0.5545120000000  0.5757830000000  0.5401110000000 1.0
C      1  0.4447710000000  0.5752620000000  0.5401110000000 1.0
C      1  0.4113550000000  0.4707310000000  0.5401110000000 1.0
C      1  0.5004430000000  0.4066490000000  0.5401110000000 1.0
C      1  0.5889190000000  0.4715740000000  0.5401110000000 1.0
C      1  0.4454880000000  0.5757830000000  0.4598890000000 1.0
C      1  0.5552290000000  0.5752620000000  0.4598890000000 1.0
C      1  0.5886450000000  0.4707310000000  0.4598890000000 1.0
C      1  0.4995570000000  0.4066490000000  0.4598890000000 1.0
C      1  0.4110810000000  0.4715740000000  0.4598890000000 1.0
C      1  0.4736500000000  0.5068730000000  0.5150920000000 1.0
C      1  0.4853210000000  0.4770630000000  0.5150920000000 1.0
C      1  0.5172780000000  0.4789520000000  0.5150920000000 1.0
C      1  0.5253570000000  0.5099280000000  0.5150920000000 1.0
C      1  0.4983940000000  0.5271840000000  0.5150920000000 1.0
C      1  0.5263500000000  0.5068730000000  0.4849080000000 1.0
C      1  0.5146790000000  0.4770630000000  0.4849080000000 1.0
C      1  0.4827220000000  0.4789520000000  0.4849080000000 1.0
C      1  0.4746430000000  0.5099280000000  0.4849080000000 1.0
C      1  0.5016060000000  0.5271840000000  0.4849080000000 1.0
C      1  0.4329550000000  0.4815020000000  0.5668970000000 1.0
C      1  0.4968750000000  0.4305210000000  0.5668970000000 1.0
C      1  0.5651130000000  0.4755580000000  0.5668980000000 1.0
C      1  0.5433670000000  0.5543730000000  0.5668970000000 1.0
C      1  0.4616890000000  0.5580470000000  0.5668970000000 1.0
C      1  0.5670450000000  0.4815020000000  0.4331030000000 1.0
C      1  0.5031250000000  0.4305210000000  0.4331030000000 1.0
C      1  0.4348870000000  0.4755580000000  0.4331020000000 1.0
C      1  0.4566330000000  0.5543730000000  0.4331030000000 1.0
C      1  0.5383110000000  0.5580470000000  0.4331030000000 1.0
C      1  0.4226170000000  0.5016070000000  0.4769760000000 1.0
C      1  0.4745590000000  0.4269010000000  0.4769760000000 1.0
C      1  0.5616590000000  0.4532160000000  0.4769760000000 1.0
C      1  0.5635480000000  0.5441840000000  0.4769760000000 1.0
C      1  0.4776160000000  0.5740920000000  0.4769760000000 1.0
C      1  0.5773830000000  0.5016070000000  0.5230240000000 1.0
C      1  0.5254410000000  0.4269010000000  0.5230240000000 1.0
C      1  0.4383410000000  0.4532160000000  0.5230240000000 1.0
C      1  0.4364520000000  0.5441840000000  0.5230240000000 1.0
C      1  0.5223840000000  0.5740920000000  0.5230240000000 1.0
C      1  0.4665210000000  0.4401500000000  0.5672810000000 1.0
C      1  0.5465750000000  0.4496650000000  0.5672810000000 1.0
C      1  0.5622640000000  0.5287420000000  0.5672810000000 1.0
C      1  0.4919060000000  0.5680980000000  0.5672810000000 1.0
C      1  0.4327340000000  0.5133450000000  0.5672810000000 1.0
C      1  0.5334790000000  0.4401500000000  0.4327190000000 1.0
C      1  0.4534250000000  0.4496650000000  0.4327190000000 1.0
C      1  0.4377360000000  0.5287420000000  0.4327190000000 1.0
C      1  0.5080940000000  0.5680980000000  0.4327190000000 1.0
C      1  0.5672660000000  0.5133450000000  0.4327190000000 1.0
C      1  0.4791400000000  0.5540160000000  0.5079590000000 1.0
C      1  0.4421820000000  0.4968530000000  0.5079590000000 1.0
C      1  0.4851260000000  0.4440390000000  0.5079590000000 1.0
C      1  0.5486260000000  0.4685610000000  0.5079590000000 1.0
C      1  0.5449260000000  0.5365310000000  0.5079590000000 1.0
C      1  0.5208600000000  0.5540160000000  0.4920410000000 1.0
C      1  0.5578180000000  0.4968530000000  0.4920410000000 1.0
C      1  0.5148740000000  0.4440390000000  0.4920410000000 1.0
C      1  0.4513740000000  0.4685610000000  0.4920410000000 1.0
C      1  0.4550740000000  0.5365310000000  0.4920410000000 1.0
C      1  0.4232030000000  0.5287240000000  0.4593810000000 1.0
C      1  0.4489500000000  0.4358380000000  0.4593810000000 1.0
C      1  0.5452460000000  0.4316220000000  0.4593810000000 1.0
C      1  0.5790140000000  0.5219020000000  0.4593810000000 1.0
C      1  0.5035870000000  0.5819140000000  0.4593810000000 1.0
C      1  0.5767970000000  0.5287240000000  0.5406190000000 1.0
C      1  0.5510500000000  0.4358380000000  0.5406190000000 1.0
C      1  0.4547540000000  0.4316220000000  0.5406190000000 1.0
C      1  0.4209860000000  0.5219020000000  0.5406190000000 1.0
C      1  0.4964130000000  0.5819140000000  0.5406190000000 1.0
C      1  0.4501040000000  0.4861620000000  0.4600010000000 1.0
C      1  0.4977420000000  0.4482700000000  0.4600010000000 1.0
C      1  0.5485010000000  0.4818670000000  0.4600010000000 1.0
C      1  0.5322330000000  0.5405230000000  0.4600010000000 1.0
C      1  0.4714210000000  0.5431780000000  0.4600010000000 1.0
C      1  0.5498960000000  0.4861620000000  0.5399990000000 1.0
C      1  0.5022580000000  0.4482700000000  0.5399990000000 1.0
C      1  0.4514990000000  0.4818670000000  0.5399990000000 1.0
C      1  0.4677670000000  0.5405230000000  0.5399990000000 1.0
C      1  0.5285790000000  0.5431780000000  0.5399990000000 1.0
C      1  0.4791950000000  0.4830450000000  0.5948950000000 1.0
C      1  0.5096960000000  0.4749740000000  0.5948950000000 1.0
C      1  0.5267970000000  0.5014880000000  0.5948950000000 1.0
C      1  0.5068660000000  0.5259450000000  0.5948950000000 1.0
C      1  0.4774460000000  0.5145470000000  0.5948950000000 1.0
C      1  0.5208050000000  0.4830450000000  0.4051050000000 1.0
C      1  0.4903040000000  0.4749740000000  0.4051050000000 1.0
C      1  0.4732030000000  0.5014880000000  0.4051050000000 1.0
C      1  0.4931340000000  0.5259450000000  0.4051050000000 1.0
C      1  0.5225540000000  0.5145470000000  0.4051050000000 1.0
END
