TITL C-862507-1800-608 3577124.17033434 125000 -659.950414542879 0 0 114 (C1) n - 1
REM
REM in /home/nfs/bkarasulu/CARBON/AIRSS/Generating-Clusters/TERSOFF/Higher-Symm/FIRE-HFTN
REM
REM
REM
REM
REM
REM ./C.cell (b20cbc046b6831c77cfcea5457e17084)
REM AIRSS Version 0.9.1 bugfix July 2018 build 013d7b7c2542+ Fri, 06 Jul 2018 19:26:36 +0100
REM compiler GCC version 9.2.1 20190827 (Red Hat 9.2.1-1)
REM options -cpp -mtune=generic -march=x86-64 -g -O0 -fpre-include=/usr/include/finclude/math-vector-fortran.h
REM seed -1050279223 1331673395 -1766681704 1763274853 -1606235565 -2146714301 1231157489 1769308140 -630992484 1700248598 -1673394656 -1870934794 535027855 2008155307 -1948182772 1988356169 -1430968733 1491214167 -1113303085 873416999 804375273 -1340465106 -1143615173 815866687 1815766308 1730373690 -1576626909 -520963207 -1565991366 -1069760090 927132897 -186158215 1302841091
REM
CELL 1.54180   50.00000   50.00000   50.00000   90.00000   90.00000   90.00000
LATT -1
SFAC C  
C      1  0.5608990000000  0.4789270000000  0.4100090000000 1.0
C      1  0.4321730000000  0.5244660000000  0.4075630000000 1.0
C      1  0.4699290000000  0.5176770000000  0.5988070000000 1.0
C      1  0.5295540000000  0.4818190000000  0.5980910000000 1.0
C      1  0.5141060000000  0.4827770000000  0.5220920000000 1.0
C      1  0.4836150000000  0.5170450000000  0.5217090000000 1.0
C      1  0.5271730000000  0.4648790000000  0.4451500000000 1.0
C      1  0.4710650000000  0.5386190000000  0.4357010000000 1.0
C      1  0.5866520000000  0.4605000000000  0.5262850000000 1.0
C      1  0.4135470000000  0.5409340000000  0.5261370000000 1.0
C      1  0.5887620000000  0.5014480000000  0.4822520000000 1.0
C      1  0.4151500000000  0.4994100000000  0.4824360000000 1.0
C      1  0.4480450000000  0.4852950000000  0.5176220000000 1.0
C      1  0.5541300000000  0.5138410000000  0.5162600000000 1.0
C      1  0.4798080000000  0.4644670000000  0.5555000000000 1.0
C      1  0.5200520000000  0.5350360000000  0.5544620000000 1.0
C      1  0.4676940000000  0.5697250000000  0.5209950000000 1.0
C      1  0.5331040000000  0.4303980000000  0.5203890000000 1.0
C      1  0.5208890000000  0.5279540000000  0.6026640000000 1.0
C      1  0.4787120000000  0.4715660000000  0.6034780000000 1.0
C      1  0.4583980000000  0.5713470000000  0.5485990000000 1.0
C      1  0.5430440000000  0.4283860000000  0.5477530000000 1.0
C      1  0.4444200000000  0.5446200000000  0.4256410000000 1.0
C      1  0.5474810000000  0.4577040000000  0.4252190000000 1.0
C      1  0.5377970000000  0.5085630000000  0.5878730000000 1.0
C      1  0.4615020000000  0.4908450000000  0.5888920000000 1.0
C      1  0.4482640000000  0.5672270000000  0.4989970000000 1.0
C      1  0.5521580000000  0.4348400000000  0.4978750000000 1.0
C      1  0.4785660000000  0.4406400000000  0.5718930000000 1.0
C      1  0.5214670000000  0.5588050000000  0.5709520000000 1.0
C      1  0.5160020000000  0.5782300000000  0.4925960000000 1.0
C      1  0.4846220000000  0.4213400000000  0.4931010000000 1.0
C      1  0.5365380000000  0.5376640000000  0.5142720000000 1.0
C      1  0.4646570000000  0.4608880000000  0.5142330000000 1.0
C      1  0.5514160000000  0.4299460000000  0.4176110000000 1.0
C      1  0.4371230000000  0.5724900000000  0.4226660000000 1.0
C      1  0.5651270000000  0.5705730000000  0.4706740000000 1.0
C      1  0.4358950000000  0.4277300000000  0.4710780000000 1.0
C      1  0.4446800000000  0.4354600000000  0.5219210000000 1.0
C      1  0.5557790000000  0.5639770000000  0.5216400000000 1.0
C      1  0.5497550000000  0.5844280000000  0.5422580000000 1.0
C      1  0.4505060000000  0.4152280000000  0.5428230000000 1.0
C      1  0.4215100000000  0.4883100000000  0.5079270000000 1.0
C      1  0.5810630000000  0.5127770000000  0.5072220000000 1.0
C      1  0.5378390000000  0.5294490000000  0.3852690000000 1.0
C      1  0.4805590000000  0.4581790000000  0.3958410000000 1.0
C      1  0.5043260000000  0.5934800000000  0.4708100000000 1.0
C      1  0.4966120000000  0.4073230000000  0.4707590000000 1.0
C      1  0.4528390000000  0.5945460000000  0.4323690000000 1.0
C      1  0.5392230000000  0.4074120000000  0.4307840000000 1.0
C      1  0.4598410000000  0.5985030000000  0.4599130000000 1.0
C      1  0.5369030000000  0.4043860000000  0.4593370000000 1.0
C      1  0.4851760000000  0.6121090000000  0.5439200000000 1.0
C      1  0.5150810000000  0.3874440000000  0.5443780000000 1.0
C      1  0.4864830000000  0.5197270000000  0.4213870000000 1.0
C      1  0.5141070000000  0.4905250000000  0.4445830000000 1.0
C      1  0.5564680000000  0.4134870000000  0.4784740000000 1.0
C      1  0.4434000000000  0.5905250000000  0.4822140000000 1.0
C      1  0.4167710000000  0.5004970000000  0.4152970000000 1.0
C      1  0.5837410000000  0.4943490000000  0.4194710000000 1.0
C      1  0.5223520000000  0.5266160000000  0.4898140000000 1.0
C      1  0.4721420000000  0.4703290000000  0.4866480000000 1.0
C      1  0.4707000000000  0.4696950000000  0.4205820000000 1.0
C      1  0.5384160000000  0.5280820000000  0.4141900000000 1.0
C      1  0.4239770000000  0.4547880000000  0.5335630000000 1.0
C      1  0.5762730000000  0.5448630000000  0.5338930000000 1.0
C      1  0.4574390000000  0.5429430000000  0.5907810000000 1.0
C      1  0.5419700000000  0.4565300000000  0.5901270000000 1.0
C      1  0.4238940000000  0.4810320000000  0.4363050000000 1.0
C      1  0.5819260000000  0.5186430000000  0.4356610000000 1.0
C      1  0.4825400000000  0.5474970000000  0.4613280000000 1.0
C      1  0.5093650000000  0.4457870000000  0.4583610000000 1.0
C      1  0.4982560000000  0.5689450000000  0.5173830000000 1.0
C      1  0.5022740000000  0.4306570000000  0.5180050000000 1.0
C      1  0.5527220000000  0.4507330000000  0.5633370000000 1.0
C      1  0.4476580000000  0.5490920000000  0.5636570000000 1.0
C      1  0.3941770000000  0.4565260000000  0.4681640000000 1.0
C      1  0.6087670000000  0.5448720000000  0.4683970000000 1.0
C      1  0.4075730000000  0.4322120000000  0.4757320000000 1.0
C      1  0.5936060000000  0.5681180000000  0.4757570000000 1.0
C      1  0.4218170000000  0.5275530000000  0.4782960000000 1.0
C      1  0.5807580000000  0.4736180000000  0.4780580000000 1.0
C      1  0.5113160000000  0.4996900000000  0.4953530000000 1.0
C      1  0.4817910000000  0.4987690000000  0.4906600000000 1.0
C      1  0.4750560000000  0.4154800000000  0.5579680000000 1.0
C      1  0.5252280000000  0.5841230000000  0.5574210000000 1.0
C      1  0.4974350000000  0.4101050000000  0.5403520000000 1.0
C      1  0.5029790000000  0.5895840000000  0.5397750000000 1.0
C      1  0.5561300000000  0.5642930000000  0.4435940000000 1.0
C      1  0.4456000000000  0.4338590000000  0.4443280000000 1.0
C      1  0.4460120000000  0.4608550000000  0.4322760000000 1.0
C      1  0.5604340000000  0.5382610000000  0.4294220000000 1.0
C      1  0.4083410000000  0.4809060000000  0.4609470000000 1.0
C      1  0.5963330000000  0.5197830000000  0.4607960000000 1.0
C      1  0.5354900000000  0.4872130000000  0.5427980000000 1.0
C      1  0.4643090000000  0.5129330000000  0.5446730000000 1.0
C      1  0.4583770000000  0.4863650000000  0.5594330000000 1.0
C      1  0.5411650000000  0.5131240000000  0.5584260000000 1.0
C      1  0.5462570000000  0.5730400000000  0.4938520000000 1.0
C      1  0.4542560000000  0.4253760000000  0.4944200000000 1.0
C      1  0.5035020000000  0.4842380000000  0.6137530000000 1.0
C      1  0.4964100000000  0.5153460000000  0.6137340000000 1.0
C      1  0.4265970000000  0.5336640000000  0.5511360000000 1.0
C      1  0.5732260000000  0.4670490000000  0.5512120000000 1.0
C      1  0.4928730000000  0.4607830000000  0.5279400000000 1.0
C      1  0.5064730000000  0.5384910000000  0.5268360000000 1.0
C      1  0.5164590000000  0.5179410000000  0.4289320000000 1.0
C      1  0.4843430000000  0.4912900000000  0.4331830000000 1.0
C      1  0.4303200000000  0.4748420000000  0.5542320000000 1.0
C      1  0.5693970000000  0.5244410000000  0.5539210000000 1.0
C      1  0.5730900000000  0.4561040000000  0.5005210000000 1.0
C      1  0.4275090000000  0.5457990000000  0.5006800000000 1.0
C      1  0.4811170000000  0.4521760000000  0.4648130000000 1.0
C      1  0.5113750000000  0.5442000000000  0.4684530000000 1.0
END
