TITL C-862127-1500-1028 -0.00420749330511944 125000 -319.771233092848 0 0 58 (C3) n - 1
REM
REM in /home/nfs/bkarasulu/CARBON/AIRSS/Generating-Clusters/TERSOFF/Higher-Symm/FIRE-HFTN
REM
REM
REM
REM
REM
REM ./C.cell (b20cbc046b6831c77cfcea5457e17084)
REM AIRSS Version 0.9.1 bugfix July 2018 build 013d7b7c2542+ Fri, 06 Jul 2018 19:26:36 +0100
REM compiler GCC version 9.2.1 20190827 (Red Hat 9.2.1-1)
REM options -cpp -mtune=generic -march=x86-64 -g -O0 -fpre-include=/usr/include/finclude/math-vector-fortran.h
REM seed -1466250056 -4503774 -1493863411 1208809682 103673948 -984995231 -574583395 -332532254 1076122636 1419366352 2004739327 1634217469 1611758173 -1652102842 1277852917 1176248028 507752531 1821029554 1202248089 1042810289 -1783526802 -2139216785 -645442258 1173588361 101840739 -697058166 -480851609 -1123470560 2112000606 580871832 -1049810426 749255429 1579043587
REM
CELL 1.54180   50.00000   50.00000   50.00000   90.00000   90.00000   90.00000
LATT -1
SFAC C  
C      1  0.4954470000000  0.4604320000000  0.5327130000000 1.0
C      1  0.4742990000000  0.4603920000000  0.4801390000000 1.0
C      1  0.5304040000000  0.4603590000000  0.4881120000000 1.0
C      1  0.5046410000000  0.5391830000000  0.5325540000000 1.0
C      1  0.5258300000000  0.5391120000000  0.4801560000000 1.0
C      1  0.4698570000000  0.5391620000000  0.4880050000000 1.0
C      1  0.5250480000000  0.4236650000000  0.5169600000000 1.0
C      1  0.4731340000000  0.4237000000000  0.5137330000000 1.0
C      1  0.5018850000000  0.4236330000000  0.4703870000000 1.0
C      1  0.4748930000000  0.5761690000000  0.5163080000000 1.0
C      1  0.5267100000000  0.5761270000000  0.5140070000000 1.0
C      1  0.4988080000000  0.5761020000000  0.4702820000000 1.0
C      1  0.4174280000000  0.5282240000000  0.5405400000000 1.0
C      1  0.5065440000000  0.5280170000000  0.4085080000000 1.0
C      1  0.5763300000000  0.5281160000000  0.5517010000000 1.0
C      1  0.5756340000000  0.4767630000000  0.5430760000000 1.0
C      1  0.4993180000000  0.4766830000000  0.4134710000000 1.0
C      1  0.4252350000000  0.4768770000000  0.5443650000000 1.0
C      1  0.4765430000000  0.4309130000000  0.4849560000000 1.0
C      1  0.5251040000000  0.4308800000000  0.4877120000000 1.0
C      1  0.4984370000000  0.4309430000000  0.5283890000000 1.0
C      1  0.5238290000000  0.5686600000000  0.4852090000000 1.0
C      1  0.4752940000000  0.5686990000000  0.4871830000000 1.0
C      1  0.5012710000000  0.5687230000000  0.5282280000000 1.0
C      1  0.5332840000000  0.5325290000000  0.4516070000000 1.0
C      1  0.5256360000000  0.5326420000000  0.5532980000000 1.0
C      1  0.4413930000000  0.5326450000000  0.4958290000000 1.0
C      1  0.4673990000000  0.4670630000000  0.4515310000000 1.0
C      1  0.4741360000000  0.4671650000000  0.5529870000000 1.0
C      1  0.5586300000000  0.4670420000000  0.4964240000000 1.0
C      1  0.5023770000000  0.4333840000000  0.4418990000000 1.0
C      1  0.5494760000000  0.4334430000000  0.5316080000000 1.0
C      1  0.4482370000000  0.4335150000000  0.5275420000000 1.0
C      1  0.4990430000000  0.5671630000000  0.4416380000000 1.0
C      1  0.4499500000000  0.5672940000000  0.5304350000000 1.0
C      1  0.5513970000000  0.5672160000000  0.5285520000000 1.0
C      1  0.5048870000000  0.4762500000000  0.4765770000000 1.0
C      1  0.5181980000000  0.4762820000000  0.5163460000000 1.0
C      1  0.4771010000000  0.4763040000000  0.5079900000000 1.0
C      1  0.4953240000000  0.5232510000000  0.4765170000000 1.0
C      1  0.4819260000000  0.5233030000000  0.5162570000000 1.0
C      1  0.5230410000000  0.5232630000000  0.5079910000000 1.0
C      1  0.5202540000000  0.5171830000000  0.5771910000000 1.0
C      1  0.4233880000000  0.5171530000000  0.4792570000000 1.0
C      1  0.5566350000000  0.5170160000000  0.4443360000000 1.0
C      1  0.4793300000000  0.4811460000000  0.5778070000000 1.0
C      1  0.5775570000000  0.4809690000000  0.4795040000000 1.0
C      1  0.4433100000000  0.4810310000000  0.4435880000000 1.0
C      1  0.5144170000000  0.5434860000000  0.4321010000000 1.0
C      1  0.5519650000000  0.5435780000000  0.5466880000000 1.0
C      1  0.4339560000000  0.5436410000000  0.5219110000000 1.0
C      1  0.4878200000000  0.4578080000000  0.4327450000000 1.0
C      1  0.4476370000000  0.4579560000000  0.5447030000000 1.0
C      1  0.5646870000000  0.4578460000000  0.5235240000000 1.0
C      1  0.5842900000000  0.5041180000000  0.5368490000000 1.0
C      1  0.4263050000000  0.5042560000000  0.5549140000000 1.0
C      1  0.4896530000000  0.5040540000000  0.4090620000000 1.0
C      1  0.5000800000000  0.4997660000000  0.5002800000000 1.0
END
