TITL C-862130-1496-1039 -0.00118621124052763 125000 -474.454560747087 0 0 84 (C1) n - 1
REM
REM in /home/nfs/bkarasulu/CARBON/AIRSS/Generating-Clusters/TERSOFF/Higher-Symm/FIRE-HFTN
REM
REM
REM
REM
REM
REM ./C.cell (b20cbc046b6831c77cfcea5457e17084)
REM AIRSS Version 0.9.1 bugfix July 2018 build 013d7b7c2542+ Fri, 06 Jul 2018 19:26:36 +0100
REM compiler GCC version 9.2.1 20190827 (Red Hat 9.2.1-1)
REM options -cpp -mtune=generic -march=x86-64 -g -O0 -fpre-include=/usr/include/finclude/math-vector-fortran.h
REM seed -1357109242 2099849389 -556837429 -1533949656 1093478960 -1115875036 -1312505297 419135974 -2140245658 -2062919636 -527301167 -2090806530 1307089008 -1934778984 -1829924499 579002779 349233429 594397350 1563431625 1854314581 1220383949 863266669 581925239 -88446101 -983129432 -2014121466 -1067950924 2097144760 -2079443594 -1331711686 614255131 -369793213 2104345610
REM
CELL 1.54180   50.00000   50.00000   50.00000   90.00000   90.00000   90.00000
LATT -1
SFAC C  
C      1  0.4823140000000  0.5273050000000  0.5778840000000 1.0
C      1  0.5551590000000  0.4321700000000  0.4911600000000 1.0
C      1  0.5179100000000  0.5081280000000  0.4641210000000 1.0
C      1  0.4383160000000  0.5237820000000  0.4554520000000 1.0
C      1  0.5730800000000  0.4819750000000  0.5045040000000 1.0
C      1  0.4216780000000  0.5216580000000  0.5449170000000 1.0
C      1  0.4337290000000  0.5176500000000  0.5706070000000 1.0
C      1  0.5327520000000  0.5472680000000  0.4477380000000 1.0
C      1  0.4755870000000  0.5302280000000  0.5288300000000 1.0
C      1  0.5081460000000  0.4163190000000  0.5024580000000 1.0
C      1  0.4701940000000  0.4356760000000  0.4407350000000 1.0
C      1  0.4605990000000  0.5075800000000  0.5740010000000 1.0
C      1  0.4910930000000  0.4321650000000  0.4618080000000 1.0
C      1  0.4925450000000  0.4409040000000  0.5460010000000 1.0
C      1  0.5332440000000  0.4801090000000  0.4913740000000 1.0
C      1  0.4980880000000  0.4629570000000  0.5686610000000 1.0
C      1  0.4616240000000  0.5087550000000  0.4480410000000 1.0
C      1  0.4277960000000  0.5055730000000  0.5218330000000 1.0
C      1  0.5224970000000  0.4852340000000  0.5345470000000 1.0
C      1  0.5117130000000  0.4368910000000  0.5231190000000 1.0
C      1  0.5091220000000  0.5085290000000  0.5436730000000 1.0
C      1  0.5035510000000  0.4595860000000  0.4699120000000 1.0
C      1  0.5361880000000  0.4310100000000  0.5384300000000 1.0
C      1  0.4988920000000  0.4764870000000  0.4182910000000 1.0
C      1  0.5653510000000  0.5288570000000  0.5239320000000 1.0
C      1  0.5648810000000  0.5108500000000  0.5007540000000 1.0
C      1  0.4409650000000  0.5452830000000  0.4954160000000 1.0
C      1  0.5724150000000  0.4818740000000  0.5364190000000 1.0
C      1  0.5385410000000  0.5121450000000  0.4869490000000 1.0
C      1  0.4865410000000  0.5209480000000  0.4393130000000 1.0
C      1  0.4393750000000  0.5160290000000  0.4967140000000 1.0
C      1  0.4779700000000  0.5648940000000  0.4250230000000 1.0
C      1  0.4823820000000  0.4223090000000  0.4896110000000 1.0
C      1  0.5103340000000  0.5932460000000  0.4736440000000 1.0
C      1  0.5727280000000  0.5122980000000  0.5476100000000 1.0
C      1  0.5425900000000  0.5487560000000  0.5250440000000 1.0
C      1  0.4763210000000  0.4738310000000  0.5042410000000 1.0
C      1  0.5299800000000  0.5580240000000  0.4994190000000 1.0
C      1  0.4807250000000  0.5550110000000  0.5676560000000 1.0
C      1  0.4879100000000  0.5434620000000  0.4039040000000 1.0
C      1  0.5314950000000  0.4146050000000  0.4829740000000 1.0
C      1  0.5028010000000  0.5680550000000  0.5524230000000 1.0
C      1  0.4593090000000  0.5553180000000  0.5159590000000 1.0
C      1  0.5326380000000  0.5336620000000  0.5721010000000 1.0
C      1  0.4880310000000  0.5736170000000  0.4781560000000 1.0
C      1  0.4522470000000  0.4673150000000  0.4771410000000 1.0
C      1  0.5509750000000  0.5338980000000  0.4666090000000 1.0
C      1  0.5452880000000  0.4887000000000  0.5788780000000 1.0
C      1  0.4875200000000  0.5254150000000  0.5016880000000 1.0
C      1  0.5313890000000  0.4506250000000  0.5602280000000 1.0
C      1  0.4719050000000  0.5026420000000  0.4883430000000 1.0
C      1  0.4960740000000  0.4892790000000  0.4705520000000 1.0
C      1  0.4988680000000  0.5936530000000  0.5392940000000 1.0
C      1  0.5291120000000  0.5539230000000  0.5511050000000 1.0
C      1  0.5461720000000  0.4751690000000  0.5516490000000 1.0
C      1  0.4716660000000  0.4948910000000  0.5305420000000 1.0
C      1  0.5613420000000  0.4837840000000  0.4518660000000 1.0
C      1  0.4499070000000  0.4401700000000  0.4634160000000 1.0
C      1  0.5112880000000  0.4684430000000  0.5111900000000 1.0
C      1  0.5574000000000  0.4619650000000  0.4787300000000 1.0
C      1  0.4451360000000  0.4645500000000  0.5433900000000 1.0
C      1  0.5171820000000  0.4168080000000  0.4567640000000 1.0
C      1  0.5595150000000  0.4303380000000  0.5205020000000 1.0
C      1  0.5346630000000  0.5848570000000  0.4876540000000 1.0
C      1  0.5568890000000  0.5159740000000  0.5729400000000 1.0
C      1  0.5298000000000  0.5068420000000  0.4162630000000 1.0
C      1  0.4269210000000  0.4766580000000  0.4891960000000 1.0
C      1  0.5250830000000  0.4642250000000  0.4277220000000 1.0
C      1  0.4196860000000  0.5053850000000  0.4743540000000 1.0
C      1  0.5149560000000  0.4880930000000  0.5836140000000 1.0
C      1  0.5294590000000  0.4569390000000  0.4565800000000 1.0
C      1  0.4444560000000  0.5513470000000  0.4653300000000 1.0
C      1  0.5065700000000  0.5354820000000  0.4577110000000 1.0
C      1  0.4687660000000  0.4811840000000  0.5581470000000 1.0
C      1  0.4734340000000  0.4644780000000  0.4299000000000 1.0
C      1  0.4692450000000  0.5649960000000  0.4554490000000 1.0
C      1  0.4602730000000  0.4807870000000  0.4503500000000 1.0
C      1  0.4990570000000  0.5115480000000  0.4117470000000 1.0
C      1  0.5026920000000  0.5460670000000  0.4864290000000 1.0
C      1  0.5081150000000  0.5157610000000  0.5726170000000 1.0
C      1  0.5382220000000  0.5008560000000  0.4434740000000 1.0
C      1  0.4743720000000  0.5773940000000  0.5046590000000 1.0
C      1  0.4263660000000  0.4762380000000  0.5222040000000 1.0
C      1  0.4688870000000  0.4423090000000  0.5064140000000 1.0
END
