TITL C-862133-5440-1376 -0.000231195495353464 125000 -350.545630896843 0 0 74 (C2) n - 1
REM
REM in /home/nfs/bkarasulu/CARBON/AIRSS/Generating-Clusters/TERSOFF/Higher-Symm/FIRE-HFTN
REM
REM
REM
REM
REM
REM ./C.cell (b20cbc046b6831c77cfcea5457e17084)
REM AIRSS Version 0.9.1 bugfix July 2018 build 013d7b7c2542+ Fri, 06 Jul 2018 19:26:36 +0100
REM compiler GCC version 9.2.1 20190827 (Red Hat 9.2.1-1)
REM options -cpp -mtune=generic -march=x86-64 -g -O0 -fpre-include=/usr/include/finclude/math-vector-fortran.h
REM seed -1770066828 -110727249 963572952 -2076277037 1490968030 912044607 -724444691 1684177004 -1959017361 214660812 -1540772941 -37996426 488760763 1849224830 -188208282 -2094492126 1831957621 876169689 -1949865949 1074587395 -1235104848 1829975789 -597784401 -1250381019 -1920860374 -159828963 -1804999641 -461189488 -401546438 -1251273011 -1865907011 -705410433 -981466916
REM
CELL 1.54180   50.00000   50.00000   50.00000   90.00000   90.00000   90.00000
LATT -1
SFAC C  
C      1  0.4522150000000  0.4398010000000  0.5139560000000 1.0
C      1  0.4521030000000  0.5601110000000  0.4860510000000 1.0
C      1  0.5434570000000  0.4429300000000  0.5163090000000 1.0
C      1  0.5433500000000  0.5571490000000  0.4836850000000 1.0
C      1  0.4525470000000  0.5625210000000  0.5199680000000 1.0
C      1  0.4526580000000  0.4373920000000  0.4800390000000 1.0
C      1  0.5442390000000  0.5583980000000  0.5170500000000 1.0
C      1  0.5443430000000  0.4416820000000  0.4829430000000 1.0
C      1  0.4674780000000  0.5188200000000  0.5153720000000 1.0
C      1  0.4675100000000  0.4811210000000  0.4846330000000 1.0
C      1  0.5470860000000  0.5165490000000  0.5150780000000 1.0
C      1  0.5471140000000  0.4835360000000  0.4849150000000 1.0
C      1  0.4684580000000  0.4875290000000  0.5168950000000 1.0
C      1  0.4684330000000  0.5124130000000  0.4831090000000 1.0
C      1  0.5468440000000  0.4847810000000  0.5162600000000 1.0
C      1  0.5468140000000  0.5153030000000  0.4837330000000 1.0
C      1  0.4796530000000  0.4826310000000  0.5667380000000 1.0
C      1  0.4796110000000  0.5173310000000  0.4332650000000 1.0
C      1  0.5135900000000  0.4837720000000  0.5645540000000 1.0
C      1  0.5135510000000  0.5162520000000  0.4354440000000 1.0
C      1  0.4821010000000  0.5173870000000  0.5649310000000 1.0
C      1  0.4821230000000  0.4825800000000  0.4350710000000 1.0
C      1  0.5151320000000  0.5166440000000  0.5632320000000 1.0
C      1  0.5151530000000  0.4833830000000  0.4367660000000 1.0
C      1  0.4810890000000  0.4376980000000  0.4601820000000 1.0
C      1  0.4809810000000  0.5622670000000  0.5398210000000 1.0
C      1  0.5152970000000  0.4387880000000  0.4617910000000 1.0
C      1  0.5151910000000  0.5612390000000  0.5382070000000 1.0
C      1  0.4791160000000  0.5588720000000  0.4642850000000 1.0
C      1  0.4792290000000  0.4410890000000  0.5357180000000 1.0
C      1  0.5135160000000  0.5587350000000  0.4639930000000 1.0
C      1  0.5136280000000  0.4412890000000  0.5360050000000 1.0
C      1  0.4851410000000  0.4729890000000  0.5355210000000 1.0
C      1  0.4850870000000  0.5269830000000  0.4644810000000 1.0
C      1  0.5179130000000  0.4758630000000  0.5304710000000 1.0
C      1  0.5178650000000  0.5241690000000  0.4695270000000 1.0
C      1  0.4864930000000  0.5308500000000  0.5341690000000 1.0
C      1  0.4865440000000  0.4691250000000  0.4658330000000 1.0
C      1  0.5190280000000  0.5267990000000  0.5287560000000 1.0
C      1  0.5190730000000  0.4732350000000  0.4712420000000 1.0
C      1  0.4325280000000  0.4733430000000  0.4881290000000 1.0
C      1  0.4324810000000  0.5265340000000  0.5118810000000 1.0
C      1  0.5789420000000  0.4729060000000  0.4844390000000 1.0
C      1  0.5788950000000  0.5272370000000  0.5155500000000 1.0
C      1  0.4386450000000  0.5147520000000  0.4851180000000 1.0
C      1  0.4386740000000  0.4851360000000  0.5148910000000 1.0
C      1  0.5787860000000  0.5265590000000  0.4829660000000 1.0
C      1  0.5788360000000  0.4735830000000  0.5170220000000 1.0
C      1  0.4215280000000  0.4832530000000  0.5398030000000 1.0
C      1  0.4214920000000  0.5166030000000  0.4602080000000 1.0
C      1  0.5746680000000  0.4842400000000  0.5476530000000 1.0
C      1  0.5746320000000  0.5158960000000  0.4523360000000 1.0
C      1  0.4213740000000  0.5176910000000  0.5405170000000 1.0
C      1  0.4214000000000  0.4821650000000  0.4594950000000 1.0
C      1  0.5753140000000  0.5168210000000  0.5461550000000 1.0
C      1  0.5753380000000  0.4833160000000  0.4538340000000 1.0
C      1  0.4612640000000  0.5464330000000  0.4360290000000 1.0
C      1  0.4613580000000  0.4534960000000  0.5639760000000 1.0
C      1  0.5292500000000  0.5446850000000  0.4348370000000 1.0
C      1  0.5293410000000  0.4553680000000  0.5651590000000 1.0
C      1  0.4643510000000  0.4549010000000  0.4332440000000 1.0
C      1  0.4642780000000  0.5450330000000  0.5667610000000 1.0
C      1  0.5308650000000  0.4555330000000  0.4351110000000 1.0
C      1  0.5307940000000  0.5445220000000  0.5648840000000 1.0
C      1  0.4387600000000  0.5455860000000  0.5486190000000 1.0
C      1  0.4388350000000  0.4543020000000  0.4513900000000 1.0
C      1  0.5555080000000  0.5427390000000  0.5467680000000 1.0
C      1  0.5555780000000  0.4573610000000  0.4532240000000 1.0
C      1  0.4372580000000  0.4543500000000  0.5433660000000 1.0
C      1  0.4371680000000  0.5455350000000  0.4566430000000 1.0
C      1  0.5545370000000  0.4575880000000  0.5472670000000 1.0
C      1  0.5544530000000  0.5425110000000  0.4527250000000 1.0
C      1  0.5081580000000  0.4991220000000  0.4857420000000 1.0
C      1  0.5081590000000  0.5008930000000  0.5142570000000 1.0
END
