TITL C-862507-1800-1349 -0.00225482151162183 125000 -562.198537925765 0 0 100 (C4) n - 1
REM
REM in /home/nfs/bkarasulu/CARBON/AIRSS/Generating-Clusters/TERSOFF/Higher-Symm/FIRE-HFTN
REM
REM
REM
REM
REM
REM ./C.cell (b20cbc046b6831c77cfcea5457e17084)
REM AIRSS Version 0.9.1 bugfix July 2018 build 013d7b7c2542+ Fri, 06 Jul 2018 19:26:36 +0100
REM compiler GCC version 9.2.1 20190827 (Red Hat 9.2.1-1)
REM options -cpp -mtune=generic -march=x86-64 -g -O0 -fpre-include=/usr/include/finclude/math-vector-fortran.h
REM seed 1606665354 940977323 -1379472423 1770679453 -1317470572 1177127458 -814829120 -594780778 1309216161 1668377336 921682308 48050825 1307194022 1120175208 -26103892 -944871305 485764109 -260934062 752144805 -725714973 346369773 1593364535 -1020412793 1483351177 -863007454 1640253294 954273275 -2087987590 -101616014 -194000661 1887225599 1641204967 1452703705
REM
CELL 1.54180   50.00000   50.00000   50.00000   90.00000   90.00000   90.00000
LATT -1
SFAC C  
C      1  0.4478450000000  0.5136090000000  0.4658690000000 1.0
C      1  0.4478450000000  0.5341310000000  0.5136090000000 1.0
C      1  0.4478450000000  0.4863910000000  0.5341310000000 1.0
C      1  0.4478450000000  0.4658690000000  0.4863910000000 1.0
C      1  0.4522810000000  0.5145200000000  0.5340410000000 1.0
C      1  0.4522810000000  0.5340410000000  0.4854800000000 1.0
C      1  0.4522810000000  0.4854800000000  0.4659590000000 1.0
C      1  0.4522810000000  0.4659590000000  0.5145200000000 1.0
C      1  0.5152000000000  0.4409470000000  0.5353080000000 1.0
C      1  0.5152000000000  0.4646920000000  0.4409470000000 1.0
C      1  0.5152000000000  0.5590530000000  0.4646920000000 1.0
C      1  0.5152000000000  0.5353080000000  0.5590530000000 1.0
C      1  0.5120690000000  0.4388490000000  0.4661640000000 1.0
C      1  0.5120690000000  0.4661640000000  0.5611510000000 1.0
C      1  0.5120690000000  0.5611510000000  0.5338360000000 1.0
C      1  0.5120690000000  0.5338360000000  0.4388490000000 1.0
C      1  0.4832160000000  0.5392290000000  0.4832440000000 1.0
C      1  0.4832160000000  0.5167560000000  0.5392290000000 1.0
C      1  0.4832160000000  0.4607710000000  0.5167560000000 1.0
C      1  0.4832160000000  0.4832440000000  0.4607710000000 1.0
C      1  0.4796610000000  0.5409440000000  0.5164490000000 1.0
C      1  0.4796610000000  0.5164490000000  0.4590560000000 1.0
C      1  0.4796610000000  0.4590560000000  0.4835510000000 1.0
C      1  0.4796610000000  0.4835510000000  0.5409440000000 1.0
C      1  0.5575650000000  0.4236280000000  0.4853520000000 1.0
C      1  0.5575650000000  0.5146480000000  0.4236280000000 1.0
C      1  0.5575650000000  0.5763720000000  0.5146480000000 1.0
C      1  0.5575650000000  0.4853520000000  0.5763720000000 1.0
C      1  0.5607610000000  0.4227690000000  0.5150010000000 1.0
C      1  0.5607610000000  0.5150010000000  0.5772310000000 1.0
C      1  0.5607610000000  0.5772310000000  0.4849990000000 1.0
C      1  0.5607610000000  0.4849990000000  0.4227690000000 1.0
C      1  0.5324740000000  0.5281670000000  0.4181630000000 1.0
C      1  0.5324740000000  0.5818370000000  0.5281670000000 1.0
C      1  0.5324740000000  0.4718330000000  0.5818370000000 1.0
C      1  0.5324740000000  0.4181630000000  0.4718330000000 1.0
C      1  0.5374870000000  0.5333580000000  0.5794770000000 1.0
C      1  0.5374870000000  0.5794760000000  0.4666420000000 1.0
C      1  0.5374870000000  0.4666420000000  0.4205240000000 1.0
C      1  0.5374870000000  0.4205230000000  0.5333580000000 1.0
C      1  0.4545770000000  0.4569200000000  0.4353850000000 1.0
C      1  0.4545770000000  0.5646150000000  0.4569200000000 1.0
C      1  0.4545770000000  0.5430800000000  0.5646150000000 1.0
C      1  0.4545770000000  0.4353850000000  0.5430800000000 1.0
C      1  0.4533080000000  0.4571820000000  0.5637650000000 1.0
C      1  0.4533080000000  0.5637650000000  0.5428180000000 1.0
C      1  0.4533080000000  0.5428180000000  0.4362350000000 1.0
C      1  0.4533080000000  0.4362360000000  0.4571820000000 1.0
C      1  0.4281020000000  0.5662020000000  0.4734490000000 1.0
C      1  0.4281020000000  0.5265510000000  0.5662020000000 1.0
C      1  0.4281020000000  0.4337980000000  0.5265500000000 1.0
C      1  0.4281020000000  0.4734500000000  0.4337980000000 1.0
C      1  0.4250960000000  0.5659960000000  0.5287900000000 1.0
C      1  0.4250960000000  0.5287900000000  0.4340040000000 1.0
C      1  0.4250960000000  0.4340040000000  0.4712100000000 1.0
C      1  0.4250960000000  0.4712100000000  0.5659960000000 1.0
C      1  0.4110240000000  0.4834790000000  0.4588810000000 1.0
C      1  0.4110240000000  0.5411190000000  0.4834790000000 1.0
C      1  0.4110240000000  0.5165210000000  0.5411190000000 1.0
C      1  0.4110240000000  0.4588810000000  0.5165210000000 1.0
C      1  0.4069800000000  0.4823080000000  0.5402230000000 1.0
C      1  0.4069800000000  0.5402230000000  0.5176920000000 1.0
C      1  0.4069800000000  0.5176920000000  0.4597770000000 1.0
C      1  0.4069800000000  0.4597770000000  0.4823080000000 1.0
C      1  0.5871580000000  0.5344890000000  0.5161650000000 1.0
C      1  0.5871580000000  0.4838350000000  0.5344890000000 1.0
C      1  0.5871580000000  0.4655110000000  0.4838350000000 1.0
C      1  0.5871580000000  0.5161650000000  0.4655110000000 1.0
C      1  0.5932200000000  0.5360380000000  0.4867350000000 1.0
C      1  0.5932200000000  0.4867350000000  0.4639620000000 1.0
C      1  0.5932200000000  0.4639620000000  0.5132650000000 1.0
C      1  0.5932200000000  0.5132650000000  0.5360380000000 1.0
C      1  0.5211760000000  0.5163280000000  0.4646290000000 1.0
C      1  0.5211760000000  0.5353710000000  0.5163280000000 1.0
C      1  0.5211760000000  0.4836720000000  0.5353710000000 1.0
C      1  0.5211760000000  0.4646290000000  0.4836720000000 1.0
C      1  0.5271350000000  0.5127770000000  0.5359970000000 1.0
C      1  0.5271350000000  0.5359970000000  0.4872230000000 1.0
C      1  0.5271350000000  0.4872230000000  0.4640030000000 1.0
C      1  0.5271350000000  0.4640030000000  0.5127770000000 1.0
C      1  0.4816820000000  0.5699510000000  0.5262400000000 1.0
C      1  0.4816820000000  0.4737600000000  0.5699510000000 1.0
C      1  0.4816820000000  0.4300490000000  0.4737600000000 1.0
C      1  0.4816820000000  0.5262400000000  0.4300490000000 1.0
C      1  0.4837040000000  0.5691380000000  0.4730360000000 1.0
C      1  0.4837040000000  0.4730360000000  0.4308620000000 1.0
C      1  0.4837040000000  0.4308620000000  0.5269640000000 1.0
C      1  0.4837040000000  0.5269640000000  0.5691380000000 1.0
C      1  0.5765930000000  0.4721950000000  0.5591490000000 1.0
C      1  0.5765930000000  0.4408510000000  0.4721950000000 1.0
C      1  0.5765930000000  0.5278050000000  0.4408510000000 1.0
C      1  0.5765930000000  0.5591490000000  0.5278050000000 1.0
C      1  0.5854390000000  0.4764810000000  0.4367420000000 1.0
C      1  0.5854390000000  0.4367420000000  0.5235190000000 1.0
C      1  0.5854390000000  0.5235190000000  0.5632580000000 1.0
C      1  0.5854390000000  0.5632580000000  0.4764810000000 1.0
C      1  0.4811300000000  0.5843970000000  0.4993480000000 1.0
C      1  0.4811300000000  0.4156030000000  0.5006520000000 1.0
C      1  0.4811300000000  0.4993480000000  0.4156030000000 1.0
C      1  0.4811300000000  0.5006520000000  0.5843970000000 1.0
END
