TITL C-862502-1143-821 0.00344775852631393 125000 -505.178579688564 0 0 89 (C1) n - 1
REM
REM in /home/nfs/bkarasulu/CARBON/AIRSS/Generating-Clusters/TERSOFF/Higher-Symm/FIRE-HFTN
REM
REM
REM
REM
REM
REM ./C.cell (b20cbc046b6831c77cfcea5457e17084)
REM AIRSS Version 0.9.1 bugfix July 2018 build 013d7b7c2542+ Fri, 06 Jul 2018 19:26:36 +0100
REM compiler GCC version 9.2.1 20190827 (Red Hat 9.2.1-1)
REM options -cpp -mtune=generic -march=x86-64 -g -O0 -fpre-include=/usr/include/finclude/math-vector-fortran.h
REM seed -1353237097 1147583543 851369006 994431952 -1859255721 -1727865792 1925114129 -337007701 461001679 290498173 1754029730 -1712165895 1065873360 -699135747 1985113797 176200651 -346493710 -1670700625 -299772838 -1980113708 1916383509 -1838021892 1751178787 1404379847 1202362239 -416706657 -228303337 -2024098668 -422374933 1958363558 2035818472 1897423124 729841717
REM
CELL 1.54180   50.00000   50.00000   50.00000   90.00000   90.00000   90.00000
LATT -1
SFAC C  
C      1  0.5745710000000  0.4870290000000  0.5336690000000 1.0
C      1  0.4915400000000  0.5327460000000  0.5773180000000 1.0
C      1  0.5329780000000  0.5719270000000  0.4945240000000 1.0
C      1  0.4278020000000  0.4871140000000  0.4687900000000 1.0
C      1  0.4264000000000  0.5120500000000  0.5306510000000 1.0
C      1  0.5739790000000  0.5098710000000  0.4642230000000 1.0
C      1  0.5066380000000  0.5340560000000  0.4239270000000 1.0
C      1  0.5065990000000  0.4677330000000  0.5763370000000 1.0
C      1  0.4914260000000  0.4661040000000  0.4238500000000 1.0
C      1  0.4705070000000  0.5721980000000  0.5076800000000 1.0
C      1  0.4683150000000  0.4277150000000  0.4925720000000 1.0
C      1  0.5288200000000  0.4289270000000  0.5087640000000 1.0
C      1  0.5313500000000  0.4875830000000  0.5742930000000 1.0
C      1  0.5720020000000  0.5286670000000  0.4895720000000 1.0
C      1  0.4908760000000  0.5724980000000  0.5324310000000 1.0
C      1  0.4666300000000  0.4882600000000  0.4235560000000 1.0
C      1  0.5297200000000  0.5120620000000  0.4257320000000 1.0
C      1  0.4670800000000  0.5120520000000  0.5735700000000 1.0
C      1  0.4256620000000  0.5332850000000  0.5065040000000 1.0
C      1  0.5749520000000  0.4662250000000  0.5077060000000 1.0
C      1  0.4241560000000  0.4668490000000  0.4927920000000 1.0
C      1  0.5117010000000  0.5668450000000  0.4716820000000 1.0
C      1  0.4901590000000  0.4278320000000  0.4696400000000 1.0
C      1  0.5074630000000  0.4292560000000  0.5314760000000 1.0
C      1  0.4263710000000  0.5548770000000  0.5301180000000 1.0
C      1  0.5535420000000  0.5332320000000  0.4229230000000 1.0
C      1  0.5288800000000  0.4256430000000  0.5546230000000 1.0
C      1  0.5733920000000  0.5520990000000  0.4682150000000 1.0
C      1  0.5729910000000  0.4451020000000  0.5318970000000 1.0
C      1  0.4250370000000  0.4452070000000  0.4691130000000 1.0
C      1  0.4436680000000  0.5331850000000  0.5750510000000 1.0
C      1  0.4449300000000  0.4653630000000  0.4241550000000 1.0
C      1  0.5542720000000  0.4658870000000  0.5765540000000 1.0
C      1  0.4685260000000  0.4244510000000  0.4466640000000 1.0
C      1  0.4687780000000  0.5746340000000  0.5551430000000 1.0
C      1  0.5303600000000  0.5733850000000  0.4469050000000 1.0
C      1  0.5304520000000  0.5548500000000  0.4244540000000 1.0
C      1  0.4241400000000  0.5336710000000  0.5536370000000 1.0
C      1  0.5511390000000  0.4257240000000  0.5312530000000 1.0
C      1  0.4675660000000  0.5539910000000  0.5757660000000 1.0
C      1  0.5297860000000  0.4456430000000  0.5758230000000 1.0
C      1  0.4680470000000  0.4441440000000  0.4251350000000 1.0
C      1  0.5748260000000  0.5328670000000  0.4426950000000 1.0
C      1  0.4248470000000  0.4661370000000  0.4451250000000 1.0
C      1  0.5748900000000  0.4651180000000  0.5562340000000 1.0
C      1  0.4461890000000  0.4250170000000  0.4698500000000 1.0
C      1  0.5531990000000  0.5728930000000  0.4696150000000 1.0
C      1  0.4482720000000  0.5742510000000  0.5304790000000 1.0
C      1  0.5580320000000  0.4856640000000  0.4599010000000 1.0
C      1  0.4829400000000  0.4654140000000  0.5578580000000 1.0
C      1  0.4721110000000  0.5449710000000  0.4927800000000 1.0
C      1  0.4454860000000  0.4898350000000  0.5327400000000 1.0
C      1  0.4478680000000  0.5084070000000  0.4674680000000 1.0
C      1  0.5582210000000  0.5116760000000  0.5365190000000 1.0
C      1  0.5140770000000  0.4650750000000  0.4430760000000 1.0
C      1  0.5151470000000  0.5349270000000  0.5597370000000 1.0
C      1  0.4844300000000  0.5361710000000  0.4430780000000 1.0
C      1  0.5358730000000  0.5534940000000  0.5172750000000 1.0
C      1  0.5278110000000  0.4553350000000  0.4934980000000 1.0
C      1  0.4692220000000  0.4544970000000  0.5074860000000 1.0
C      1  0.4663670000000  0.4901400000000  0.5540510000000 1.0
C      1  0.5556880000000  0.4640470000000  0.4849010000000 1.0
C      1  0.4945580000000  0.5419020000000  0.4716720000000 1.0
C      1  0.5310710000000  0.4903930000000  0.4457850000000 1.0
C      1  0.4619990000000  0.5125800000000  0.4404150000000 1.0
C      1  0.5332290000000  0.5100850000000  0.5558780000000 1.0
C      1  0.4417360000000  0.4645270000000  0.5167790000000 1.0
C      1  0.5515500000000  0.5274970000000  0.5107080000000 1.0
C      1  0.4448850000000  0.5340360000000  0.4840930000000 1.0
C      1  0.5085440000000  0.5471240000000  0.5316870000000 1.0
C      1  0.4922310000000  0.4555880000000  0.5302150000000 1.0
C      1  0.5050920000000  0.4545260000000  0.4703860000000 1.0
C      1  0.5705740000000  0.4644800000000  0.4364560000000 1.0
C      1  0.4409440000000  0.4345340000000  0.5591700000000 1.0
C      1  0.5626360000000  0.4429560000000  0.4618200000000 1.0
C      1  0.4368390000000  0.5512830000000  0.4598040000000 1.0
C      1  0.4656820000000  0.4441010000000  0.5702580000000 1.0
C      1  0.4624900000000  0.5587460000000  0.4365130000000 1.0
C      1  0.4392700000000  0.5344230000000  0.4284170000000 1.0
C      1  0.5386650000000  0.4476900000000  0.4358100000000 1.0
C      1  0.4294930000000  0.4437740000000  0.5345170000000 1.0
C      1  0.5723550000000  0.5379820000000  0.5456400000000 1.0
C      1  0.5341260000000  0.5582870000000  0.5652350000000 1.0
C      1  0.5538740000000  0.5615160000000  0.5432000000000 1.0
C      1  0.5097820000000  0.5176140000000  0.4820290000000 1.0
C      1  0.4877140000000  0.5319070000000  0.5157710000000 1.0
C      1  0.5132100000000  0.4744590000000  0.5141280000000 1.0
C      1  0.4832000000000  0.4719690000000  0.4848890000000 1.0
C      1  0.4977550000000  0.4955830000000  0.4972820000000 1.0
END
