TITL C-862506-1665-57 -0.0454939508612504 125000 -959.84714481396 0 0 165 (S4) n - 1
REM
REM in /home/nfs/bkarasulu/CARBON/AIRSS/Generating-Clusters/TERSOFF/Higher-Symm/FIRE-HFTN
REM
REM
REM
REM
REM
REM ./C.cell (b20cbc046b6831c77cfcea5457e17084)
REM AIRSS Version 0.9.1 bugfix July 2018 build 013d7b7c2542+ Fri, 06 Jul 2018 19:26:36 +0100
REM compiler GCC version 9.2.1 20190827 (Red Hat 9.2.1-1)
REM options -cpp -mtune=generic -march=x86-64 -g -O0 -fpre-include=/usr/include/finclude/math-vector-fortran.h
REM seed 180402489 1728528028 1093558125 -347042072 -201750344 -2059429111 -451272293 950740859 1905293418 1978811728 1666853155 26329360 -1355177123 935692726 -645667972 1925778426 -981888657 -489101441 1553598246 -1480869222 -747557431 -695804341 1432469402 -728364084 -921147417 2106307618 -664571039 -1685108438 -678382766 -1822824925 1196805813 -16149880 -383132529
REM
CELL 1.54180   50.00000   50.00000   50.00000   90.00000   90.00000   90.00000
LATT -1
SFAC C  
C      1  0.4111700000000  0.4552360000000  0.5694430000000 1.0
C      1  0.5883590000000  0.4307880000000  0.4554110000000 1.0
C      1  0.4111730000000  0.5448220000000  0.4309520000000 1.0
C      1  0.5883520000000  0.5692800000000  0.5449970000000 1.0
C      1  0.5227160000000  0.4028590000000  0.4803160000000 1.0
C      1  0.4768170000000  0.5199160000000  0.4030270000000 1.0
C      1  0.5227090000000  0.5972050000000  0.5200870000000 1.0
C      1  0.4768110000000  0.4801460000000  0.5973720000000 1.0
C      1  0.6273030000000  0.4920240000000  0.4509720000000 1.0
C      1  0.3722250000000  0.5492610000000  0.4921850000000 1.0
C      1  0.6272990000000  0.5080460000000  0.5494390000000 1.0
C      1  0.3722270000000  0.4507940000000  0.5082070000000 1.0
C      1  0.5076390000000  0.5202890000000  0.5439220000000 1.0
C      1  0.4918860000000  0.4563100000000  0.5204570000000 1.0
C      1  0.5076430000000  0.4797750000000  0.4564800000000 1.0
C      1  0.4918850000000  0.5437520000000  0.4799430000000 1.0
C      1  0.5501500000000  0.5688690000000  0.4695820000000 1.0
C      1  0.4493720000000  0.5306510000000  0.5690350000000 1.0
C      1  0.5501520000000  0.4311970000000  0.5308230000000 1.0
C      1  0.4493790000000  0.4694090000000  0.4313630000000 1.0
C      1  0.3954400000000  0.4739700000000  0.5496880000000 1.0
C      1  0.6040880000000  0.4505440000000  0.4741460000000 1.0
C      1  0.3954420000000  0.5260870000000  0.4507060000000 1.0
C      1  0.6040830000000  0.5495250000000  0.5262630000000 1.0
C      1  0.5775020000000  0.5563000000000  0.5696180000000 1.0
C      1  0.4220210000000  0.4306140000000  0.5564640000000 1.0
C      1  0.5775100000000  0.4437680000000  0.4307890000000 1.0
C      1  0.4220210000000  0.5694440000000  0.4439320000000 1.0
C      1  0.5409800000000  0.5911420000000  0.5413550000000 1.0
C      1  0.4585400000000  0.4588770000000  0.5913080000000 1.0
C      1  0.5409890000000  0.4089230000000  0.4590490000000 1.0
C      1  0.4585440000000  0.5411830000000  0.4090900000000 1.0
C      1  0.5415450000000  0.5509590000000  0.4900950000000 1.0
C      1  0.4579790000000  0.5101370000000  0.5511260000000 1.0
C      1  0.5415470000000  0.4491060000000  0.5103090000000 1.0
C      1  0.4579830000000  0.4899230000000  0.4492730000000 1.0
C      1  0.4862050000000  0.5053420000000  0.5554240000000 1.0
C      1  0.5133210000000  0.4448080000000  0.5055120000000 1.0
C      1  0.4862100000000  0.4947200000000  0.4449760000000 1.0
C      1  0.5133180000000  0.5552560000000  0.4948900000000 1.0
C      1  0.5147170000000  0.3977740000000  0.5263430000000 1.0
C      1  0.4848160000000  0.4738890000000  0.3979420000000 1.0
C      1  0.5147130000000  0.6022900000000  0.4740590000000 1.0
C      1  0.4848070000000  0.5261730000000  0.6024580000000 1.0
C      1  0.5793980000000  0.4607980000000  0.5647200000000 1.0
C      1  0.4201310000000  0.4355130000000  0.4609620000000 1.0
C      1  0.5794000000000  0.5392690000000  0.4356870000000 1.0
C      1  0.4201250000000  0.5645460000000  0.5394330000000 1.0
C      1  0.4697820000000  0.5034140000000  0.6127960000000 1.0
C      1  0.5297430000000  0.3874360000000  0.5035850000000 1.0
C      1  0.4697910000000  0.4966470000000  0.3876030000000 1.0
C      1  0.5297370000000  0.6126290000000  0.4968190000000 1.0
C      1  0.5348090000000  0.4658000000000  0.4058090000000 1.0
C      1  0.4647210000000  0.5944230000000  0.4659670000000 1.0
C      1  0.5348000000000  0.5342650000000  0.5945950000000 1.0
C      1  0.4647240000000  0.4056380000000  0.5344320000000 1.0
C      1  0.6149410000000  0.5009570000000  0.4254650000000 1.0
C      1  0.3845860000000  0.5747680000000  0.5011190000000 1.0
C      1  0.6149360000000  0.4991120000000  0.5749450000000 1.0
C      1  0.3845900000000  0.4252880000000  0.4992740000000 1.0
C      1  0.5112940000000  0.5503920000000  0.4158190000000 1.0
C      1  0.4882300000000  0.5844130000000  0.5505600000000 1.0
C      1  0.5112910000000  0.4496720000000  0.5845830000000 1.0
C      1  0.4882390000000  0.4156490000000  0.4498400000000 1.0
C      1  0.5576640000000  0.4501470000000  0.4860290000000 1.0
C      1  0.4418660000000  0.5142040000000  0.4503130000000 1.0
C      1  0.5576600000000  0.5499190000000  0.5143770000000 1.0
C      1  0.4418630000000  0.4858560000000  0.5500840000000 1.0
C      1  0.4130950000000  0.5775900000000  0.5106230000000 1.0
C      1  0.5864260000000  0.4896080000000  0.5777650000000 1.0
C      1  0.4131000000000  0.4224680000000  0.4897710000000 1.0
C      1  0.5864310000000  0.5104600000000  0.4226430000000 1.0
C      1  0.4391810000000  0.5870690000000  0.4278660000000 1.0
C      1  0.5603410000000  0.5723660000000  0.5872420000000 1.0
C      1  0.4391810000000  0.4129910000000  0.5725310000000 1.0
C      1  0.5603510000000  0.4277010000000  0.4131640000000 1.0
C      1  0.4868980000000  0.4043260000000  0.5146290000000 1.0
C      1  0.5126350000000  0.4856030000000  0.4044960000000 1.0
C      1  0.4868940000000  0.5957370000000  0.4857720000000 1.0
C      1  0.5126270000000  0.5144600000000  0.5959070000000 1.0
C      1  0.5612620000000  0.4750770000000  0.3962130000000 1.0
C      1  0.4382680000000  0.6040190000000  0.4752430000000 1.0
C      1  0.5612520000000  0.5249890000000  0.6041920000000 1.0
C      1  0.4382720000000  0.3960400000000  0.5251540000000 1.0
C      1  0.3720910000000  0.4612790000000  0.5360440000000 1.0
C      1  0.6274380000000  0.4641870000000  0.4614560000000 1.0
C      1  0.3720910000000  0.5387770000000  0.4643480000000 1.0
C      1  0.6274330000000  0.5358830000000  0.5389540000000 1.0
C      1  0.5496800000000  0.4781980000000  0.6110460000000 1.0
C      1  0.4498470000000  0.3891870000000  0.4783630000000 1.0
C      1  0.5496870000000  0.5218680000000  0.3893590000000 1.0
C      1  0.4498390000000  0.6108730000000  0.5220340000000 1.0
C      1  0.5477630000000  0.5036420000000  0.5142920000000 1.0
C      1  0.4517640000000  0.4859410000000  0.5038080000000 1.0
C      1  0.5477640000000  0.4964240000000  0.4861130000000 1.0
C      1  0.4517630000000  0.5141190000000  0.4965900000000 1.0
C      1  0.5216650000000  0.5202120000000  0.3988150000000 1.0
C      1  0.4778610000000  0.6014170000000  0.5203800000000 1.0
C      1  0.5216590000000  0.4798520000000  0.6015880000000 1.0
C      1  0.4778680000000  0.3986440000000  0.4800200000000 1.0
C      1  0.5626610000000  0.4258100000000  0.4695480000000 1.0
C      1  0.4368710000000  0.5306850000000  0.4259750000000 1.0
C      1  0.5626540000000  0.5742570000000  0.5308580000000 1.0
C      1  0.4368670000000  0.4693740000000  0.5744220000000 1.0
C      1  0.5079470000000  0.5726660000000  0.5154150000000 1.0
C      1  0.4915750000000  0.4848170000000  0.5728350000000 1.0
C      1  0.5079520000000  0.4273980000000  0.4849870000000 1.0
C      1  0.4915800000000  0.5152460000000  0.4275660000000 1.0
C      1  0.5620970000000  0.4682550000000  0.4376390000000 1.0
C      1  0.4374320000000  0.5625930000000  0.4684200000000 1.0
C      1  0.5620910000000  0.5318120000000  0.5627660000000 1.0
C      1  0.4374330000000  0.4374660000000  0.5319770000000 1.0
C      1  0.4293260000000  0.3978770000000  0.4971580000000 1.0
C      1  0.5702070000000  0.5030740000000  0.3980510000000 1.0
C      1  0.4293200000000  0.6021820000000  0.5032380000000 1.0
C      1  0.5702000000000  0.4969930000000  0.6023560000000 1.0
C      1  0.4206200000000  0.5322640000000  0.5385360000000 1.0
C      1  0.5789050000000  0.4616950000000  0.5324380000000 1.0
C      1  0.4206240000000  0.4677940000000  0.4618590000000 1.0
C      1  0.5789050000000  0.5383720000000  0.4679690000000 1.0
C      1  0.5915990000000  0.4863920000000  0.5009750000000 1.0
C      1  0.4079290000000  0.4992580000000  0.4865550000000 1.0
C      1  0.5915980000000  0.5136760000000  0.4994340000000 1.0
C      1  0.4079280000000  0.5007990000000  0.5138400000000 1.0
C      1  0.5803590000000  0.4689650000000  0.4814500000000 1.0
C      1  0.4191700000000  0.5187830000000  0.4691290000000 1.0
C      1  0.5803560000000  0.5311020000000  0.5189570000000 1.0
C      1  0.4191680000000  0.4812760000000  0.5312660000000 1.0
C      1  0.4337160000000  0.4665530000000  0.4918310000000 1.0
C      1  0.5658130000000  0.5084010000000  0.4667260000000 1.0
C      1  0.4337130000000  0.5335060000000  0.5085650000000 1.0
C      1  0.5658110000000  0.4916660000000  0.5336800000000 1.0
C      1  0.4656250000000  0.5728150000000  0.5667860000000 1.0
C      1  0.5338960000000  0.4334460000000  0.5729860000000 1.0
C      1  0.4656340000000  0.4272460000000  0.4336130000000 1.0
C      1  0.5338980000000  0.5666190000000  0.4274180000000 1.0
C      1  0.6013620000000  0.4465680000000  0.5100490000000 1.0
C      1  0.3981680000000  0.4901840000000  0.4467300000000 1.0
C      1  0.6013600000000  0.5535010000000  0.4903600000000 1.0
C      1  0.3981640000000  0.5098730000000  0.5536630000000 1.0
C      1  0.5196920000000  0.5797870000000  0.5601530000000 1.0
C      1  0.4798280000000  0.4400800000000  0.5799550000000 1.0
C      1  0.5197010000000  0.4202770000000  0.4402500000000 1.0
C      1  0.4798310000000  0.5599820000000  0.4204450000000 1.0
C      1  0.4688710000000  0.4533480000000  0.4166200000000 1.0
C      1  0.5306600000000  0.5836120000000  0.4535190000000 1.0
C      1  0.4688620000000  0.5467140000000  0.5837790000000 1.0
C      1  0.5306610000000  0.4164530000000  0.5468850000000 1.0
C      1  0.4805860000000  0.5194470000000  0.4886980000000 1.0
C      1  0.5189400000000  0.5115340000000  0.5196170000000 1.0
C      1  0.4805860000000  0.4806150000000  0.5117020000000 1.0
C      1  0.5189420000000  0.4885300000000  0.4807860000000 1.0
C      1  0.5731060000000  0.5060600000000  0.5569730000000 1.0
C      1  0.4264200000000  0.4432590000000  0.5062250000000 1.0
C      1  0.5731100000000  0.4940070000000  0.4434330000000 1.0
C      1  0.4264170000000  0.5567990000000  0.4941710000000 1.0
C      1  0.4686360000000  0.5860100000000  0.4350260000000 1.0
C      1  0.5308850000000  0.5652060000000  0.5861810000000 1.0
C      1  0.4686360000000  0.4140510000000  0.5653730000000 1.0
C      1  0.5308960000000  0.4348590000000  0.4142230000000 1.0
C      1  0.4371410000000  0.4202810000000  0.4411740000000 1.0
C      1  0.5623910000000  0.5590580000000  0.4204540000000 1.0
C      1  0.4371320000000  0.5797780000000  0.5592230000000 1.0
C      1  0.5623890000000  0.4410090000000  0.5799520000000 1.0
C      1  0.4997630000000  0.5000310000000  0.5002010000000 1.0
END
