TITL C-862504-1170-118 -1.49625818639851e-07 125000 -26.6880498506498 0 0 7 (C3v) n - 1
REM
REM in /home/nfs/bkarasulu/CARBON/AIRSS/Generating-Clusters/TERSOFF/Higher-Symm/FIRE-HFTN
REM
REM
REM
REM
REM
REM ./C.cell (b20cbc046b6831c77cfcea5457e17084)
REM AIRSS Version 0.9.1 bugfix July 2018 build 013d7b7c2542+ Fri, 06 Jul 2018 19:26:36 +0100
REM compiler GCC version 9.2.1 20190827 (Red Hat 9.2.1-1)
REM options -cpp -mtune=generic -march=x86-64 -g -O0 -fpre-include=/usr/include/finclude/math-vector-fortran.h
REM seed -1065049287 1014775267 -347606495 237366753 -22810742 -1057868136 -155211711 -55460055 -980273856 -1066000742 1821273813 1833926850 -701106801 664706574 136425008 1136029421 537260912 1949099010 -815716975 -1247487450 1351817009 -1122531854 -2115075720 1118069137 -1900560505 -465308061 -1002888988 -544668517 1491360716 1548528904 614299646 1896718022 281158182
REM
CELL 1.54180   50.00000   50.00000   50.00000   90.00000   90.00000   90.00000
LATT -1
SFAC C  
C      1  0.5078480000000  0.5156320000000  0.4776210000000 1.0
C      1  0.5055070000000  0.4799020000000  0.4776210000000 1.0
C      1  0.4757340000000  0.4997950000000  0.4776210000000 1.0
C      1  0.5110130000000  0.5203690000000  0.5079380000000 1.0
C      1  0.5080260000000  0.4747930000000  0.5079380000000 1.0
C      1  0.4700500000000  0.5001680000000  0.5079380000000 1.0
C      1  0.4963630000000  0.4984430000000  0.5241380000000 1.0
END
