TITL C-862507-1800-11 0.00156760558836117 125000 -439.966605062921 0 0 76 (C4) n - 1
REM
REM in /home/nfs/bkarasulu/CARBON/AIRSS/Generating-Clusters/TERSOFF/Higher-Symm/FIRE-HFTN
REM
REM
REM
REM
REM
REM ./C.cell (b20cbc046b6831c77cfcea5457e17084)
REM AIRSS Version 0.9.1 bugfix July 2018 build 013d7b7c2542+ Fri, 06 Jul 2018 19:26:36 +0100
REM compiler GCC version 9.2.1 20190827 (Red Hat 9.2.1-1)
REM options -cpp -mtune=generic -march=x86-64 -g -O0 -fpre-include=/usr/include/finclude/math-vector-fortran.h
REM seed 1382578077 -2137182433 -2097768358 245998359 -826500054 1596065640 1938645691 -980545130 -605388379 1889170733 -1955538859 1031505742 495458968 -487352677 2090767943 -1555318777 -685742112 -1824312024 545206401 -1477220428 1518748443 289200003 -1187226802 49527034 1837988281 1158498070 -951299858 -1564843467 -1805829282 1045517542 -240813230 -63529704 1259893324
REM
CELL 1.54180   50.00000   50.00000   50.00000   90.00000   90.00000   90.00000
LATT -1
SFAC C  
C      1  0.5138240000000  0.4288760000000  0.5346350000000 1.0
C      1  0.5138240000000  0.4653650000000  0.4288760000000 1.0
C      1  0.5138240000000  0.5711240000000  0.4653650000000 1.0
C      1  0.5138240000000  0.5346350000000  0.5711240000000 1.0
C      1  0.4795580000000  0.5280620000000  0.5237520000000 1.0
C      1  0.4795580000000  0.4762480000000  0.5280620000000 1.0
C      1  0.4795580000000  0.4719380000000  0.4762480000000 1.0
C      1  0.4795580000000  0.5237520000000  0.4719380000000 1.0
C      1  0.4737070000000  0.4535400000000  0.5459030000000 1.0
C      1  0.4737070000000  0.4540970000000  0.4535400000000 1.0
C      1  0.4737070000000  0.5464600000000  0.4540970000000 1.0
C      1  0.4737070000000  0.5459030000000  0.5464600000000 1.0
C      1  0.5888230000000  0.5120480000000  0.4809220000000 1.0
C      1  0.5888230000000  0.5190780000000  0.5120480000000 1.0
C      1  0.5888230000000  0.4879520000000  0.5190780000000 1.0
C      1  0.5888230000000  0.4809220000000  0.4879520000000 1.0
C      1  0.5279420000000  0.4875750000000  0.5841580000000 1.0
C      1  0.5279420000000  0.4158420000000  0.4875750000000 1.0
C      1  0.5279420000000  0.5124250000000  0.4158420000000 1.0
C      1  0.5279420000000  0.5841580000000  0.5124250000000 1.0
C      1  0.5687100000000  0.4632140000000  0.4766960000000 1.0
C      1  0.5687100000000  0.5233040000000  0.4632140000000 1.0
C      1  0.5687100000000  0.5367860000000  0.5233040000000 1.0
C      1  0.5687100000000  0.4766960000000  0.5367860000000 1.0
C      1  0.4406200000000  0.5589310000000  0.4991540000000 1.0
C      1  0.4406200000000  0.5008460000000  0.5589310000000 1.0
C      1  0.4406200000000  0.4410690000000  0.5008460000000 1.0
C      1  0.4406200000000  0.4991540000000  0.4410690000000 1.0
C      1  0.4305310000000  0.4720960000000  0.4499760000000 1.0
C      1  0.4305310000000  0.5500240000000  0.4720960000000 1.0
C      1  0.4305310000000  0.5279040000000  0.5500240000000 1.0
C      1  0.4305310000000  0.4499760000000  0.5279040000000 1.0
C      1  0.4335050000000  0.5208270000000  0.4634420000000 1.0
C      1  0.4335050000000  0.5365580000000  0.5208270000000 1.0
C      1  0.4335050000000  0.4791730000000  0.5365580000000 1.0
C      1  0.4335050000000  0.4634420000000  0.4791730000000 1.0
C      1  0.4845490000000  0.5287560000000  0.5689180000000 1.0
C      1  0.4845490000000  0.4310820000000  0.5287560000000 1.0
C      1  0.4845490000000  0.4712440000000  0.4310820000000 1.0
C      1  0.4845490000000  0.5689180000000  0.4712440000000 1.0
C      1  0.5374690000000  0.5308050000000  0.5219710000000 1.0
C      1  0.5374690000000  0.4780290000000  0.5308050000000 1.0
C      1  0.5374690000000  0.4691950000000  0.4780290000000 1.0
C      1  0.5374690000000  0.5219710000000  0.4691950000000 1.0
C      1  0.4694220000000  0.4290680000000  0.4997660000000 1.0
C      1  0.4694220000000  0.5002340000000  0.4290680000000 1.0
C      1  0.4694220000000  0.5709320000000  0.5002340000000 1.0
C      1  0.4694220000000  0.4997660000000  0.5709320000000 1.0
C      1  0.4554130000000  0.5179180000000  0.5119270000000 1.0
C      1  0.4554130000000  0.4880730000000  0.5179180000000 1.0
C      1  0.4554130000000  0.4820820000000  0.4880730000000 1.0
C      1  0.4554130000000  0.5119270000000  0.4820820000000 1.0
C      1  0.5320410000000  0.5118930000000  0.5686010000000 1.0
C      1  0.5320410000000  0.4313990000000  0.5118930000000 1.0
C      1  0.5320410000000  0.4881070000000  0.4313990000000 1.0
C      1  0.5320410000000  0.5686010000000  0.4881070000000 1.0
C      1  0.4830450000000  0.5695570000000  0.5291630000000 1.0
C      1  0.4830450000000  0.4708370000000  0.5695570000000 1.0
C      1  0.4830450000000  0.4304430000000  0.4708370000000 1.0
C      1  0.4830450000000  0.5291630000000  0.4304430000000 1.0
C      1  0.5231370000000  0.4383000000000  0.4405480000000 1.0
C      1  0.5231370000000  0.5594520000000  0.4383000000000 1.0
C      1  0.5231370000000  0.5617000000000  0.5594520000000 1.0
C      1  0.5231370000000  0.4405480000000  0.5617000000000 1.0
C      1  0.5055520000000  0.5102190000000  0.4721440000000 1.0
C      1  0.5055520000000  0.5278560000000  0.5102190000000 1.0
C      1  0.5055520000000  0.4897810000000  0.5278560000000 1.0
C      1  0.5055520000000  0.4721440000000  0.4897810000000 1.0
C      1  0.5408920000000  0.5077900000000  0.5415440000000 1.0
C      1  0.5408920000000  0.4584560000000  0.5077900000000 1.0
C      1  0.5408920000000  0.4922100000000  0.4584560000000 1.0
C      1  0.5408920000000  0.5415440000000  0.4922100000000 1.0
C      1  0.5112590000000  0.4249010000000  0.4653990000000 1.0
C      1  0.5112590000000  0.5346010000000  0.4249010000000 1.0
C      1  0.5112590000000  0.5750990000000  0.5346010000000 1.0
C      1  0.5112590000000  0.4653990000000  0.5750990000000 1.0
END
