TITL C-862131-2149-229 58.0462442664133 125000 -787.045405281158 0 0 135 (Ci) n - 1
REM
REM in /home/nfs/bkarasulu/CARBON/AIRSS/Generating-Clusters/TERSOFF/Higher-Symm/FIRE-HFTN
REM
REM
REM
REM
REM
REM ./C.cell (b20cbc046b6831c77cfcea5457e17084)
REM AIRSS Version 0.9.1 bugfix July 2018 build 013d7b7c2542+ Fri, 06 Jul 2018 19:26:36 +0100
REM compiler GCC version 9.2.1 20190827 (Red Hat 9.2.1-1)
REM options -cpp -mtune=generic -march=x86-64 -g -O0 -fpre-include=/usr/include/finclude/math-vector-fortran.h
REM seed 87160729 284555279 965185391 1075022640 545347273 -1576695982 435207726 682608194 -1770652162 2003316709 -964987549 2131161634 447720593 962828299 -594549151 -823165495 352260551 1746524673 1596769616 -423779739 -25626851 -274167291 1187358449 -1803721011 1926162929 1300728840 -74008833 1911359929 -1970818612 -772958918 425351449 -1694645826 123900347
REM
CELL 1.54180   50.00000   50.00000   50.00000   90.00000   90.00000   90.00000
LATT -1
SFAC C  
C      1  0.5669070000000  0.5802050000000  0.5113840000000 1.0
C      1  0.4324840000000  0.4199270000000  0.4884150000000 1.0
C      1  0.3747960000000  0.4467870000000  0.4360300000000 1.0
C      1  0.6245950000000  0.5533460000000  0.5637690000000 1.0
C      1  0.5663200000000  0.4872020000000  0.5140420000000 1.0
C      1  0.4330710000000  0.5129300000000  0.4857570000000 1.0
C      1  0.4325410000000  0.5330050000000  0.5746000000000 1.0
C      1  0.5668500000000  0.4671270000000  0.4251980000000 1.0
C      1  0.6096740000000  0.5544430000000  0.5146480000000 1.0
C      1  0.3897170000000  0.4456890000000  0.4851500000000 1.0
C      1  0.5452090000000  0.5862530000000  0.5569570000000 1.0
C      1  0.4541820000000  0.4138790000000  0.4428420000000 1.0
C      1  0.3714630000000  0.4387840000000  0.4637580000000 1.0
C      1  0.6279280000000  0.5613480000000  0.5360410000000 1.0
C      1  0.5877130000000  0.4813180000000  0.4413230000000 1.0
C      1  0.4116780000000  0.5188150000000  0.5584750000000 1.0
C      1  0.4743000000000  0.4313780000000  0.4288150000000 1.0
C      1  0.5250910000000  0.5687540000000  0.5709830000000 1.0
C      1  0.5398530000000  0.4831010000000  0.5782760000000 1.0
C      1  0.4595380000000  0.5170310000000  0.4215220000000 1.0
C      1  0.4732240000000  0.5385200000000  0.4370520000000 1.0
C      1  0.5261670000000  0.4616120000000  0.5627470000000 1.0
C      1  0.5670030000000  0.5982150000000  0.5725700000000 1.0
C      1  0.4323880000000  0.4019170000000  0.4272280000000 1.0
C      1  0.3991940000000  0.4895400000000  0.4272480000000 1.0
C      1  0.6001970000000  0.5105920000000  0.5725510000000 1.0
C      1  0.4753120000000  0.3824350000000  0.5105950000000 1.0
C      1  0.5240790000000  0.6176970000000  0.4892040000000 1.0
C      1  0.4107270000000  0.5203260000000  0.4684290000000 1.0
C      1  0.5886640000000  0.4798060000000  0.5313690000000 1.0
C      1  0.5984050000000  0.5571190000000  0.5764140000000 1.0
C      1  0.4009860000000  0.4430140000000  0.4233850000000 1.0
C      1  0.5879630000000  0.4743280000000  0.4694260000000 1.0
C      1  0.4114280000000  0.5258040000000  0.5303730000000 1.0
C      1  0.5043870000000  0.4354480000000  0.4699870000000 1.0
C      1  0.4950040000000  0.5646850000000  0.5298110000000 1.0
C      1  0.5888450000000  0.5832930000000  0.5851180000000 1.0
C      1  0.4105460000000  0.4168390000000  0.4146800000000 1.0
C      1  0.5449760000000  0.5368630000000  0.3949930000000 1.0
C      1  0.4544150000000  0.4632690000000  0.6048050000000 1.0
C      1  0.5818690000000  0.5102190000000  0.4333800000000 1.0
C      1  0.4175220000000  0.4899130000000  0.5664180000000 1.0
C      1  0.6447860000000  0.5056440000000  0.5662370000000 1.0
C      1  0.3546050000000  0.4944880000000  0.4335610000000 1.0
C      1  0.5883970000000  0.4722640000000  0.5602070000000 1.0
C      1  0.4109940000000  0.5278680000000  0.4395910000000 1.0
C      1  0.4486780000000  0.5581220000000  0.5701500000000 1.0
C      1  0.5507130000000  0.4420100000000  0.4296480000000 1.0
C      1  0.3565560000000  0.4667030000000  0.4246880000000 1.0
C      1  0.6428350000000  0.5334290000000  0.5751100000000 1.0
C      1  0.5208950000000  0.5080680000000  0.5281860000000 1.0
C      1  0.4784960000000  0.4920640000000  0.4716120000000 1.0
C      1  0.6346580000000  0.4826150000000  0.5810820000000 1.0
C      1  0.3647330000000  0.5175170000000  0.4187160000000 1.0
C      1  0.5187870000000  0.5412260000000  0.4880210000000 1.0
C      1  0.4806040000000  0.4589060000000  0.5117770000000 1.0
C      1  0.5397670000000  0.5311980000000  0.6033450000000 1.0
C      1  0.4596240000000  0.4689340000000  0.3964540000000 1.0
C      1  0.5419610000000  0.4397160000000  0.5518630000000 1.0
C      1  0.4574300000000  0.5604160000000  0.4479350000000 1.0
C      1  0.4990360000000  0.3786590000000  0.5527430000000 1.0
C      1  0.5003550000000  0.6214730000000  0.4470550000000 1.0
C      1  0.5216390000000  0.4471220000000  0.4230560000000 1.0
C      1  0.4777520000000  0.5530100000000  0.5767420000000 1.0
C      1  0.5191540000000  0.5221770000000  0.4244800000000 1.0
C      1  0.4802370000000  0.4779550000000  0.5753190000000 1.0
C      1  0.5509980000000  0.5132450000000  0.5167090000000 1.0
C      1  0.4483930000000  0.4868880000000  0.4830890000000 1.0
C      1  0.4591470000000  0.4790470000000  0.5098020000000 1.0
C      1  0.5402440000000  0.5210850000000  0.4899960000000 1.0
C      1  0.4848190000000  0.4456740000000  0.5378880000000 1.0
C      1  0.5145720000000  0.5544580000000  0.4619100000000 1.0
C      1  0.5023030000000  0.5380680000000  0.4416030000000 1.0
C      1  0.4970880000000  0.4620640000000  0.5581950000000 1.0
C      1  0.4179590000000  0.4672610000000  0.4214440000000 1.0
C      1  0.5814320000000  0.5328710000000  0.5783550000000 1.0
C      1  0.5681250000000  0.5289130000000  0.6038630000000 1.0
C      1  0.4312660000000  0.4712200000000  0.3959350000000 1.0
C      1  0.5247780000000  0.5091150000000  0.5880000000000 1.0
C      1  0.4746130000000  0.4910170000000  0.4117980000000 1.0
C      1  0.5217190000000  0.6018960000000  0.5136570000000 1.0
C      1  0.4776720000000  0.3982360000000  0.4861410000000 1.0
C      1  0.5264940000000  0.3730380000000  0.5074890000000 1.0
C      1  0.4728970000000  0.6270950000000  0.4923090000000 1.0
C      1  0.4187140000000  0.4446950000000  0.4831190000000 1.0
C      1  0.5806770000000  0.5554370000000  0.5166790000000 1.0
C      1  0.4529190000000  0.4351150000000  0.5958760000000 1.0
C      1  0.5464720000000  0.5650170000000  0.4039230000000 1.0
C      1  0.4474850000000  0.4267130000000  0.5681260000000 1.0
C      1  0.5519060000000  0.5734190000000  0.4316730000000 1.0
C      1  0.4689750000000  0.4417750000000  0.4019440000000 1.0
C      1  0.5304160000000  0.5583570000000  0.5978550000000 1.0
C      1  0.4333250000000  0.4660060000000  0.4695980000000 1.0
C      1  0.5660660000000  0.5341260000000  0.5302010000000 1.0
C      1  0.5690360000000  0.4833980000000  0.5798560000000 1.0
C      1  0.4303550000000  0.5167340000000  0.4199420000000 1.0
C      1  0.4348320000000  0.5213500000000  0.5140680000000 1.0
C      1  0.5645590000000  0.4787820000000  0.4857310000000 1.0
C      1  0.5221890000000  0.4743960000000  0.4077150000000 1.0
C      1  0.4772020000000  0.5257360000000  0.5920840000000 1.0
C      1  0.4720190000000  0.6063770000000  0.5123710000000 1.0
C      1  0.5273720000000  0.3937550000000  0.4874280000000 1.0
C      1  0.4980290000000  0.5425130000000  0.5100810000000 1.0
C      1  0.5013620000000  0.4576190000000  0.4897170000000 1.0
C      1  0.5242790000000  0.6052590000000  0.4596130000000 1.0
C      1  0.4751120000000  0.3948730000000  0.5401850000000 1.0
C      1  0.5312720000000  0.5776380000000  0.4525610000000 1.0
C      1  0.4681190000000  0.4224950000000  0.5472370000000 1.0
C      1  0.5305020000000  0.4905710000000  0.4496970000000 1.0
C      1  0.4688890000000  0.5095610000000  0.5501020000000 1.0
C      1  0.5589760000000  0.5349440000000  0.5576200000000 1.0
C      1  0.4404150000000  0.4651880000000  0.4421780000000 1.0
C      1  0.4451050000000  0.4826410000000  0.5799130000000 1.0
C      1  0.5542860000000  0.5174910000000  0.4198860000000 1.0
C      1  0.4551420000000  0.5127340000000  0.5766390000000 1.0
C      1  0.5442490000000  0.4873980000000  0.4231590000000 1.0
C      1  0.5437940000000  0.4962960000000  0.4740250000000 1.0
C      1  0.4555970000000  0.5038360000000  0.5257730000000 1.0
C      1  0.4971700000000  0.6321280000000  0.4771020000000 1.0
C      1  0.5022210000000  0.3680040000000  0.5226960000000 1.0
C      1  0.4544250000000  0.4097140000000  0.4725810000000 1.0
C      1  0.5449660000000  0.5904180000000  0.5272170000000 1.0
C      1  0.3851360000000  0.5359760000000  0.4284760000000 1.0
C      1  0.6142550000000  0.4641570000000  0.5713220000000 1.0
C      1  0.4996310000000  0.5608930000000  0.5587640000000 1.0
C      1  0.4997600000000  0.4392390000000  0.4410340000000 1.0
C      1  0.5128250000000  0.5220710000000  0.3926290000000 1.0
C      1  0.4865660000000  0.4780610000000  0.6071690000000 1.0
C      1  0.5309220000000  0.5217840000000  0.5599210000000 1.0
C      1  0.4684690000000  0.4783480000000  0.4398770000000 1.0
C      1  0.5035990000000  0.4084970000000  0.4795710000000 1.0
C      1  0.4957920000000  0.5916350000000  0.5202270000000 1.0
C      1  0.5014310000000  0.4933260000000  0.3997180000000 1.0
C      1  0.4979600000000  0.5068060000000  0.6000800000000 1.0
C      1  0.4996960000000  0.5000660000000  0.4998990000000 1.0
END
