TITL C-862506-1665-1085 0.0037917230214985 125000 -1089.57598315493 0 0 189 (C1) n - 1
REM
REM in /home/nfs/bkarasulu/CARBON/AIRSS/Generating-Clusters/TERSOFF/Higher-Symm/FIRE-HFTN
REM
REM
REM
REM
REM
REM ./C.cell (b20cbc046b6831c77cfcea5457e17084)
REM AIRSS Version 0.9.1 bugfix July 2018 build 013d7b7c2542+ Fri, 06 Jul 2018 19:26:36 +0100
REM compiler GCC version 9.2.1 20190827 (Red Hat 9.2.1-1)
REM options -cpp -mtune=generic -march=x86-64 -g -O0 -fpre-include=/usr/include/finclude/math-vector-fortran.h
REM seed 1537954558 -882632001 -276030337 -1739053058 1486234768 -1664248516 1599375025 2088683242 -1028573327 510711169 841881315 -662592187 -1580235837 -1662379290 1551417777 -954990724 221609936 94085907 780072689 -1523668613 -395885121 65009318 -985595193 -1790523330 941876465 279374723 -861732171 488067305 1711949667 1452068602 433723982 -673069361 -1852601737
REM
CELL 1.54180   50.00000   50.00000   50.00000   90.00000   90.00000   90.00000
LATT -1
SFAC C  
C      1  0.5948580000000  0.4779880000000  0.5583060000000 1.0
C      1  0.5951670000000  0.5612040000000  0.4899060000000 1.0
C      1  0.5947400000000  0.4606150000000  0.4515980000000 1.0
C      1  0.4319160000000  0.5618870000000  0.5047430000000 1.0
C      1  0.4318120000000  0.4739170000000  0.4507780000000 1.0
C      1  0.4326080000000  0.4661650000000  0.5478810000000 1.0
C      1  0.4453880000000  0.4089030000000  0.5401740000000 1.0
C      1  0.4446530000000  0.5781130000000  0.5536670000000 1.0
C      1  0.4437600000000  0.5114150000000  0.4049520000000 1.0
C      1  0.4442340000000  0.4184960000000  0.5116800000000 1.0
C      1  0.4428630000000  0.5483110000000  0.5587850000000 1.0
C      1  0.4435950000000  0.5317410000000  0.4273850000000 1.0
C      1  0.5096860000000  0.4459580000000  0.5538730000000 1.0
C      1  0.5098000000000  0.5738030000000  0.5190630000000 1.0
C      1  0.5083940000000  0.4806610000000  0.4272640000000 1.0
C      1  0.5496000000000  0.6108740000000  0.5049650000000 1.0
C      1  0.5479810000000  0.4487090000000  0.4016820000000 1.0
C      1  0.5481790000000  0.4415330000000  0.5939430000000 1.0
C      1  0.4794210000000  0.5688080000000  0.4160870000000 1.0
C      1  0.4795210000000  0.3919410000000  0.4831600000000 1.0
C      1  0.4764670000000  0.5389170000000  0.5993120000000 1.0
C      1  0.5118290000000  0.6142370000000  0.4692660000000 1.0
C      1  0.5098440000000  0.4168490000000  0.4170670000000 1.0
C      1  0.5092230000000  0.4702350000000  0.6133080000000 1.0
C      1  0.4473760000000  0.6134840000000  0.5153000000000 1.0
C      1  0.4458030000000  0.4594150000000  0.3979410000000 1.0
C      1  0.4464410000000  0.4291710000000  0.5887170000000 1.0
C      1  0.5170350000000  0.5199180000000  0.3903680000000 1.0
C      1  0.5181560000000  0.3947340000000  0.5378510000000 1.0
C      1  0.5163230000000  0.5848490000000  0.5711370000000 1.0
C      1  0.4790230000000  0.5776190000000  0.5138240000000 1.0
C      1  0.4770650000000  0.4753810000000  0.4298860000000 1.0
C      1  0.4788220000000  0.4483250000000  0.5590100000000 1.0
C      1  0.4500270000000  0.4962570000000  0.5922000000000 1.0
C      1  0.4526490000000  0.5863170000000  0.4552510000000 1.0
C      1  0.4521420000000  0.4195240000000  0.4507900000000 1.0
C      1  0.5872950000000  0.4758840000000  0.4967560000000 1.0
C      1  0.5871970000000  0.5092070000000  0.5222820000000 1.0
C      1  0.5872750000000  0.5146540000000  0.4806570000000 1.0
C      1  0.4629980000000  0.4387070000000  0.4150910000000 1.0
C      1  0.4626540000000  0.4556090000000  0.5970470000000 1.0
C      1  0.4645600000000  0.6082020000000  0.4889950000000 1.0
C      1  0.4264380000000  0.4563810000000  0.4723100000000 1.0
C      1  0.4262250000000  0.4937600000000  0.5478340000000 1.0
C      1  0.4249780000000  0.5523920000000  0.4788150000000 1.0
C      1  0.4745590000000  0.3999170000000  0.4550100000000 1.0
C      1  0.4721390000000  0.5105620000000  0.6069350000000 1.0
C      1  0.4752330000000  0.5903380000000  0.4360310000000 1.0
C      1  0.5743840000000  0.5407090000000  0.5542690000000 1.0
C      1  0.5746930000000  0.5265000000000  0.4373800000000 1.0
C      1  0.5751100000000  0.4323500000000  0.5080130000000 1.0
C      1  0.4296970000000  0.4847970000000  0.4056440000000 1.0
C      1  0.4305980000000  0.4213390000000  0.5632830000000 1.0
C      1  0.4305810000000  0.5937120000000  0.5320810000000 1.0
C      1  0.4998740000000  0.4566100000000  0.5071560000000 1.0
C      1  0.4997770000000  0.5270200000000  0.5326620000000 1.0
C      1  0.4998230000000  0.5151480000000  0.4595070000000 1.0
C      1  0.4073280000000  0.5603310000000  0.5216960000000 1.0
C      1  0.4069270000000  0.4857350000000  0.4408890000000 1.0
C      1  0.4075990000000  0.4508210000000  0.5442830000000 1.0
C      1  0.5578070000000  0.5676770000000  0.5659990000000 1.0
C      1  0.5581060000000  0.5233250000000  0.4084040000000 1.0
C      1  0.5587090000000  0.4088450000000  0.5255530000000 1.0
C      1  0.5802720000000  0.4205750000000  0.4804120000000 1.0
C      1  0.5793740000000  0.5228870000000  0.5783840000000 1.0
C      1  0.5802320000000  0.5561660000000  0.4408910000000 1.0
C      1  0.5426670000000  0.5351920000000  0.5153220000000 1.0
C      1  0.5424830000000  0.4957890000000  0.4619100000000 1.0
C      1  0.5429270000000  0.4685680000000  0.5227430000000 1.0
C      1  0.5084430000000  0.3826390000000  0.4868560000000 1.0
C      1  0.5052810000000  0.5472750000000  0.6066630000000 1.0
C      1  0.5080390000000  0.5699410000000  0.4054500000000 1.0
C      1  0.5310590000000  0.4215340000000  0.5807880000000 1.0
C      1  0.5316150000000  0.6093370000000  0.5282220000000 1.0
C      1  0.5302920000000  0.4704210000000  0.3926460000000 1.0
C      1  0.4222810000000  0.5361150000000  0.5752480000000 1.0
C      1  0.4244440000000  0.5535470000000  0.4291320000000 1.0
C      1  0.4240830000000  0.4103100000000  0.4923530000000 1.0
C      1  0.5405070000000  0.5959290000000  0.5569560000000 1.0
C      1  0.5405910000000  0.5013280000000  0.3887100000000 1.0
C      1  0.5416380000000  0.4027020000000  0.5552470000000 1.0
C      1  0.4241030000000  0.4712030000000  0.5010260000000 1.0
C      1  0.4261730000000  0.5056940000000  0.5128950000000 1.0
C      1  0.4232740000000  0.5213610000000  0.4800210000000 1.0
C      1  0.4708020000000  0.5045530000000  0.3933230000000 1.0
C      1  0.4729070000000  0.4046260000000  0.5514550000000 1.0
C      1  0.4720140000000  0.5902690000000  0.5545060000000 1.0
C      1  0.3766240000000  0.5353590000000  0.4896160000000 1.0
C      1  0.3773310000000  0.4736160000000  0.4792680000000 1.0
C      1  0.3798340000000  0.4917060000000  0.5362100000000 1.0
C      1  0.3862690000000  0.4941890000000  0.4599950000000 1.0
C      1  0.3850620000000  0.4633410000000  0.5293460000000 1.0
C      1  0.3864480000000  0.5394320000000  0.5173640000000 1.0
C      1  0.3966590000000  0.5131320000000  0.5252300000000 1.0
C      1  0.3940640000000  0.5195110000000  0.4720530000000 1.0
C      1  0.3941270000000  0.4639820000000  0.5014110000000 1.0
C      1  0.5099990000000  0.5636890000000  0.4641290000000 1.0
C      1  0.5097680000000  0.4371500000000  0.4628800000000 1.0
C      1  0.5096740000000  0.4988920000000  0.5721460000000 1.0
C      1  0.4719450000000  0.4142120000000  0.5002220000000 1.0
C      1  0.4702340000000  0.5415630000000  0.5707930000000 1.0
C      1  0.4717220000000  0.5430900000000  0.4275460000000 1.0
C      1  0.5251900000000  0.3912790000000  0.4621970000000 1.0
C      1  0.5225230000000  0.5220730000000  0.6121820000000 1.0
C      1  0.5255700000000  0.5870820000000  0.4245720000000 1.0
C      1  0.5994890000000  0.5018050000000  0.5747600000000 1.0
C      1  0.6002170000000  0.5632830000000  0.4611380000000 1.0
C      1  0.6000140000000  0.4346160000000  0.4639400000000 1.0
C      1  0.4983590000000  0.4159760000000  0.5389160000000 1.0
C      1  0.4976050000000  0.5743480000000  0.5515430000000 1.0
C      1  0.4973620000000  0.5085260000000  0.4084530000000 1.0
C      1  0.5342850000000  0.4231610000000  0.5115410000000 1.0
C      1  0.5334950000000  0.5481520000000  0.5602530000000 1.0
C      1  0.5338020000000  0.5281670000000  0.4279390000000 1.0
C      1  0.5982160000000  0.4456220000000  0.5237160000000 1.0
C      1  0.5976640000000  0.5477610000000  0.5351660000000 1.0
C      1  0.5977760000000  0.5063180000000  0.4408790000000 1.0
C      1  0.5540210000000  0.4080040000000  0.4670790000000 1.0
C      1  0.5528970000000  0.5179790000000  0.5963900000000 1.0
C      1  0.5541670000000  0.5741360000000  0.4366080000000 1.0
C      1  0.4926760000000  0.4283000000000  0.5130050000000 1.0
C      1  0.4920950000000  0.5458610000000  0.5538550000000 1.0
C      1  0.4922450000000  0.5244760000000  0.4324470000000 1.0
C      1  0.4745500000000  0.4215830000000  0.5755660000000 1.0
C      1  0.4749950000000  0.6059450000000  0.5295660000000 1.0
C      1  0.4737060000000  0.4753810000000  0.3977550000000 1.0
C      1  0.4656670000000  0.5758260000000  0.4813600000000 1.0
C      1  0.4648480000000  0.4477100000000  0.4469240000000 1.0
C      1  0.4646800000000  0.4774740000000  0.5725020000000 1.0
C      1  0.4924200000000  0.6196480000000  0.4909600000000 1.0
C      1  0.4903260000000  0.4341430000000  0.4030780000000 1.0
C      1  0.4903600000000  0.4484890000000  0.6069410000000 1.0
C      1  0.5414350000000  0.5369470000000  0.4851520000000 1.0
C      1  0.5413290000000  0.4687110000000  0.4754490000000 1.0
C      1  0.5412950000000  0.4939840000000  0.5390800000000 1.0
C      1  0.4602020000000  0.4600500000000  0.5346210000000 1.0
C      1  0.4603400000000  0.5497700000000  0.5137760000000 1.0
C      1  0.4580300000000  0.4903060000000  0.4531000000000 1.0
C      1  0.4669920000000  0.5037110000000  0.5489850000000 1.0
C      1  0.4674860000000  0.5425660000000  0.4713840000000 1.0
C      1  0.4675430000000  0.4539110000000  0.4804990000000 1.0
C      1  0.5600990000000  0.5754210000000  0.5248820000000 1.0
C      1  0.5590400000000  0.4837210000000  0.4220720000000 1.0
C      1  0.5600230000000  0.4403960000000  0.5531020000000 1.0
C      1  0.5705530000000  0.4639310000000  0.5663550000000 1.0
C      1  0.5708790000000  0.5753600000000  0.4979210000000 1.0
C      1  0.5702870000000  0.4604830000000  0.4354140000000 1.0
C      1  0.4285230000000  0.4263740000000  0.4686740000000 1.0
C      1  0.4274800000000  0.5077980000000  0.5748070000000 1.0
C      1  0.4283890000000  0.5684110000000  0.4535580000000 1.0
C      1  0.4493470000000  0.4500230000000  0.5069270000000 1.0
C      1  0.4486720000000  0.5259030000000  0.5329930000000 1.0
C      1  0.4479340000000  0.5200920000000  0.4574720000000 1.0
C      1  0.5200330000000  0.4527160000000  0.4363350000000 1.0
C      1  0.5205870000000  0.4685380000000  0.5729380000000 1.0
C      1  0.5210020000000  0.5790360000000  0.4902020000000 1.0
C      1  0.4896600000000  0.5340460000000  0.5059970000000 1.0
C      1  0.4892850000000  0.4885960000000  0.4678290000000 1.0
C      1  0.4891860000000  0.4764870000000  0.5260210000000 1.0
C      1  0.5337730000000  0.5203340000000  0.5718040000000 1.0
C      1  0.5342080000000  0.5521280000000  0.4461080000000 1.0
C      1  0.5343510000000  0.4272890000000  0.4816800000000 1.0
C      1  0.5079210000000  0.4650620000000  0.4797770000000 1.0
C      1  0.5075430000000  0.4990680000000  0.5395000000000 1.0
C      1  0.5078030000000  0.5350260000000  0.4800840000000 1.0
C      1  0.5171030000000  0.5735560000000  0.5986330000000 1.0
C      1  0.5192750000000  0.5494490000000  0.3867460000000 1.0
C      1  0.5205310000000  0.3769900000000  0.5138350000000 1.0
C      1  0.5468700000000  0.4522990000000  0.4503520000000 1.0
C      1  0.5471410000000  0.4809380000000  0.5660410000000 1.0
C      1  0.5474940000000  0.5667640000000  0.4831600000000 1.0
C      1  0.5034830000000  0.4091080000000  0.4459920000000 1.0
C      1  0.5016900000000  0.4986550000000  0.6044870000000 1.0
C      1  0.5044060000000  0.5929480000000  0.4483900000000 1.0
C      1  0.5377860000000  0.4624990000000  0.6117120000000 1.0
C      1  0.5401910000000  0.6160440000000  0.4776270000000 1.0
C      1  0.5381010000000  0.4224360000000  0.4102440000000 1.0
C      1  0.5593930000000  0.4636290000000  0.4986420000000 1.0
C      1  0.5591090000000  0.5167750000000  0.5317340000000 1.0
C      1  0.5592420000000  0.5190930000000  0.4692770000000 1.0
C      1  0.5340400000000  0.4976180000000  0.4341620000000 1.0
C      1  0.5349350000000  0.4435730000000  0.5352150000000 1.0
C      1  0.5347920000000  0.5585360000000  0.5307300000000 1.0
C      1  0.5003800000000  0.4604560000000  0.3889680000000 1.0
C      1  0.5014160000000  0.4225020000000  0.5923540000000 1.0
C      1  0.5025000000000  0.6193460000000  0.5209740000000 1.0
C      1  0.6011740000000  0.4789640000000  0.5268860000000 1.0
C      1  0.6011790000000  0.5336240000000  0.5048570000000 1.0
C      1  0.6010960000000  0.4872430000000  0.4681900000000 1.0
END
