TITL C-862501-1041-121 1.38885346907106 125000 -1106.05333486123 0 0 185 (C1) n - 1
REM
REM in /home/nfs/bkarasulu/CARBON/AIRSS/Generating-Clusters/TERSOFF/Higher-Symm/FIRE-HFTN
REM
REM
REM
REM
REM
REM ./C.cell (b20cbc046b6831c77cfcea5457e17084)
REM AIRSS Version 0.9.1 bugfix July 2018 build 013d7b7c2542+ Fri, 06 Jul 2018 19:26:36 +0100
REM compiler GCC version 9.2.1 20190827 (Red Hat 9.2.1-1)
REM options -cpp -mtune=generic -march=x86-64 -g -O0 -fpre-include=/usr/include/finclude/math-vector-fortran.h
REM seed 9701894 971065102 1974315304 1429347230 -1529336135 -1892618828 -1590559586 -361576852 -351030945 1644152704 -540631097 -121738802 1768066576 1589183627 729452015 -2056319707 1742305200 -2027466351 -1043727322 -293486602 65289901 -325034761 -1247408143 -1540901254 1562061039 -1796889384 537412415 1799235779 -415535373 2015557196 -1583331744 1247622526 479859245
REM
CELL 1.54180   50.00000   50.00000   50.00000   90.00000   90.00000   90.00000
LATT -1
SFAC C  
C      1  0.4187400000000  0.5690590000000  0.5754580000000 1.0
C      1  0.5800640000000  0.4305310000000  0.4223210000000 1.0
C      1  0.4507280000000  0.5720600000000  0.4718150000000 1.0
C      1  0.5498510000000  0.4292010000000  0.5275160000000 1.0
C      1  0.6146850000000  0.5492980000000  0.5122860000000 1.0
C      1  0.3831390000000  0.4516340000000  0.4829370000000 1.0
C      1  0.4986370000000  0.5298310000000  0.3836660000000 1.0
C      1  0.5024870000000  0.4702750000000  0.6172870000000 1.0
C      1  0.3716200000000  0.5042790000000  0.5131640000000 1.0
C      1  0.6283000000000  0.4953710000000  0.4832960000000 1.0
C      1  0.5357620000000  0.4095730000000  0.4531160000000 1.0
C      1  0.4639760000000  0.5913840000000  0.5472170000000 1.0
C      1  0.4830210000000  0.4064950000000  0.5357820000000 1.0
C      1  0.5184530000000  0.5942780000000  0.4646420000000 1.0
C      1  0.5196190000000  0.5657330000000  0.4285210000000 1.0
C      1  0.4813210000000  0.4348460000000  0.5721470000000 1.0
C      1  0.5742590000000  0.4626830000000  0.4612560000000 1.0
C      1  0.4262870000000  0.5346720000000  0.5387710000000 1.0
C      1  0.5148980000000  0.4947260000000  0.4854340000000 1.0
C      1  0.4755540000000  0.5066120000000  0.5148000000000 1.0
C      1  0.5866630000000  0.5052920000000  0.5764000000000 1.0
C      1  0.4127170000000  0.4970680000000  0.4225690000000 1.0
C      1  0.5363930000000  0.4531860000000  0.5143400000000 1.0
C      1  0.4632590000000  0.5470980000000  0.4840000000000 1.0
C      1  0.3806640000000  0.5395950000000  0.4675370000000 1.0
C      1  0.6189600000000  0.4638150000000  0.5318240000000 1.0
C      1  0.4202300000000  0.5242870000000  0.4284930000000 1.0
C      1  0.5797710000000  0.4778460000000  0.5703410000000 1.0
C      1  0.5154630000000  0.3812960000000  0.5191430000000 1.0
C      1  0.4858930000000  0.6192980000000  0.4812750000000 1.0
C      1  0.5091040000000  0.4735620000000  0.4421270000000 1.0
C      1  0.4902250000000  0.5273600000000  0.5592100000000 1.0
C      1  0.6024230000000  0.4172380000000  0.5094520000000 1.0
C      1  0.3985520000000  0.5860420000000  0.4889420000000 1.0
C      1  0.5626440000000  0.5955580000000  0.4298190000000 1.0
C      1  0.4388560000000  0.4040340000000  0.5703300000000 1.0
C      1  0.4721020000000  0.6049320000000  0.5028410000000 1.0
C      1  0.5287250000000  0.3956070000000  0.4972340000000 1.0
C      1  0.4307160000000  0.5301560000000  0.4541460000000 1.0
C      1  0.5686140000000  0.4716770000000  0.5449860000000 1.0
C      1  0.3979370000000  0.4857350000000  0.4471820000000 1.0
C      1  0.6010320000000  0.5178280000000  0.5514500000000 1.0
C      1  0.4940980000000  0.5637810000000  0.5218210000000 1.0
C      1  0.5060160000000  0.4371360000000  0.4791290000000 1.0
C      1  0.5378780000000  0.5116330000000  0.5432530000000 1.0
C      1  0.4601460000000  0.4890470000000  0.4580730000000 1.0
C      1  0.5925840000000  0.5789320000000  0.5486210000000 1.0
C      1  0.4091910000000  0.4303540000000  0.4431620000000 1.0
C      1  0.5409430000000  0.5654420000000  0.5055550000000 1.0
C      1  0.4592780000000  0.4348310000000  0.4956610000000 1.0
C      1  0.3826640000000  0.5369590000000  0.5629350000000 1.0
C      1  0.6163560000000  0.4627010000000  0.4335550000000 1.0
C      1  0.4467150000000  0.5114820000000  0.4691530000000 1.0
C      1  0.5500020000000  0.4889530000000  0.5316220000000 1.0
C      1  0.3911460000000  0.4827510000000  0.5550630000000 1.0
C      1  0.6069800000000  0.5163700000000  0.4422260000000 1.0
C      1  0.4511470000000  0.4308130000000  0.5752120000000 1.0
C      1  0.5495400000000  0.5692030000000  0.4244900000000 1.0
C      1  0.5475030000000  0.5939110000000  0.5025680000000 1.0
C      1  0.4538190000000  0.4062420000000  0.4981580000000 1.0
C      1  0.5633700000000  0.3999980000000  0.4602730000000 1.0
C      1  0.4365090000000  0.6007370000000  0.5393830000000 1.0
C      1  0.4205190000000  0.5908330000000  0.5134690000000 1.0
C      1  0.5804310000000  0.4100500000000  0.4858110000000 1.0
C      1  0.4269900000000  0.5563190000000  0.4632350000000 1.0
C      1  0.5730980000000  0.4457640000000  0.5356440000000 1.0
C      1  0.3978050000000  0.5712060000000  0.5961410000000 1.0
C      1  0.5999850000000  0.4287360000000  0.4005990000000 1.0
C      1  0.4901960000000  0.5373600000000  0.4790470000000 1.0
C      1  0.5100750000000  0.4642200000000  0.5214130000000 1.0
C      1  0.5747220000000  0.4891200000000  0.4124880000000 1.0
C      1  0.4235970000000  0.5104560000000  0.5849700000000 1.0
C      1  0.4865190000000  0.3971720000000  0.4589090000000 1.0
C      1  0.5135710000000  0.6035010000000  0.5417190000000 1.0
C      1  0.4335800000000  0.4054740000000  0.4508950000000 1.0
C      1  0.5644430000000  0.5936280000000  0.5503290000000 1.0
C      1  0.4459640000000  0.4644080000000  0.4584440000000 1.0
C      1  0.5527920000000  0.5357670000000  0.5429990000000 1.0
C      1  0.5351710000000  0.5084880000000  0.4705180000000 1.0
C      1  0.4603350000000  0.4893610000000  0.5318920000000 1.0
C      1  0.5128860000000  0.4078060000000  0.4734340000000 1.0
C      1  0.4871560000000  0.5930650000000  0.5272050000000 1.0
C      1  0.4525490000000  0.4211630000000  0.4335160000000 1.0
C      1  0.5467940000000  0.5791240000000  0.5679920000000 1.0
C      1  0.5685540000000  0.5151670000000  0.5985320000000 1.0
C      1  0.4314290000000  0.4859600000000  0.4018140000000 1.0
C      1  0.4809670000000  0.4130190000000  0.4336950000000 1.0
C      1  0.5184660000000  0.5874140000000  0.5673450000000 1.0
C      1  0.4329760000000  0.4845900000000  0.5259880000000 1.0
C      1  0.5619420000000  0.5089470000000  0.4807330000000 1.0
C      1  0.5534450000000  0.4939570000000  0.6144150000000 1.0
C      1  0.4475920000000  0.5064160000000  0.3857570000000 1.0
C      1  0.6015510000000  0.5367830000000  0.4898380000000 1.0
C      1  0.3949790000000  0.4611300000000  0.5074880000000 1.0
C      1  0.4762940000000  0.4743810000000  0.6057460000000 1.0
C      1  0.5245380000000  0.5265120000000  0.3960200000000 1.0
C      1  0.5291390000000  0.5114150000000  0.4205220000000 1.0
C      1  0.4713550000000  0.4891020000000  0.5810260000000 1.0
C      1  0.6218720000000  0.4448770000000  0.4845460000000 1.0
C      1  0.3820520000000  0.5538000000000  0.5101890000000 1.0
C      1  0.5277840000000  0.5234230000000  0.4466250000000 1.0
C      1  0.4726900000000  0.4769070000000  0.5550060000000 1.0
C      1  0.4331700000000  0.4536730000000  0.5849180000000 1.0
C      1  0.5663820000000  0.5463380000000  0.4134290000000 1.0
C      1  0.4959740000000  0.4476560000000  0.3978550000000 1.0
C      1  0.5030060000000  0.5529070000000  0.6032700000000 1.0
C      1  0.5925570000000  0.4443590000000  0.4457320000000 1.0
C      1  0.4076110000000  0.5545380000000  0.5517800000000 1.0
C      1  0.5630340000000  0.6094450000000  0.4558630000000 1.0
C      1  0.4391040000000  0.3897500000000  0.5446020000000 1.0
C      1  0.5318760000000  0.4277100000000  0.5802690000000 1.0
C      1  0.4694030000000  0.5734240000000  0.4195300000000 1.0
C      1  0.4006930000000  0.5627560000000  0.4710120000000 1.0
C      1  0.5994240000000  0.4403550000000  0.5274270000000 1.0
C      1  0.4801240000000  0.5425230000000  0.5360880000000 1.0
C      1  0.5197510000000  0.4584130000000  0.4649050000000 1.0
C      1  0.4568910000000  0.3942820000000  0.4716410000000 1.0
C      1  0.5442560000000  0.6062230000000  0.5289320000000 1.0
C      1  0.5714810000000  0.4595470000000  0.5905830000000 1.0
C      1  0.4294570000000  0.5422160000000  0.4083660000000 1.0
C      1  0.5102980000000  0.5457730000000  0.4501050000000 1.0
C      1  0.4908640000000  0.4551940000000  0.5507510000000 1.0
C      1  0.4734010000000  0.5225740000000  0.3973130000000 1.0
C      1  0.5274370000000  0.4780460000000  0.6033530000000 1.0
C      1  0.4718710000000  0.5175400000000  0.5797990000000 1.0
C      1  0.5272650000000  0.4830700000000  0.4211800000000 1.0
C      1  0.4471440000000  0.5300110000000  0.5844000000000 1.0
C      1  0.5513600000000  0.4698820000000  0.4148290000000 1.0
C      1  0.3965800000000  0.5111550000000  0.5695470000000 1.0
C      1  0.6019720000000  0.4883480000000  0.4275010000000 1.0
C      1  0.6213370000000  0.4474420000000  0.4075690000000 1.0
C      1  0.3767220000000  0.5524790000000  0.5885170000000 1.0
C      1  0.5534310000000  0.5515360000000  0.5684870000000 1.0
C      1  0.4454870000000  0.4488440000000  0.4329380000000 1.0
C      1  0.5350990000000  0.4157110000000  0.5506840000000 1.0
C      1  0.4658180000000  0.5855190000000  0.4490500000000 1.0
C      1  0.4965230000000  0.5719730000000  0.5813180000000 1.0
C      1  0.5026240000000  0.4283460000000  0.4193610000000 1.0
C      1  0.6399720000000  0.4655210000000  0.4509320000000 1.0
C      1  0.3599010000000  0.5344280000000  0.5444270000000 1.0
C      1  0.4876900000000  0.4447520000000  0.5013690000000 1.0
C      1  0.5123020000000  0.5562740000000  0.4994290000000 1.0
C      1  0.5433660000000  0.4534710000000  0.5926750000000 1.0
C      1  0.4577310000000  0.5476710000000  0.4070760000000 1.0
C      1  0.5592730000000  0.5466590000000  0.5159760000000 1.0
C      1  0.4401380000000  0.4528390000000  0.4854420000000 1.0
C      1  0.4229930000000  0.4662740000000  0.5057250000000 1.0
C      1  0.5740310000000  0.5308690000000  0.4953810000000 1.0
C      1  0.6022470000000  0.5495820000000  0.5392680000000 1.0
C      1  0.3962670000000  0.4552900000000  0.4569140000000 1.0
C      1  0.4842810000000  0.4919730000000  0.4415640000000 1.0
C      1  0.5145970000000  0.5092100000000  0.5603500000000 1.0
C      1  0.6156460000000  0.5187040000000  0.4711560000000 1.0
C      1  0.3813180000000  0.4799530000000  0.5260030000000 1.0
C      1  0.4830500000000  0.4335580000000  0.5302200000000 1.0
C      1  0.5180430000000  0.5673260000000  0.4704470000000 1.0
C      1  0.5538040000000  0.4100430000000  0.5046200000000 1.0
C      1  0.4471130000000  0.5906940000000  0.4950520000000 1.0
C      1  0.5021130000000  0.4141900000000  0.5765840000000 1.0
C      1  0.4992420000000  0.5865470000000  0.4237010000000 1.0
C      1  0.5087850000000  0.3943320000000  0.5468770000000 1.0
C      1  0.4926780000000  0.6065870000000  0.4533230000000 1.0
C      1  0.5188690000000  0.5052820000000  0.5893050000000 1.0
C      1  0.4808170000000  0.4953790000000  0.4122130000000 1.0
C      1  0.6111870000000  0.4948040000000  0.5305530000000 1.0
C      1  0.3880550000000  0.5084220000000  0.4680120000000 1.0
C      1  0.6129780000000  0.4720770000000  0.4910850000000 1.0
C      1  0.3896620000000  0.5258380000000  0.5061860000000 1.0
C      1  0.5308930000000  0.4250230000000  0.4286020000000 1.0
C      1  0.4682330000000  0.5753090000000  0.5715290000000 1.0
C      1  0.6028410000000  0.4281170000000  0.4689010000000 1.0
C      1  0.3991400000000  0.5702420000000  0.5278240000000 1.0
C      1  0.5842560000000  0.4739320000000  0.4859060000000 1.0
C      1  0.4175470000000  0.5218740000000  0.5143810000000 1.0
C      1  0.4754890000000  0.4686990000000  0.3998680000000 1.0
C      1  0.5238460000000  0.5319230000000  0.6019020000000 1.0
C      1  0.4451300000000  0.5594560000000  0.5820590000000 1.0
C      1  0.5534610000000  0.4405280000000  0.4171710000000 1.0
C      1  0.4234640000000  0.4787260000000  0.5705040000000 1.0
C      1  0.5755330000000  0.5209790000000  0.4272570000000 1.0
C      1  0.5513760000000  0.5379510000000  0.5936720000000 1.0
C      1  0.4479380000000  0.4626690000000  0.4076860000000 1.0
C      1  0.4601020000000  0.3925760000000  0.5244870000000 1.0
C      1  0.5417940000000  0.6075490000000  0.4759220000000 1.0
C      1  0.5035260000000  0.5040700000000  0.5098780000000 1.0
END
