TITL C-862127-1500-270 7.28862791042929 125000 -441.13032407259 0 0 77 (C1) n - 1
REM
REM in /home/nfs/bkarasulu/CARBON/AIRSS/Generating-Clusters/TERSOFF/Higher-Symm/FIRE-HFTN
REM
REM
REM
REM
REM
REM ./C.cell (b20cbc046b6831c77cfcea5457e17084)
REM AIRSS Version 0.9.1 bugfix July 2018 build 013d7b7c2542+ Fri, 06 Jul 2018 19:26:36 +0100
REM compiler GCC version 9.2.1 20190827 (Red Hat 9.2.1-1)
REM options -cpp -mtune=generic -march=x86-64 -g -O0 -fpre-include=/usr/include/finclude/math-vector-fortran.h
REM seed -57505519 1473732473 1390326743 -1739027263 -1238345790 -61221888 -1020645726 -748548677 1870607354 -107464052 -265848582 447560570 1052644545 -600027070 -680264067 -1142586779 -1516870943 -411631789 -78608557 1370487337 451286649 2044213313 -648968406 1385201449 1580880127 -500606030 1860519358 370542860 -1322485239 -1742780895 1266966160 -1311289573 1450579909
REM
CELL 1.54180   50.00000   50.00000   50.00000   90.00000   90.00000   90.00000
LATT -1
SFAC C  
C      1  0.5016280000000  0.5334290000000  0.4806560000000 1.0
C      1  0.4477210000000  0.4434210000000  0.5431990000000 1.0
C      1  0.5444910000000  0.5492230000000  0.5249680000000 1.0
C      1  0.5645230000000  0.5437710000000  0.5038000000000 1.0
C      1  0.4595850000000  0.4927170000000  0.5844360000000 1.0
C      1  0.5520470000000  0.4907330000000  0.4818180000000 1.0
C      1  0.4221910000000  0.4649650000000  0.5086050000000 1.0
C      1  0.5157240000000  0.5009850000000  0.5200660000000 1.0
C      1  0.4881230000000  0.5869630000000  0.4852330000000 1.0
C      1  0.5374290000000  0.4536000000000  0.5239500000000 1.0
C      1  0.5687030000000  0.4942440000000  0.5202150000000 1.0
C      1  0.5212920000000  0.5288480000000  0.4234870000000 1.0
C      1  0.5037750000000  0.4777380000000  0.4054010000000 1.0
C      1  0.5560770000000  0.5028900000000  0.5457960000000 1.0
C      1  0.5318600000000  0.4820710000000  0.4120660000000 1.0
C      1  0.4594380000000  0.5787910000000  0.4442490000000 1.0
C      1  0.4924910000000  0.5301090000000  0.5770290000000 1.0
C      1  0.5706280000000  0.5525360000000  0.4543120000000 1.0
C      1  0.4646190000000  0.4204260000000  0.4751460000000 1.0
C      1  0.4353690000000  0.4806810000000  0.5723490000000 1.0
C      1  0.4717550000000  0.5410080000000  0.4748680000000 1.0
C      1  0.5337290000000  0.4590080000000  0.5531780000000 1.0
C      1  0.4806930000000  0.4973910000000  0.4857990000000 1.0
C      1  0.5155290000000  0.4424190000000  0.5698840000000 1.0
C      1  0.5207660000000  0.5547070000000  0.4730460000000 1.0
C      1  0.4964210000000  0.5557030000000  0.5636590000000 1.0
C      1  0.5566330000000  0.5039260000000  0.4541090000000 1.0
C      1  0.4924150000000  0.5249000000000  0.4171270000000 1.0
C      1  0.4230560000000  0.5190560000000  0.4815500000000 1.0
C      1  0.5358670000000  0.5532470000000  0.4164410000000 1.0
C      1  0.5350290000000  0.5030600000000  0.4334900000000 1.0
C      1  0.4495530000000  0.5297480000000  0.5557250000000 1.0
C      1  0.5228410000000  0.4395620000000  0.4751560000000 1.0
C      1  0.5467190000000  0.4823820000000  0.5636070000000 1.0
C      1  0.5455600000000  0.5304530000000  0.5476360000000 1.0
C      1  0.4492770000000  0.5196190000000  0.4690870000000 1.0
C      1  0.5025480000000  0.4171610000000  0.5175300000000 1.0
C      1  0.4741100000000  0.4997420000000  0.5145820000000 1.0
C      1  0.5295420000000  0.4262050000000  0.5169540000000 1.0
C      1  0.5561860000000  0.5658360000000  0.4330070000000 1.0
C      1  0.5064670000000  0.5269600000000  0.5102590000000 1.0
C      1  0.4752930000000  0.5465310000000  0.4072830000000 1.0
C      1  0.4586310000000  0.4903180000000  0.4624770000000 1.0
C      1  0.4560390000000  0.5218220000000  0.5270390000000 1.0
C      1  0.4991160000000  0.4170750000000  0.4756720000000 1.0
C      1  0.4599240000000  0.4620530000000  0.4770260000000 1.0
C      1  0.5682230000000  0.5618060000000  0.4815120000000 1.0
C      1  0.5766170000000  0.5244920000000  0.4512170000000 1.0
C      1  0.4685140000000  0.5701420000000  0.4703990000000 1.0
C      1  0.4876240000000  0.4510700000000  0.5756230000000 1.0
C      1  0.4317000000000  0.5014640000000  0.5269710000000 1.0
C      1  0.5100700000000  0.4636050000000  0.4841250000000 1.0
C      1  0.4810910000000  0.4346700000000  0.5110240000000 1.0
C      1  0.5196230000000  0.5657570000000  0.5194890000000 1.0
C      1  0.5528920000000  0.4409940000000  0.4846860000000 1.0
C      1  0.4836660000000  0.4965080000000  0.4160970000000 1.0
C      1  0.4731530000000  0.5729730000000  0.4193120000000 1.0
C      1  0.4821100000000  0.4753910000000  0.5901810000000 1.0
C      1  0.5137800000000  0.4927270000000  0.4506100000000 1.0
C      1  0.4645430000000  0.4357770000000  0.5660080000000 1.0
C      1  0.4648290000000  0.5206230000000  0.5779780000000 1.0
C      1  0.5094600000000  0.4927570000000  0.5472390000000 1.0
C      1  0.5651280000000  0.4626640000000  0.5100500000000 1.0
C      1  0.4532800000000  0.4305550000000  0.5177940000000 1.0
C      1  0.5771630000000  0.5167980000000  0.5030880000000 1.0
C      1  0.4840960000000  0.4561160000000  0.4926130000000 1.0
C      1  0.4709190000000  0.5486260000000  0.5200550000000 1.0
C      1  0.4151050000000  0.4986200000000  0.5016060000000 1.0
C      1  0.5154020000000  0.5767840000000  0.4918980000000 1.0
C      1  0.4612450000000  0.4868710000000  0.4324500000000 1.0
C      1  0.5059290000000  0.5043410000000  0.4748810000000 1.0
C      1  0.5281250000000  0.4804240000000  0.5013150000000 1.0
C      1  0.4949500000000  0.5591290000000  0.5346820000000 1.0
C      1  0.5117000000000  0.5096470000000  0.5704940000000 1.0
C      1  0.5251960000000  0.4172430000000  0.5808290000000 1.0
C      1  0.4392520000000  0.4421450000000  0.4901450000000 1.0
C      1  0.4332000000000  0.4712510000000  0.5426570000000 1.0
END
