TITL C-862132-7359-163 6.24357014730218e-10 125000 -211.518926417705 0 0 37 (C5) n - 1
REM
REM in /home/nfs/bkarasulu/CARBON/AIRSS/Generating-Clusters/TERSOFF/Higher-Symm/FIRE-HFTN
REM
REM
REM
REM
REM
REM ./C.cell (b20cbc046b6831c77cfcea5457e17084)
REM AIRSS Version 0.9.1 bugfix July 2018 build 013d7b7c2542+ Fri, 06 Jul 2018 19:26:36 +0100
REM compiler GCC version 9.2.1 20190827 (Red Hat 9.2.1-1)
REM options -cpp -mtune=generic -march=x86-64 -g -O0 -fpre-include=/usr/include/finclude/math-vector-fortran.h
REM seed 110462169 -189920195 -649966514 1936655653 -1924330681 1509569803 -915782489 -1975053817 263509580 -804435281 1431068679 -1587635192 -1072991863 -770853872 105845975 410978371 -982686233 -1494355796 1974779290 899819018 1316249621 622928921 -1619441609 -260056956 -1320897362 790584757 1124619434 483177640 -1521066596 1586194159 -480925498 949438082 233072466
REM
CELL 1.54180   50.00000   50.00000   50.00000   90.00000   90.00000   90.00000
LATT -1
SFAC C  
C      1  0.4520810000000  0.5263870000000  0.4986270000000 1.0
C      1  0.4520810000000  0.5095600000000  0.5238200000000 1.0
C      1  0.4520810000000  0.4804010000000  0.5156020000000 1.0
C      1  0.4520810000000  0.4792060000000  0.4853300000000 1.0
C      1  0.4520810000000  0.5076270000000  0.4748390000000 1.0
C      1  0.5271360000000  0.4687120000000  0.4818960000000 1.0
C      1  0.5271360000000  0.5076500000000  0.4637980000000 1.0
C      1  0.5271350000000  0.5368950000000  0.4952370000000 1.0
C      1  0.5271360000000  0.5160320000000  0.5327660000000 1.0
C      1  0.5271360000000  0.4738920000000  0.5245210000000 1.0
C      1  0.5149540000000  0.5024560000000  0.5573380000000 1.0
C      1  0.5149540000000  0.4463270000000  0.5192030000000 1.0
C      1  0.5149540000000  0.4652520000000  0.4540370000000 1.0
C      1  0.5149540000000  0.5330760000000  0.4518980000000 1.0
C      1  0.5149540000000  0.5560690000000  0.5157420000000 1.0
C      1  0.4859230000000  0.4429000000000  0.5163580000000 1.0
C      1  0.4859230000000  0.4668980000000  0.4498990000000 1.0
C      1  0.4859230000000  0.5375210000000  0.4521850000000 1.0
C      1  0.4859230000000  0.5571700000000  0.5200580000000 1.0
C      1  0.4859230000000  0.4986910000000  0.5597190000000 1.0
C      1  0.4681630000000  0.4581840000000  0.4719230000000 1.0
C      1  0.4681630000000  0.5138810000000  0.4507030000000 1.0
C      1  0.4681630000000  0.5512740000000  0.4971170000000 1.0
C      1  0.4681630000000  0.5186870000000  0.5470230000000 1.0
C      1  0.4681630000000  0.4611540000000  0.5314520000000 1.0
C      1  0.4766670000000  0.4368090000000  0.4894960000000 1.0
C      1  0.4766670000000  0.4905640000000  0.4358050000000 1.0
C      1  0.4766670000000  0.5582380000000  0.4703370000000 1.0
C      1  0.4766670000000  0.5463080000000  0.5453700000000 1.0
C      1  0.4766670000000  0.4712610000000  0.5572110000000 1.0
C      1  0.5319760000000  0.4793690000000  0.5526670000000 1.0
C      1  0.5319760000000  0.4436370000000  0.4958030000000 1.0
C      1  0.5319760000000  0.4866750000000  0.4442470000000 1.0
C      1  0.5319760000000  0.5490070000000  0.4692480000000 1.0
C      1  0.5319760000000  0.5444920000000  0.5362550000000 1.0
C      1  0.5613130000000  0.5006360000000  0.4996440000000 1.0
C      1  0.5294180000000  0.5006360000000  0.4996440000000 1.0
END
