TITL C-862128-1543-1441 -0.00721013873489549 125000 -1003.09328662649 0 0 167 (C1) n - 1
REM
REM in /home/nfs/bkarasulu/CARBON/AIRSS/Generating-Clusters/TERSOFF/Higher-Symm/FIRE-HFTN
REM
REM
REM
REM
REM
REM ./C.cell (b20cbc046b6831c77cfcea5457e17084)
REM AIRSS Version 0.9.1 bugfix July 2018 build 013d7b7c2542+ Fri, 06 Jul 2018 19:26:36 +0100
REM compiler GCC version 9.2.1 20190827 (Red Hat 9.2.1-1)
REM options -cpp -mtune=generic -march=x86-64 -g -O0 -fpre-include=/usr/include/finclude/math-vector-fortran.h
REM seed 1518340814 137885465 -733017540 -1777138979 1792210776 -988604964 405769519 -1962113645 722830158 820214834 224524019 -1269339698 1597446152 936844985 1206305835 -1777081823 -1614739012 1196670313 768230761 -2000553133 -512832073 997465346 -692081350 -1466998879 2034963418 512556189 -260324821 -180734077 904219794 42942145 -569422995 -1312559956 1487523305
REM
CELL 1.54180   50.00000   50.00000   50.00000   90.00000   90.00000   90.00000
LATT -1
SFAC C  
C      1  0.5286480000000  0.5221130000000  0.4720440000000 1.0
C      1  0.5068540000000  0.4623280000000  0.4693550000000 1.0
C      1  0.4648790000000  0.5148010000000  0.4683170000000 1.0
C      1  0.5336490000000  0.4766780000000  0.5308330000000 1.0
C      1  0.5013860000000  0.5350830000000  0.5294560000000 1.0
C      1  0.4596220000000  0.4839800000000  0.5294420000000 1.0
C      1  0.5799210000000  0.4351160000000  0.4548640000000 1.0
C      1  0.4031100000000  0.4636810000000  0.4553050000000 1.0
C      1  0.5167770000000  0.6015170000000  0.4547810000000 1.0
C      1  0.5786160000000  0.5643370000000  0.5420760000000 1.0
C      1  0.4038680000000  0.5373920000000  0.5422580000000 1.0
C      1  0.5173750000000  0.3990830000000  0.5420780000000 1.0
C      1  0.4165860000000  0.5272960000000  0.4524880000000 1.0
C      1  0.5632640000000  0.5575890000000  0.4528980000000 1.0
C      1  0.5184270000000  0.4155830000000  0.4525030000000 1.0
C      1  0.4170090000000  0.4736910000000  0.5455870000000 1.0
C      1  0.5667240000000  0.4407990000000  0.5443820000000 1.0
C      1  0.5185710000000  0.5839080000000  0.5434890000000 1.0
C      1  0.5443240000000  0.4726270000000  0.4120150000000 1.0
C      1  0.4531590000000  0.4753430000000  0.4113080000000 1.0
C      1  0.5020190000000  0.5530950000000  0.4109320000000 1.0
C      1  0.5447700000000  0.5279480000000  0.5868490000000 1.0
C      1  0.4527110000000  0.5254860000000  0.5870670000000 1.0
C      1  0.5026340000000  0.4473200000000  0.5861410000000 1.0
C      1  0.4500080000000  0.4262690000000  0.5827440000000 1.0
C      1  0.4610560000000  0.5813620000000  0.5833300000000 1.0
C      1  0.5905070000000  0.4937180000000  0.5840060000000 1.0
C      1  0.4495770000000  0.5743100000000  0.4140990000000 1.0
C      1  0.4610780000000  0.4197580000000  0.4140940000000 1.0
C      1  0.5884200000000  0.5075270000000  0.4146620000000 1.0
C      1  0.4349520000000  0.4305940000000  0.4072110000000 1.0
C      1  0.4721720000000  0.5912070000000  0.4068890000000 1.0
C      1  0.5921070000000  0.4796650000000  0.4071730000000 1.0
C      1  0.4349940000000  0.5705470000000  0.5905360000000 1.0
C      1  0.4726380000000  0.4092230000000  0.5897400000000 1.0
C      1  0.5929820000000  0.5219220000000  0.5908680000000 1.0
C      1  0.3903750000000  0.5173710000000  0.5242320000000 1.0
C      1  0.5690480000000  0.5862730000000  0.5239770000000 1.0
C      1  0.5413900000000  0.3967050000000  0.5239830000000 1.0
C      1  0.3897320000000  0.4838830000000  0.4735010000000 1.0
C      1  0.5694980000000  0.4133690000000  0.4727900000000 1.0
C      1  0.5408050000000  0.6031940000000  0.4728290000000 1.0
C      1  0.4407910000000  0.5797190000000  0.5295660000000 1.0
C      1  0.5975220000000  0.5130240000000  0.5306360000000 1.0
C      1  0.4638840000000  0.4122810000000  0.5299220000000 1.0
C      1  0.4409770000000  0.4228260000000  0.4677600000000 1.0
C      1  0.5965070000000  0.4879000000000  0.4674110000000 1.0
C      1  0.4628400000000  0.5898060000000  0.4669020000000 1.0
C      1  0.5793570000000  0.5388470000000  0.4715580000000 1.0
C      1  0.4938920000000  0.4103450000000  0.4709290000000 1.0
C      1  0.4251360000000  0.5507620000000  0.4708920000000 1.0
C      1  0.5844600000000  0.4591700000000  0.5266130000000 1.0
C      1  0.4940760000000  0.5909880000000  0.5259460000000 1.0
C      1  0.4266700000000  0.4513370000000  0.5264000000000 1.0
C      1  0.4240680000000  0.5550510000000  0.5252330000000 1.0
C      1  0.5814270000000  0.5380110000000  0.5258390000000 1.0
C      1  0.4931010000000  0.4093060000000  0.5251770000000 1.0
C      1  0.4235980000000  0.4468570000000  0.4724340000000 1.0
C      1  0.5847890000000  0.4608040000000  0.4720960000000 1.0
C      1  0.4923300000000  0.5918950000000  0.4716690000000 1.0
C      1  0.4998760000000  0.5829500000000  0.4103200000000 1.0
C      1  0.5713690000000  0.4595840000000  0.4108940000000 1.0
C      1  0.4281460000000  0.4586810000000  0.4107940000000 1.0
C      1  0.5004400000000  0.4174390000000  0.5866250000000 1.0
C      1  0.5715790000000  0.5412770000000  0.5870260000000 1.0
C      1  0.4279770000000  0.5424790000000  0.5871970000000 1.0
C      1  0.5307510000000  0.4819870000000  0.6111320000000 1.0
C      1  0.4704810000000  0.4834390000000  0.6103140000000 1.0
C      1  0.5000880000000  0.5354280000000  0.6110180000000 1.0
C      1  0.5310010000000  0.5187300000000  0.3869260000000 1.0
C      1  0.4700150000000  0.5169860000000  0.3868930000000 1.0
C      1  0.5002020000000  0.4651740000000  0.3872370000000 1.0
C      1  0.4641700000000  0.4694280000000  0.4391240000000 1.0
C      1  0.4910920000000  0.5460650000000  0.4384360000000 1.0
C      1  0.5438080000000  0.4848730000000  0.4401510000000 1.0
C      1  0.4641540000000  0.5314630000000  0.5597180000000 1.0
C      1  0.4918010000000  0.4539630000000  0.5585980000000 1.0
C      1  0.5443930000000  0.5137070000000  0.5601260000000 1.0
C      1  0.4776000000000  0.4894880000000  0.4822740000000 1.0
C      1  0.5023150000000  0.5228230000000  0.4875930000000 1.0
C      1  0.5189100000000  0.4842430000000  0.4872960000000 1.0
C      1  0.4732240000000  0.5008660000000  0.5084220000000 1.0
C      1  0.5095430000000  0.4811800000000  0.5149730000000 1.0
C      1  0.4998880000000  0.5103310000000  0.5141360000000 1.0
C      1  0.5905790000000  0.4476730000000  0.4997870000000 1.0
C      1  0.4115850000000  0.4497130000000  0.5006450000000 1.0
C      1  0.5005940000000  0.6030010000000  0.4995720000000 1.0
C      1  0.5867250000000  0.5504390000000  0.4977130000000 1.0
C      1  0.4109230000000  0.5518770000000  0.4970580000000 1.0
C      1  0.5008140000000  0.3983890000000  0.4973120000000 1.0
C      1  0.4802020000000  0.4594900000000  0.5147460000000 1.0
C      1  0.4745250000000  0.5467860000000  0.5162050000000 1.0
C      1  0.5538730000000  0.4968800000000  0.5172190000000 1.0
C      1  0.4756730000000  0.5434410000000  0.4828660000000 1.0
C      1  0.4759800000000  0.4567490000000  0.4814170000000 1.0
C      1  0.5494250000000  0.4985540000000  0.4848700000000 1.0
C      1  0.5290650000000  0.5401160000000  0.4069790000000 1.0
C      1  0.5197150000000  0.4557380000000  0.4071330000000 1.0
C      1  0.4513630000000  0.5051780000000  0.4064920000000 1.0
C      1  0.5295060000000  0.4604280000000  0.5909580000000 1.0
C      1  0.5196730000000  0.5446820000000  0.5909200000000 1.0
C      1  0.4511030000000  0.4954910000000  0.5914820000000 1.0
C      1  0.5805820000000  0.4884650000000  0.5325080000000 1.0
C      1  0.4548200000000  0.4404420000000  0.5320170000000 1.0
C      1  0.4699840000000  0.5743230000000  0.5318440000000 1.0
C      1  0.5762430000000  0.5094690000000  0.4659870000000 1.0
C      1  0.4528050000000  0.5618370000000  0.4651510000000 1.0
C      1  0.4700700000000  0.4283060000000  0.4652280000000 1.0
C      1  0.4765770000000  0.4796310000000  0.5564700000000 1.0
C      1  0.4936560000000  0.5296820000000  0.5573180000000 1.0
C      1  0.5290120000000  0.4886040000000  0.5586410000000 1.0
C      1  0.4763080000000  0.5200190000000  0.4406860000000 1.0
C      1  0.4942710000000  0.4705140000000  0.4420210000000 1.0
C      1  0.5280680000000  0.5104770000000  0.4437980000000 1.0
C      1  0.5186790000000  0.4014290000000  0.5708290000000 1.0
C      1  0.4050810000000  0.5350250000000  0.5711000000000 1.0
C      1  0.5760830000000  0.5647870000000  0.5708130000000 1.0
C      1  0.5180660000000  0.5990500000000  0.4260460000000 1.0
C      1  0.4049910000000  0.4663850000000  0.4265120000000 1.0
C      1  0.5766320000000  0.4356300000000  0.4262010000000 1.0
C      1  0.5543500000000  0.4698250000000  0.4663470000000 1.0
C      1  0.4453230000000  0.4685570000000  0.4657790000000 1.0
C      1  0.4993820000000  0.5611050000000  0.4655480000000 1.0
C      1  0.5517610000000  0.5265640000000  0.5323520000000 1.0
C      1  0.4467580000000  0.5330790000000  0.5323880000000 1.0
C      1  0.5011180000000  0.4394720000000  0.5318850000000 1.0
C      1  0.5708080000000  0.5167570000000  0.4362280000000 1.0
C      1  0.4782570000000  0.4300450000000  0.4355470000000 1.0
C      1  0.4499920000000  0.5540040000000  0.4353300000000 1.0
C      1  0.5736830000000  0.4831680000000  0.5623380000000 1.0
C      1  0.4780390000000  0.5710460000000  0.5616860000000 1.0
C      1  0.4505340000000  0.4471620000000  0.5620480000000 1.0
C      1  0.3906870000000  0.5297390000000  0.4965310000000 1.0
C      1  0.5790870000000  0.5791050000000  0.4966350000000 1.0
C      1  0.5298150000000  0.3918580000000  0.4965200000000 1.0
C      1  0.3913360000000  0.4716800000000  0.5012680000000 1.0
C      1  0.5805260000000  0.4195260000000  0.5002150000000 1.0
C      1  0.5298290000000  0.6088390000000  0.5002840000000 1.0
C      1  0.5347700000000  0.4479200000000  0.4735810000000 1.0
C      1  0.4374360000000  0.4978940000000  0.4739330000000 1.0
C      1  0.5275670000000  0.5536500000000  0.4744530000000 1.0
C      1  0.5295980000000  0.5450840000000  0.5241290000000 1.0
C      1  0.4353260000000  0.5055840000000  0.5255530000000 1.0
C      1  0.5298130000000  0.4458470000000  0.5250410000000 1.0
C      1  0.4435680000000  0.4778490000000  0.5677520000000 1.0
C      1  0.5076530000000  0.5587010000000  0.5666490000000 1.0
C      1  0.5497160000000  0.4620150000000  0.5673820000000 1.0
C      1  0.4439780000000  0.5230070000000  0.4301130000000 1.0
C      1  0.5078180000000  0.4412410000000  0.4309100000000 1.0
C      1  0.5454230000000  0.5356040000000  0.4315770000000 1.0
C      1  0.5417510000000  0.5965990000000  0.5253480000000 1.0
C      1  0.5647620000000  0.4145410000000  0.5257780000000 1.0
C      1  0.3945670000000  0.4881640000000  0.5266170000000 1.0
C      1  0.5418760000000  0.4034750000000  0.4713740000000 1.0
C      1  0.5629800000000  0.5840320000000  0.4713840000000 1.0
C      1  0.3935140000000  0.5131770000000  0.4708040000000 1.0
C      1  0.4709740000000  0.4623720000000  0.3896970000000 1.0
C      1  0.4822000000000  0.5437670000000  0.3891840000000 1.0
C      1  0.5471080000000  0.4942470000000  0.3899470000000 1.0
C      1  0.4707570000000  0.5383490000000  0.6086520000000 1.0
C      1  0.4821910000000  0.4564420000000  0.6075460000000 1.0
C      1  0.5471010000000  0.5064490000000  0.6088450000000 1.0
C      1  0.4227400000000  0.5027290000000  0.4990880000000 1.0
C      1  0.5393110000000  0.4350380000000  0.4994050000000 1.0
C      1  0.5343550000000  0.5622640000000  0.5012930000000 1.0
C      1  0.4998480000000  0.5002770000000  0.4367410000000 1.0
C      1  0.4993930000000  0.4994640000000  0.5621190000000 1.0
END
