TITL C-862131-2149-831 -0.000131724508834927 125000 -813.741577075656 0 0 158 (C3) n - 1
REM
REM in /home/nfs/bkarasulu/CARBON/AIRSS/Generating-Clusters/TERSOFF/Higher-Symm/FIRE-HFTN
REM
REM
REM
REM
REM
REM ./C.cell (b20cbc046b6831c77cfcea5457e17084)
REM AIRSS Version 0.9.1 bugfix July 2018 build 013d7b7c2542+ Fri, 06 Jul 2018 19:26:36 +0100
REM compiler GCC version 9.2.1 20190827 (Red Hat 9.2.1-1)
REM options -cpp -mtune=generic -march=x86-64 -g -O0 -fpre-include=/usr/include/finclude/math-vector-fortran.h
REM seed -1192175240 -1985934533 -1909170208 1441428239 1992642075 495386913 640908406 -1759898656 634844005 1359602746 1551151774 1661428011 -986535427 -37548568 886867781 -1228478056 -1188759593 -1642181310 1635023041 526680431 525531318 -1331773588 -1028565554 271059061 147719972 -1681655690 136221719 -2063561195 -121825562 857681974 1546276241 1370376935 621961033
REM
CELL 1.54180   50.00000   50.00000   50.00000   90.00000   90.00000   90.00000
LATT -1
SFAC C  
C      1  0.5419210000000  0.5117490000000  0.3933730000000 1.0
C      1  0.5874590000000  0.4882890000000  0.4321050000000 1.0
C      1  0.6094960000000  0.5119840000000  0.4841930000000 1.0
C      1  0.6061550000000  0.4882240000000  0.5411240000000 1.0
C      1  0.5719190000000  0.5117490000000  0.5890790000000 1.0
C      1  0.5156070000000  0.4882880000000  0.6091490000000 1.0
C      1  0.4594790000000  0.5119840000000  0.6021900000000 1.0
C      1  0.4118460000000  0.4882230000000  0.5708310000000 1.0
C      1  0.3874330000000  0.5117490000000  0.5172050000000 1.0
C      1  0.3982080000000  0.4882880000000  0.4584020000000 1.0
C      1  0.4322990000000  0.5119840000000  0.4132730000000 1.0
C      1  0.4832730000000  0.4882240000000  0.3877010000000 1.0
C      1  0.4788800000000  0.5485140000000  0.5413130000000 1.0
C      1  0.4579000000000  0.4559330000000  0.5284080000000 1.0
C      1  0.4487840000000  0.5438890000000  0.5032850000000 1.0
C      1  0.4594870000000  0.4514970000000  0.4785970000000 1.0
C      1  0.4753200000000  0.5485140000000  0.4605140000000 1.0
C      1  0.4969860000000  0.4559330000000  0.4487970000000 1.0
C      1  0.5233010000000  0.5438890000000  0.4534640000000 1.0
C      1  0.5393300000000  0.4514970000000  0.4750770000000 1.0
C      1  0.5470740000000  0.5485140000000  0.4978300000000 1.0
C      1  0.5463880000000  0.4559330000000  0.5224520000000 1.0
C      1  0.5291890000000  0.5438890000000  0.5429080000000 1.0
C      1  0.5024570000000  0.4514970000000  0.5459830000000 1.0
C      1  0.4587940000000  0.4356780000000  0.5044660000000 1.0
C      1  0.4621190000000  0.5641640000000  0.4831080000000 1.0
C      1  0.4865410000000  0.4359980000000  0.4731230000000 1.0
C      1  0.5017690000000  0.5634560000000  0.4697110000000 1.0
C      1  0.5172730000000  0.4356780000000  0.4615420000000 1.0
C      1  0.5341070000000  0.5641640000000  0.4751010000000 1.0
C      1  0.5305430000000  0.4359980000000  0.5012440000000 1.0
C      1  0.5258850000000  0.5634560000000  0.5161380000000 1.0
C      1  0.5252070000000  0.4356780000000  0.5336490000000 1.0
C      1  0.5050480000000  0.5641640000000  0.5414480000000 1.0
C      1  0.4841890000000  0.4359980000000  0.5252900000000 1.0
C      1  0.4736200000000  0.5634560000000  0.5138090000000 1.0
C      1  0.4721470000000  0.5954880000000  0.4753380000000 1.0
C      1  0.4888840000000  0.4041060000000  0.4666710000000 1.0
C      1  0.5069800000000  0.5954530000000  0.4654060000000 1.0
C      1  0.5250030000000  0.4042940000000  0.4716680000000 1.0
C      1  0.5358220000000  0.5954880000000  0.4876710000000 1.0
C      1  0.5349600000000  0.4041060000000  0.5064980000000 1.0
C      1  0.5270070000000  0.5954530000000  0.5228030000000 1.0
C      1  0.5125730000000  0.4042940000000  0.5352800000000 1.0
C      1  0.4933040000000  0.5954880000000  0.5366480000000 1.0
C      1  0.4774300000000  0.4041060000000  0.5264870000000 1.0
C      1  0.4672860000000  0.5954530000000  0.5114480000000 1.0
C      1  0.4636980000000  0.4042940000000  0.4927090000000 1.0
C      1  0.5131720000000  0.4814910000000  0.4202740000000 1.0
C      1  0.5506160000000  0.5167150000000  0.4379250000000 1.0
C      1  0.5688060000000  0.4819890000000  0.4739190000000 1.0
C      1  0.5743460000000  0.5197140000000  0.5123710000000 1.0
C      1  0.5629960000000  0.4814910000000  0.5507300000000 1.0
C      1  0.5289880000000  0.5167150000000  0.5743320000000 1.0
C      1  0.4887220000000  0.4819890000000  0.5720890000000 1.0
C      1  0.4526510000000  0.5197130000000  0.5576610000000 1.0
C      1  0.4251060000000  0.4814910000000  0.5286520000000 1.0
C      1  0.4216700000000  0.5167150000000  0.4873990000000 1.0
C      1  0.4437460000000  0.4819890000000  0.4536490000000 1.0
C      1  0.4742760000000  0.5197140000000  0.4296250000000 1.0
C      1  0.4822430000000  0.5123940000000  0.5669160000000 1.0
C      1  0.4481670000000  0.4904170000000  0.5499670000000 1.0
C      1  0.4293110000000  0.5098500000000  0.5178700000000 1.0
C      1  0.4324810000000  0.4872610000000  0.4826080000000 1.0
C      1  0.4514660000000  0.5123940000000  0.4506250000000 1.0
C      1  0.4831810000000  0.4904170000000  0.4295890000000 1.0
C      1  0.5204060000000  0.5098510000000  0.4293070000000 1.0
C      1  0.5493590000000  0.4872610000000  0.4496830000000 1.0
C      1  0.5675650000000  0.5123940000000  0.4821160000000 1.0
C      1  0.5699250000000  0.4904170000000  0.5201010000000 1.0
C      1  0.5515560000000  0.5098510000000  0.5524790000000 1.0
C      1  0.5194340000000  0.4872610000000  0.5673650000000 1.0
C      1  0.4170710000000  0.4667460000000  0.5013880000000 1.0
C      1  0.4283110000000  0.5321490000000  0.4597770000000 1.0
C      1  0.4598680000000  0.4691630000000  0.4294430000000 1.0
C      1  0.5009380000000  0.5319450000000  0.4175820000000 1.0
C      1  0.5408000000000  0.4667460000000  0.4269480000000 1.0
C      1  0.5712160000000  0.5321490000000  0.4574870000000 1.0
C      1  0.5817080000000  0.4691630000000  0.4999840000000 1.0
C      1  0.5714450000000  0.5319450000000  0.5414820000000 1.0
C      1  0.5434030000000  0.4667460000000  0.5713210000000 1.0
C      1  0.5017470000000  0.5321490000000  0.5823920000000 1.0
C      1  0.4596980000000  0.4691620000000  0.5702300000000 1.0
C      1  0.4288910000000  0.5319450000000  0.5405920000000 1.0
C      1  0.4961850000000  0.5630610000000  0.4215540000000 1.0
C      1  0.5394070000000  0.4342980000000  0.4259690000000 1.0
C      1  0.5710150000000  0.5648420000000  0.4552730000000 1.0
C      1  0.5784980000000  0.4376600000000  0.4956610000000 1.0
C      1  0.5703820000000  0.5630610000000  0.5353800000000 1.0
C      1  0.5449470000000  0.4342980000000  0.5706030000000 1.0
C      1  0.5037650000000  0.5648420000000  0.5833250000000 1.0
C      1  0.4650470000000  0.4376590000000  0.5696110000000 1.0
C      1  0.4347070000000  0.5630610000000  0.5427230000000 1.0
C      1  0.4169200000000  0.4342980000000  0.5030840000000 1.0
C      1  0.4264940000000  0.5648420000000  0.4610590000000 1.0
C      1  0.4577300000000  0.4376600000000  0.4343850000000 1.0
C      1  0.4025280000000  0.5136920000000  0.5499320000000 1.0
C      1  0.3920330000000  0.4866730000000  0.4938350000000 1.0
C      1  0.4106400000000  0.5130490000000  0.4408740000000 1.0
C      1  0.4507450000000  0.4867440000000  0.4032400000000 1.0
C      1  0.5060320000000  0.5136920000000  0.3900810000000 1.0
C      1  0.5598600000000  0.4866730000000  0.4090410000000 1.0
C      1  0.5964220000000  0.5130490000000  0.4516360000000 1.0
C      1  0.6089620000000  0.4867440000000  0.5051840000000 1.0
C      1  0.5927140000000  0.5136920000000  0.5596440000000 1.0
C      1  0.5493800000000  0.4866730000000  0.5967800000000 1.0
C      1  0.4942110000000  0.5130490000000  0.6071470000000 1.0
C      1  0.4415670000000  0.4867440000000  0.5912320000000 1.0
C      1  0.5992950000000  0.5376990000000  0.4999770000000 1.0
C      1  0.5896790000000  0.4618580000000  0.5511570000000 1.0
C      1  0.5513640000000  0.5372280000000  0.5883630000000 1.0
C      1  0.5002540000000  0.4632030000000  0.5973790000000 1.0
C      1  0.4509100000000  0.5376990000000  0.5854650000000 1.0
C      1  0.4113950000000  0.4618570000000  0.5515470000000 1.0
C      1  0.3983310000000  0.5372280000000  0.4997620000000 1.0
C      1  0.4160780000000  0.4632030000000  0.4509910000000 1.0
C      1  0.4510680000000  0.5376990000000  0.4142150000000 1.0
C      1  0.5001990000000  0.4618580000000  0.3969530000000 1.0
C      1  0.5515780000000  0.5372280000000  0.4115320000000 1.0
C      1  0.5849420000000  0.4632040000000  0.4512870000000 1.0
C      1  0.4702340000000  0.5198790000000  0.5010380000000 1.0
C      1  0.4734980000000  0.4788940000000  0.4859230000000 1.0
C      1  0.4845770000000  0.5217220000000  0.4746050000000 1.0
C      1  0.4990760000000  0.4805110000000  0.4694450000000 1.0
C      1  0.5145220000000  0.5198790000000  0.4731640000000 1.0
C      1  0.5259800000000  0.4788940000000  0.4835480000000 1.0
C      1  0.5302420000000  0.5217220000000  0.4988010000000 1.0
C      1  0.5274620000000  0.4805110000000  0.5139380000000 1.0
C      1  0.5165170000000  0.5198790000000  0.5254550000000 1.0
C      1  0.5017960000000  0.4788940000000  0.5301860000000 1.0
C      1  0.4864550000000  0.5217220000000  0.5262500000000 1.0
C      1  0.4747360000000  0.4805110000000  0.5162740000000 1.0
C      1  0.5065150000000  0.4381440000000  0.4209410000000 1.0
C      1  0.5453240000000  0.5618300000000  0.4343860000000 1.0
C      1  0.5677320000000  0.4398530000000  0.4661450000000 1.0
C      1  0.5761570000000  0.5608800000000  0.5043490000000 1.0
C      1  0.5657470000000  0.4381440000000  0.5446320000000 1.0
C      1  0.5346990000000  0.5618300000000  0.5715190000000 1.0
C      1  0.4959910000000  0.4398530000000  0.5750460000000 1.0
C      1  0.4586920000000  0.5608790000000  0.5632400000000 1.0
C      1  0.4290120000000  0.4381440000000  0.5340830000000 1.0
C      1  0.4212510000000  0.5618300000000  0.4937520000000 1.0
C      1  0.4375510000000  0.4398530000000  0.4584660000000 1.0
C      1  0.4664240000000  0.5608790000000  0.4320670000000 1.0
C      1  0.4313730000000  0.4157180000000  0.4802470000000 1.0
C      1  0.4501350000000  0.5841640000000  0.4485550000000 1.0
C      1  0.4820590000000  0.4193390000000  0.4348600000000 1.0
C      1  0.5170000000000  0.5808200000000  0.4346620000000 1.0
C      1  0.5519580000000  0.4157190000000  0.4499040000000 1.0
C      1  0.5700230000000  0.5841640000000  0.4819990000000 1.0
C      1  0.5659220000000  0.4193390000000  0.5164930000000 1.0
C      1  0.5486220000000  0.5808200000000  0.5468530000000 1.0
C      1  0.5179430000000  0.4157180000000  0.5695050000000 1.0
C      1  0.4811160000000  0.5841640000000  0.5691030000000 1.0
C      1  0.4532940000000  0.4193380000000  0.5483040000000 1.0
C      1  0.4356510000000  0.5808200000000  0.5181420000000 1.0
C      1  0.5004250000000  0.4385500000000  0.4998850000000 1.0
C      1  0.5004240000000  0.5605250000000  0.4998860000000 1.0
END
