TITL C-862129-6180-1381 54.8407914368905 125000 -883.922414150121 0 0 152 (C3h) n - 1
REM
REM in /home/nfs/bkarasulu/CARBON/AIRSS/Generating-Clusters/TERSOFF/Higher-Symm/FIRE-HFTN
REM
REM
REM
REM
REM
REM ./C.cell (b20cbc046b6831c77cfcea5457e17084)
REM AIRSS Version 0.9.1 bugfix July 2018 build 013d7b7c2542+ Fri, 06 Jul 2018 19:26:36 +0100
REM compiler GCC version 9.2.1 20190827 (Red Hat 9.2.1-1)
REM options -cpp -mtune=generic -march=x86-64 -g -O0 -fpre-include=/usr/include/finclude/math-vector-fortran.h
REM seed 1727709009 -1537344719 186224026 447708369 -2109179944 190132831 1771643421 -1080793427 830816423 947801596 -767121636 -1533934028 -1958882828 -1565356795 664015206 -981367211 1274193577 -952369457 -1835708727 484813029 370399441 -461285926 1811198358 -1640837915 1359195111 8544338 -704491944 219426861 1929415632 341285842 -1481188803 800731200 820791304
REM
CELL 1.54180   50.00000   50.00000   50.00000   90.00000   90.00000   90.00000
LATT -1
SFAC C  
C      1  0.4953750000000  0.4628200000000  0.5584940000000 1.0
C      1  0.4702750000000  0.5228470000000  0.5584940000000 1.0
C      1  0.5348100000000  0.5145700000000  0.5584940000000 1.0
C      1  0.4953750000000  0.4628200000000  0.4427830000000 1.0
C      1  0.4702750000000  0.5228470000000  0.4427830000000 1.0
C      1  0.5348100000000  0.5145700000000  0.4427830000000 1.0
C      1  0.4705050000000  0.4189940000000  0.4719710000000 1.0
C      1  0.4447560000000  0.5662980000000  0.4719710000000 1.0
C      1  0.5851990000000  0.5149450000000  0.4719710000000 1.0
C      1  0.4705050000000  0.4189940000000  0.5293060000000 1.0
C      1  0.4447560000000  0.5662980000000  0.5293060000000 1.0
C      1  0.5851990000000  0.5149450000000  0.5293060000000 1.0
C      1  0.5552570000000  0.4144340000000  0.4708880000000 1.0
C      1  0.3984300000000  0.4951810000000  0.4708890000000 1.0
C      1  0.5467730000000  0.5906230000000  0.4708890000000 1.0
C      1  0.5552570000000  0.4144340000000  0.5303890000000 1.0
C      1  0.3984300000000  0.4951810000000  0.5303890000000 1.0
C      1  0.5467730000000  0.5906230000000  0.5303890000000 1.0
C      1  0.5685550000000  0.5078970000000  0.4041650000000 1.0
C      1  0.4727220000000  0.4369330000000  0.4041650000000 1.0
C      1  0.4591820000000  0.5554090000000  0.4041650000000 1.0
C      1  0.5685550000000  0.5078970000000  0.5971120000000 1.0
C      1  0.4727220000000  0.4369320000000  0.5971120000000 1.0
C      1  0.4591820000000  0.5554080000000  0.5971120000000 1.0
C      1  0.4514810000000  0.5076100000000  0.4002380000000 1.0
C      1  0.5310110000000  0.5384650000000  0.4002380000000 1.0
C      1  0.5179670000000  0.4541630000000  0.4002380000000 1.0
C      1  0.4514810000000  0.5076100000000  0.6010400000000 1.0
C      1  0.5310110000000  0.5384650000000  0.6010400000000 1.0
C      1  0.5179680000000  0.4541630000000  0.6010400000000 1.0
C      1  0.5201000000000  0.5849850000000  0.5740250000000 1.0
C      1  0.5637100000000  0.4403520000000  0.5740250000000 1.0
C      1  0.4166490000000  0.4749010000000  0.5740250000000 1.0
C      1  0.5201000000000  0.5849850000000  0.4272520000000 1.0
C      1  0.5637100000000  0.4403520000000  0.4272520000000 1.0
C      1  0.4166490000000  0.4749010000000  0.4272520000000 1.0
C      1  0.5862210000000  0.4885720000000  0.4865130000000 1.0
C      1  0.4471540000000  0.4312960000000  0.4865140000000 1.0
C      1  0.4670850000000  0.5803700000000  0.4865140000000 1.0
C      1  0.5862210000000  0.4885720000000  0.5147640000000 1.0
C      1  0.4471540000000  0.4312960000000  0.5147640000000 1.0
C      1  0.4670850000000  0.5803700000000  0.5147640000000 1.0
C      1  0.5874420000000  0.5116720000000  0.5578480000000 1.0
C      1  0.4665480000000  0.4186880000000  0.5578480000000 1.0
C      1  0.4464690000000  0.5698770000000  0.5578480000000 1.0
C      1  0.5874420000000  0.5116720000000  0.4434290000000 1.0
C      1  0.4665480000000  0.4186880000000  0.4434290000000 1.0
C      1  0.4464690000000  0.5698780000000  0.4434300000000 1.0
C      1  0.4247310000000  0.5474860000000  0.5150060000000 1.0
C      1  0.5789200000000  0.5416930000000  0.5150060000000 1.0
C      1  0.4968090000000  0.4110580000000  0.5150060000000 1.0
C      1  0.4247310000000  0.5474860000000  0.4862710000000 1.0
C      1  0.5789200000000  0.5416930000000  0.4862710000000 1.0
C      1  0.4968090000000  0.4110590000000  0.4862710000000 1.0
C      1  0.5334480000000  0.5465100000000  0.5187880000000 1.0
C      1  0.5237160000000  0.4480300000000  0.5187880000000 1.0
C      1  0.4432960000000  0.5056980000000  0.5187890000000 1.0
C      1  0.5334480000000  0.5465100000000  0.4824890000000 1.0
C      1  0.5237160000000  0.4480300000000  0.4824890000000 1.0
C      1  0.4432960000000  0.5056980000000  0.4824890000000 1.0
C      1  0.3952350000000  0.4863570000000  0.5581910000000 1.0
C      1  0.5407290000000  0.5978020000000  0.5581910000000 1.0
C      1  0.5644960000000  0.4160790000000  0.5581910000000 1.0
C      1  0.3952350000000  0.4863570000000  0.4430860000000 1.0
C      1  0.5407280000000  0.5978020000000  0.4430860000000 1.0
C      1  0.5644960000000  0.4160790000000  0.4430860000000 1.0
C      1  0.5175190000000  0.4058780000000  0.5608260000000 1.0
C      1  0.4098900000000  0.5321410000000  0.5608270000000 1.0
C      1  0.5730510000000  0.5622190000000  0.5608260000000 1.0
C      1  0.5175190000000  0.4058780000000  0.4404510000000 1.0
C      1  0.4098900000000  0.5321410000000  0.4404510000000 1.0
C      1  0.5730510000000  0.5622190000000  0.4404510000000 1.0
C      1  0.4895360000000  0.4168560000000  0.5775910000000 1.0
C      1  0.4333880000000  0.5508860000000  0.5775910000000 1.0
C      1  0.5775350000000  0.5324960000000  0.5775910000000 1.0
C      1  0.4895360000000  0.4168560000000  0.4236860000000 1.0
C      1  0.4333880000000  0.5508860000000  0.4236860000000 1.0
C      1  0.5775350000000  0.5324960000000  0.4236860000000 1.0
C      1  0.4436130000000  0.4660080000000  0.4383120000000 1.0
C      1  0.4989160000000  0.5660800000000  0.4383120000000 1.0
C      1  0.5579300000000  0.4681500000000  0.4383120000000 1.0
C      1  0.4436140000000  0.4660080000000  0.5629660000000 1.0
C      1  0.4989160000000  0.5660800000000  0.5629660000000 1.0
C      1  0.5579300000000  0.4681500000000  0.5629660000000 1.0
C      1  0.4826070000000  0.5407480000000  0.4859890000000 1.0
C      1  0.5441460000000  0.4949410000000  0.4859890000000 1.0
C      1  0.4737070000000  0.4645490000000  0.4859890000000 1.0
C      1  0.4826070000000  0.5407480000000  0.5152890000000 1.0
C      1  0.5441460000000  0.4949410000000  0.5152890000000 1.0
C      1  0.4737070000000  0.4645490000000  0.5152890000000 1.0
C      1  0.5670660000000  0.4378000000000  0.4863840000000 1.0
C      1  0.4127620000000  0.4732700000000  0.4863840000000 1.0
C      1  0.5206320000000  0.5891670000000  0.4863840000000 1.0
C      1  0.5670660000000  0.4378000000000  0.5148930000000 1.0
C      1  0.4127620000000  0.4732700000000  0.5148930000000 1.0
C      1  0.5206320000000  0.5891670000000  0.5148930000000 1.0
C      1  0.4863960000000  0.5484240000000  0.4136400000000 1.0
C      1  0.5488990000000  0.4878210000000  0.4136400000000 1.0
C      1  0.4651640000000  0.4639930000000  0.4136400000000 1.0
C      1  0.4863960000000  0.5484240000000  0.5876370000000 1.0
C      1  0.5489000000000  0.4878210000000  0.5876370000000 1.0
C      1  0.4651640000000  0.4639930000000  0.5876370000000 1.0
C      1  0.5423930000000  0.4703200000000  0.4702180000000 1.0
C      1  0.4532610000000  0.4783780000000  0.4702180000000 1.0
C      1  0.5048050000000  0.5515400000000  0.4702180000000 1.0
C      1  0.5423930000000  0.4703200000000  0.5310600000000 1.0
C      1  0.4532610000000  0.4783780000000  0.5310600000000 1.0
C      1  0.5048050000000  0.5515400000000  0.5310600000000 1.0
C      1  0.5276510000000  0.4365500000000  0.4484450000000 1.0
C      1  0.4313860000000  0.5080300000000  0.4484450000000 1.0
C      1  0.5414220000000  0.5556580000000  0.4484450000000 1.0
C      1  0.5276510000000  0.4365500000000  0.5528320000000 1.0
C      1  0.4313860000000  0.5080300000000  0.5528320000000 1.0
C      1  0.5414230000000  0.5556580000000  0.5528320000000 1.0
C      1  0.4472520000000  0.5209790000000  0.5763260000000 1.0
C      1  0.5447040000000  0.5354430000000  0.5763260000000 1.0
C      1  0.5085040000000  0.4438150000000  0.5763260000000 1.0
C      1  0.4472520000000  0.5209790000000  0.4249520000000 1.0
C      1  0.5447040000000  0.5354430000000  0.4249520000000 1.0
C      1  0.5085040000000  0.4438150000000  0.4249520000000 1.0
C      1  0.5219430000000  0.4019820000000  0.4714290000000 1.0
C      1  0.4043040000000  0.5302570000000  0.4714290000000 1.0
C      1  0.5742120000000  0.5679990000000  0.4714290000000 1.0
C      1  0.5219430000000  0.4019820000000  0.5298490000000 1.0
C      1  0.4043040000000  0.5302570000000  0.5298490000000 1.0
C      1  0.5742120000000  0.5679990000000  0.5298490000000 1.0
C      1  0.5239770000000  0.4817920000000  0.3985590000000 1.0
C      1  0.4724040000000  0.4885910000000  0.3985590000000 1.0
C      1  0.5040790000000  0.5298550000000  0.3985590000000 1.0
C      1  0.5239770000000  0.4817920000000  0.6027190000000 1.0
C      1  0.4724040000000  0.4885910000000  0.6027190000000 1.0
C      1  0.5040790000000  0.5298550000000  0.6027190000000 1.0
C      1  0.5372880000000  0.5178700000000  0.4708620000000 1.0
C      1  0.4969930000000  0.4590240000000  0.4708620000000 1.0
C      1  0.4661790000000  0.5233440000000  0.4708620000000 1.0
C      1  0.5372880000000  0.5178700000000  0.5304150000000 1.0
C      1  0.4969930000000  0.4590240000000  0.5304150000000 1.0
C      1  0.4661790000000  0.5233440000000  0.5304150000000 1.0
C      1  0.4924710000000  0.5915210000000  0.5279220000000 1.0
C      1  0.5831850000000  0.4610120000000  0.5279220000000 1.0
C      1  0.4248040000000  0.4477050000000  0.5279220000000 1.0
C      1  0.4924710000000  0.5915210000000  0.4733550000000 1.0
C      1  0.5831850000000  0.4610120000000  0.4733550000000 1.0
C      1  0.4248040000000  0.4477050000000  0.4733550000000 1.0
C      1  0.5845490000000  0.4836890000000  0.5649060000000 1.0
C      1  0.4437610000000  0.4351850000000  0.5649060000000 1.0
C      1  0.4721490000000  0.5813630000000  0.5649060000000 1.0
C      1  0.5845490000000  0.4836890000000  0.4363710000000 1.0
C      1  0.4437610000000  0.4351850000000  0.4363710000000 1.0
C      1  0.4721490000000  0.5813630000000  0.4363710000000 1.0
C      1  0.5001530000000  0.5000790000000  0.6037070000000 1.0
C      1  0.5001530000000  0.5000790000000  0.3975700000000 1.0
END
