TITL C-862127-1500-529 9.44216254613153 125000 -94.08818551153 0 0 19 (C1) n - 1
REM
REM in /home/nfs/bkarasulu/CARBON/AIRSS/Generating-Clusters/TERSOFF/Higher-Symm/FIRE-HFTN
REM
REM
REM
REM
REM
REM ./C.cell (b20cbc046b6831c77cfcea5457e17084)
REM AIRSS Version 0.9.1 bugfix July 2018 build 013d7b7c2542+ Fri, 06 Jul 2018 19:26:36 +0100
REM compiler GCC version 9.2.1 20190827 (Red Hat 9.2.1-1)
REM options -cpp -mtune=generic -march=x86-64 -g -O0 -fpre-include=/usr/include/finclude/math-vector-fortran.h
REM seed 1726681443 1208097342 396183475 1014247049 -2028607642 1904221661 206919762 1067180528 -1620055094 -1235059380 -849522258 -20134142 2104686931 -107779013 -2144764504 -1943698826 261903589 573535102 -1994699944 -2073708778 -1167240060 -1735621932 1493239121 1426817855 -1259511496 -1911583848 -1694285460 654357873 2073369922 1844410462 570152089 699096853 1133883146
REM
CELL 1.54180   50.00000   50.00000   50.00000   90.00000   90.00000   90.00000
LATT -1
SFAC C  
C      1  0.5168570000000  0.4613010000000  0.5377030000000 1.0
C      1  0.4828370000000  0.4719470000000  0.4582930000000 1.0
C      1  0.5136970000000  0.5388540000000  0.5378920000000 1.0
C      1  0.4907410000000  0.5219600000000  0.4567580000000 1.0
C      1  0.4898660000000  0.4542160000000  0.5283880000000 1.0
C      1  0.5111810000000  0.4775380000000  0.4568160000000 1.0
C      1  0.4856670000000  0.5443290000000  0.5309170000000 1.0
C      1  0.5191090000000  0.5275220000000  0.4575500000000 1.0
C      1  0.4690630000000  0.4734830000000  0.5209240000000 1.0
C      1  0.5291480000000  0.4779750000000  0.4795420000000 1.0
C      1  0.4665820000000  0.5243090000000  0.5215380000000 1.0
C      1  0.5369040000000  0.5192440000000  0.4787100000000 1.0
C      1  0.5363110000000  0.4767860000000  0.5223320000000 1.0
C      1  0.4654530000000  0.4805630000000  0.4796840000000 1.0
C      1  0.5334870000000  0.5269010000000  0.5198650000000 1.0
C      1  0.4732720000000  0.5218270000000  0.4798780000000 1.0
C      1  0.4741210000000  0.4999600000000  0.5033850000000 1.0
C      1  0.5287790000000  0.5000240000000  0.5026770000000 1.0
C      1  0.5015760000000  0.4997590000000  0.5168800000000 1.0
END
