TITL C-862131-2149-1317 -15.9016582156005 125000 -480.768585750159 0 0 87 (C1) n - 1
REM
REM in /home/nfs/bkarasulu/CARBON/AIRSS/Generating-Clusters/TERSOFF/Higher-Symm/FIRE-HFTN
REM
REM
REM
REM
REM
REM ./C.cell (b20cbc046b6831c77cfcea5457e17084)
REM AIRSS Version 0.9.1 bugfix July 2018 build 013d7b7c2542+ Fri, 06 Jul 2018 19:26:36 +0100
REM compiler GCC version 9.2.1 20190827 (Red Hat 9.2.1-1)
REM options -cpp -mtune=generic -march=x86-64 -g -O0 -fpre-include=/usr/include/finclude/math-vector-fortran.h
REM seed -1098408776 -1594654413 1642552571 -2005380664 -1812913050 731943354 -1340574257 -1295565455 483042796 919750168 -1728301836 -1111165119 1721260459 -1593072713 -1346695012 1650435209 -2093761163 764342942 922416663 767800289 485066073 1334077593 1829359811 -700340214 -15262133 -1201342335 808729242 -938409094 1276862163 1585405689 1846150959 -337277493 1057572787
REM
CELL 1.54180   50.00000   50.00000   50.00000   90.00000   90.00000   90.00000
LATT -1
SFAC C  
C      1  0.4584160000000  0.4330670000000  0.5163050000000 1.0
C      1  0.5676690000000  0.4562050000000  0.5176460000000 1.0
C      1  0.5408290000000  0.5670880000000  0.5175340000000 1.0
C      1  0.4350790000000  0.5410020000000  0.5161170000000 1.0
C      1  0.4586080000000  0.4333470000000  0.4841460000000 1.0
C      1  0.5664570000000  0.4580380000000  0.4844900000000 1.0
C      1  0.5407600000000  0.5663230000000  0.4859560000000 1.0
C      1  0.4359880000000  0.5408480000000  0.4842480000000 1.0
C      1  0.4415260000000  0.4907530000000  0.4849890000000 1.0
C      1  0.5088350000000  0.4380120000000  0.4843140000000 1.0
C      1  0.5703610000000  0.5056700000000  0.4929040000000 1.0
C      1  0.4918610000000  0.5631950000000  0.4849430000000 1.0
C      1  0.4444730000000  0.4927210000000  0.5156380000000 1.0
C      1  0.5068930000000  0.4420230000000  0.5154790000000 1.0
C      1  0.5568660000000  0.5003650000000  0.5171450000000 1.0
C      1  0.4933850000000  0.5565680000000  0.5157940000000 1.0
C      1  0.5091920000000  0.5171470000000  0.4696840000000 1.0
C      1  0.4845460000000  0.5352550000000  0.4736580000000 1.0
C      1  0.4699550000000  0.4793840000000  0.4725000000000 1.0
C      1  0.5190500000000  0.4662280000000  0.4729460000000 1.0
C      1  0.5231480000000  0.5112490000000  0.5248780000000 1.0
C      1  0.4879460000000  0.5217580000000  0.5262330000000 1.0
C      1  0.4781330000000  0.4864430000000  0.5273680000000 1.0
C      1  0.5130660000000  0.4760920000000  0.5264500000000 1.0
C      1  0.4846220000000  0.4299710000000  0.5317450000000 1.0
C      1  0.5703850000000  0.4825020000000  0.5367550000000 1.0
C      1  0.5148640000000  0.5687160000000  0.5329600000000 1.0
C      1  0.4317650000000  0.5148750000000  0.5315990000000 1.0
C      1  0.4849920000000  0.4287220000000  0.4689660000000 1.0
C      1  0.5672130000000  0.4864070000000  0.4716570000000 1.0
C      1  0.5156850000000  0.5729110000000  0.4699140000000 1.0
C      1  0.4322940000000  0.5143610000000  0.4693020000000 1.0
C      1  0.4395710000000  0.4502070000000  0.5311730000000 1.0
C      1  0.5492450000000  0.4378360000000  0.5317960000000 1.0
C      1  0.5610580000000  0.5505780000000  0.5307470000000 1.0
C      1  0.4518560000000  0.5596000000000  0.5313440000000 1.0
C      1  0.4374730000000  0.4482940000000  0.4692650000000 1.0
C      1  0.5522810000000  0.4363470000000  0.4693340000000 1.0
C      1  0.5567960000000  0.5454800000000  0.4730690000000 1.0
C      1  0.4501140000000  0.5626240000000  0.4694560000000 1.0
C      1  0.4910890000000  0.4641110000000  0.5778530000000 1.0
C      1  0.5352070000000  0.4909670000000  0.5790450000000 1.0
C      1  0.5101380000000  0.5336410000000  0.5770580000000 1.0
C      1  0.4650730000000  0.5080630000000  0.5782170000000 1.0
C      1  0.4895070000000  0.4629130000000  0.4246320000000 1.0
C      1  0.5336050000000  0.4879100000000  0.4287910000000 1.0
C      1  0.5086010000000  0.5327030000000  0.4224570000000 1.0
C      1  0.4652000000000  0.5096530000000  0.4257910000000 1.0
C      1  0.4707380000000  0.5446780000000  0.5490500000000 1.0
C      1  0.4542560000000  0.4694000000000  0.5491480000000 1.0
C      1  0.5299770000000  0.4532260000000  0.5490220000000 1.0
C      1  0.5470130000000  0.5285860000000  0.5465300000000 1.0
C      1  0.4695480000000  0.5524960000000  0.4473510000000 1.0
C      1  0.4485860000000  0.4672750000000  0.4474790000000 1.0
C      1  0.5325620000000  0.4461210000000  0.4472460000000 1.0
C      1  0.5408220000000  0.5279100000000  0.4557630000000 1.0
C      1  0.5783630000000  0.5328430000000  0.4882320000000 1.0
C      1  0.4656560000000  0.5823460000000  0.4857290000000 1.0
C      1  0.4197930000000  0.4659290000000  0.4853100000000 1.0
C      1  0.5348770000000  0.4178700000000  0.4852210000000 1.0
C      1  0.5839480000000  0.5450630000000  0.5139970000000 1.0
C      1  0.4682010000000  0.5782350000000  0.5161720000000 1.0
C      1  0.4233160000000  0.4684470000000  0.5155450000000 1.0
C      1  0.5316310000000  0.4215460000000  0.5154900000000 1.0
C      1  0.4614020000000  0.4576940000000  0.4236910000000 1.0
C      1  0.5413260000000  0.4608160000000  0.4239710000000 1.0
C      1  0.5367520000000  0.5367840000000  0.4282030000000 1.0
C      1  0.4607740000000  0.5376170000000  0.4245840000000 1.0
C      1  0.4632180000000  0.4595220000000  0.5748420000000 1.0
C      1  0.5396870000000  0.4631200000000  0.5744090000000 1.0
C      1  0.5378790000000  0.5372110000000  0.5731680000000 1.0
C      1  0.4607130000000  0.5358480000000  0.5746720000000 1.0
C      1  0.5494060000000  0.5002820000000  0.4505560000000 1.0
C      1  0.4995700000000  0.5584140000000  0.4420510000000 1.0
C      1  0.4450690000000  0.4975170000000  0.4437120000000 1.0
C      1  0.5018820000000  0.4422240000000  0.4431100000000 1.0
C      1  0.5559920000000  0.5020440000000  0.5590700000000 1.0
C      1  0.4981190000000  0.5535910000000  0.5573990000000 1.0
C      1  0.4453180000000  0.4969830000000  0.5573820000000 1.0
C      1  0.5023830000000  0.4443990000000  0.5571440000000 1.0
C      1  0.5302760000000  0.4730750000000  0.4995780000000 1.0
C      1  0.5276410000000  0.5223000000000  0.4952410000000 1.0
C      1  0.4717970000000  0.5240760000000  0.4984060000000 1.0
C      1  0.4752160000000  0.4682760000000  0.5007620000000 1.0
C      1  0.5000130000000  0.4990750000000  0.5794820000000 1.0
C      1  0.4991980000000  0.4977350000000  0.4241530000000 1.0
C      1  0.4996770000000  0.4878330000000  0.4657600000000 1.0
END
