TITL C-862133-5440-478 0.000275836871314452 125000 -437.762611717341 0 0 86 (C3) n - 1
REM
REM in /home/nfs/bkarasulu/CARBON/AIRSS/Generating-Clusters/TERSOFF/Higher-Symm/FIRE-HFTN
REM
REM
REM
REM
REM
REM ./C.cell (b20cbc046b6831c77cfcea5457e17084)
REM AIRSS Version 0.9.1 bugfix July 2018 build 013d7b7c2542+ Fri, 06 Jul 2018 19:26:36 +0100
REM compiler GCC version 9.2.1 20190827 (Red Hat 9.2.1-1)
REM options -cpp -mtune=generic -march=x86-64 -g -O0 -fpre-include=/usr/include/finclude/math-vector-fortran.h
REM seed -391784697 -597296011 1292699894 -335318198 -67044893 194292308 1557428990 -300986001 -1342363995 358039100 -1385544869 -1418357999 -1387884708 -1850721936 1190243808 1900347284 -1827709177 -187141410 -1183847855 -1301879287 -95354446 -1622698669 919793701 1767698930 -659902046 -1004170941 -1827564041 1504026909 1719747247 30247009 305977410 -1228312347 -819368953
REM
CELL 1.54180   50.00000   50.00000   50.00000   90.00000   90.00000   90.00000
LATT -1
SFAC C  
C      1  0.5131340000000  0.4775880000000  0.5346250000000 1.0
C      1  0.5236390000000  0.4775880000000  0.4709000000000 1.0
C      1  0.4631990000000  0.4775880000000  0.4936650000000 1.0
C      1  0.5393970000000  0.4517500000000  0.5543370000000 1.0
C      1  0.5275780000000  0.4517500000000  0.4383000000000 1.0
C      1  0.4329960000000  0.4517500000000  0.5065540000000 1.0
C      1  0.5417940000000  0.5232880000000  0.5089680000000 1.0
C      1  0.4870890000000  0.5232880000000  0.4589080000000 1.0
C      1  0.4710880000000  0.5232880000000  0.5313140000000 1.0
C      1  0.4673110000000  0.4529710000000  0.5196410000000 1.0
C      1  0.5335740000000  0.4529710000000  0.5180760000000 1.0
C      1  0.4990870000000  0.4529710000000  0.4614730000000 1.0
C      1  0.5277260000000  0.4972860000000  0.4462970000000 1.0
C      1  0.4398480000000  0.4972860000000  0.5024270000000 1.0
C      1  0.5323970000000  0.4972860000000  0.5504660000000 1.0
C      1  0.5341000000000  0.4795390000000  0.4985380000000 1.0
C      1  0.4819030000000  0.4795390000000  0.4707870000000 1.0
C      1  0.4839690000000  0.4795390000000  0.5298650000000 1.0
C      1  0.5436100000000  0.5317070000000  0.5805150000000 1.0
C      1  0.5481420000000  0.5317070000000  0.4215620000000 1.0
C      1  0.4082190000000  0.5317070000000  0.4971130000000 1.0
C      1  0.4592900000000  0.5158770000000  0.4519910000000 1.0
C      1  0.4789980000000  0.5158770000000  0.5588470000000 1.0
C      1  0.5616840000000  0.5158770000000  0.4883510000000 1.0
C      1  0.5732630000000  0.4849230000000  0.4851010000000 1.0
C      1  0.4506850000000  0.4849230000000  0.4435880000000 1.0
C      1  0.4760230000000  0.4849230000000  0.5705000000000 1.0
C      1  0.5725110000000  0.4863700000000  0.5213850000000 1.0
C      1  0.4824840000000  0.4863700000000  0.4260980000000 1.0
C      1  0.4449760000000  0.4863700000000  0.5517070000000 1.0
C      1  0.5167920000000  0.5244510000000  0.5426840000000 1.0
C      1  0.5287890000000  0.5244510000000  0.4637030000000 1.0
C      1  0.4543910000000  0.5244510000000  0.4928030000000 1.0
C      1  0.5301660000000  0.5568960000000  0.5022400000000 1.0
C      1  0.4870760000000  0.5568960000000  0.4723420000000 1.0
C      1  0.4827290000000  0.5568960000000  0.5246080000000 1.0
C      1  0.5691030000000  0.4927710000000  0.4516590000000 1.0
C      1  0.4238040000000  0.4927710000000  0.4639120000000 1.0
C      1  0.5070650000000  0.4927710000000  0.5836180000000 1.0
C      1  0.4212010000000  0.5300960000000  0.5265430000000 1.0
C      1  0.5626060000000  0.5300960000000  0.5545580000000 1.0
C      1  0.5161650000000  0.5300960000000  0.4180900000000 1.0
C      1  0.5134910000000  0.5223080000000  0.5844600000000 1.0
C      1  0.5666180000000  0.5223080000000  0.4456730000000 1.0
C      1  0.4198620000000  0.5223080000000  0.4690570000000 1.0
C      1  0.5183720000000  0.5702400000000  0.4755080000000 1.0
C      1  0.4698230000000  0.5702400000000  0.4959220000000 1.0
C      1  0.5117770000000  0.5702400000000  0.5277600000000 1.0
C      1  0.4566720000000  0.4416090000000  0.5498790000000 1.0
C      1  0.5650800000000  0.4416080000000  0.5121700000000 1.0
C      1  0.4782190000000  0.4416080000000  0.4371410000000 1.0
C      1  0.5480920000000  0.4767760000000  0.4337370000000 1.0
C      1  0.4187880000000  0.4767760000000  0.4910690000000 1.0
C      1  0.5330910000000  0.4767760000000  0.5743840000000 1.0
C      1  0.5414290000000  0.4396750000000  0.4679810000000 1.0
C      1  0.4517760000000  0.4396750000000  0.4797170000000 1.0
C      1  0.5067660000000  0.4396750000000  0.5514910000000 1.0
C      1  0.5266860000000  0.4328810000000  0.4956220000000 1.0
C      1  0.4830850000000  0.4328810000000  0.4786650000000 1.0
C      1  0.4902000000000  0.4328810000000  0.5249030000000 1.0
C      1  0.4325140000000  0.4594380000000  0.5419770000000 1.0
C      1  0.5703160000000  0.4594380000000  0.5370430000000 1.0
C      1  0.4971420000000  0.4594380000000  0.4201700000000 1.0
C      1  0.4423580000000  0.5084900000000  0.5311130000000 1.0
C      1  0.5559850000000  0.5084900000000  0.5339490000000 1.0
C      1  0.5016280000000  0.5084900000000  0.4341270000000 1.0
C      1  0.5020800000000  0.5551880000000  0.4301220000000 1.0
C      1  0.4386640000000  0.5551880000000  0.5327250000000 1.0
C      1  0.5592280000000  0.5551880000000  0.5363430000000 1.0
C      1  0.4807090000000  0.4530980000000  0.5650450000000 1.0
C      1  0.5661960000000  0.4530980000000  0.4837710000000 1.0
C      1  0.4530670000000  0.4530980000000  0.4503740000000 1.0
C      1  0.5162700000000  0.5048360000000  0.5124620000000 1.0
C      1  0.5028760000000  0.5048360000000  0.4792650000000 1.0
C      1  0.4808240000000  0.5048360000000  0.5074630000000 1.0
C      1  0.5727530000000  0.5398810000000  0.4724550000000 1.0
C      1  0.4399880000000  0.5398810000000  0.4503540000000 1.0
C      1  0.4872300000000  0.5398810000000  0.5763820000000 1.0
C      1  0.5634660000000  0.5584970000000  0.5018910000000 1.0
C      1  0.4701240000000  0.5584970000000  0.4436780000000 1.0
C      1  0.4663810000000  0.5584970000000  0.5536210000000 1.0
C      1  0.4474790000000  0.5521250000000  0.5023500000000 1.0
C      1  0.5285150000000  0.5521250000000  0.5438960000000 1.0
C      1  0.5239770000000  0.5521250000000  0.4529440000000 1.0
C      1  0.4999900000000  0.4224400000000  0.4997300000000 1.0
C      1  0.4999900000000  0.5413370000000  0.4997300000000 1.0
END
