TITL C-862127-1500-1174 -1.29761023815667e-06 125000 -462.867820187317 0 0 92 (Th) n - 1
REM
REM in /home/nfs/bkarasulu/CARBON/AIRSS/Generating-Clusters/TERSOFF/Higher-Symm/FIRE-HFTN
REM
REM
REM
REM
REM
REM ./C.cell (b20cbc046b6831c77cfcea5457e17084)
REM AIRSS Version 0.9.1 bugfix July 2018 build 013d7b7c2542+ Fri, 06 Jul 2018 19:26:36 +0100
REM compiler GCC version 9.2.1 20190827 (Red Hat 9.2.1-1)
REM options -cpp -mtune=generic -march=x86-64 -g -O0 -fpre-include=/usr/include/finclude/math-vector-fortran.h
REM seed 1384246976 -1241712089 -1766883277 -876712091 1400429873 1073077786 -1407640602 -1447637355 10306083 -117455610 110409812 -1988907350 461027773 -1407677180 628628819 575086255 -1451651410 -1246477201 1902239567 1689626635 -1218899029 1088838915 -1169550645 125920960 -69668634 -354100928 -1524794158 -1014567445 -792818994 -1937544461 1882730293 2059268277 208669327
REM
CELL 1.54180   50.00000   50.00000   50.00000   90.00000   90.00000   90.00000
LATT -1
SFAC C  
C      1  0.5539220000000  0.4757690000000  0.5623140000000 1.0
C      1  0.5622020000000  0.5538700000000  0.4759330000000 1.0
C      1  0.4758210000000  0.5621500000000  0.5540330000000 1.0
C      1  0.5539220000000  0.5240080000000  0.4377900000000 1.0
C      1  0.4459590000000  0.5240080000000  0.5623140000000 1.0
C      1  0.4459590000000  0.4757690000000  0.4377900000000 1.0
C      1  0.5622020000000  0.4459070000000  0.5241710000000 1.0
C      1  0.4376790000000  0.4459070000000  0.4759330000000 1.0
C      1  0.4376790000000  0.5538700000000  0.5241710000000 1.0
C      1  0.4758210000000  0.4376270000000  0.4460700000000 1.0
C      1  0.5240600000000  0.4376270000000  0.5540330000000 1.0
C      1  0.5240600000000  0.5621500000000  0.4460700000000 1.0
C      1  0.4459590000000  0.4757690000000  0.5623140000000 1.0
C      1  0.4376790000000  0.5538700000000  0.4759330000000 1.0
C      1  0.5240600000000  0.5621500000000  0.5540330000000 1.0
C      1  0.4459590000000  0.5240080000000  0.4377900000000 1.0
C      1  0.5539220000000  0.5240080000000  0.5623140000000 1.0
C      1  0.5539220000000  0.4757690000000  0.4377900000000 1.0
C      1  0.4376790000000  0.4459070000000  0.5241710000000 1.0
C      1  0.5622020000000  0.4459070000000  0.4759330000000 1.0
C      1  0.5622020000000  0.5538700000000  0.5241710000000 1.0
C      1  0.5240600000000  0.4376270000000  0.4460700000000 1.0
C      1  0.4758210000000  0.4376270000000  0.5540330000000 1.0
C      1  0.4758210000000  0.5621500000000  0.4460700000000 1.0
C      1  0.4839740000000  0.4835970000000  0.4592480000000 1.0
C      1  0.4591370000000  0.4839220000000  0.4837600000000 1.0
C      1  0.4836490000000  0.4590850000000  0.4840850000000 1.0
C      1  0.4839740000000  0.5161800000000  0.5408550000000 1.0
C      1  0.5159070000000  0.5161800000000  0.4592480000000 1.0
C      1  0.5159070000000  0.4835970000000  0.5408550000000 1.0
C      1  0.4591370000000  0.5158550000000  0.5163440000000 1.0
C      1  0.5407440000000  0.5158550000000  0.4837600000000 1.0
C      1  0.5407440000000  0.4839220000000  0.5163440000000 1.0
C      1  0.4836490000000  0.5406920000000  0.5160190000000 1.0
C      1  0.5162320000000  0.5406920000000  0.4840850000000 1.0
C      1  0.5162320000000  0.4590850000000  0.5160190000000 1.0
C      1  0.5159070000000  0.4835970000000  0.4592480000000 1.0
C      1  0.5407440000000  0.4839220000000  0.4837600000000 1.0
C      1  0.5162320000000  0.4590850000000  0.4840850000000 1.0
C      1  0.5159070000000  0.5161800000000  0.5408550000000 1.0
C      1  0.4839740000000  0.5161800000000  0.4592480000000 1.0
C      1  0.4839740000000  0.4835970000000  0.5408550000000 1.0
C      1  0.5407440000000  0.5158550000000  0.5163440000000 1.0
C      1  0.4591370000000  0.5158550000000  0.4837600000000 1.0
C      1  0.4591370000000  0.4839220000000  0.5163440000000 1.0
C      1  0.5162320000000  0.5406920000000  0.5160190000000 1.0
C      1  0.4836490000000  0.5406920000000  0.4840850000000 1.0
C      1  0.4836490000000  0.4590850000000  0.5160190000000 1.0
C      1  0.5167820000000  0.4280390000000  0.5253460000000 1.0
C      1  0.5252340000000  0.5167300000000  0.4282030000000 1.0
C      1  0.4280910000000  0.5251820000000  0.5168940000000 1.0
C      1  0.5167820000000  0.5717380000000  0.4747580000000 1.0
C      1  0.4830990000000  0.5717380000000  0.5253460000000 1.0
C      1  0.4830990000000  0.4280390000000  0.4747580000000 1.0
C      1  0.5252340000000  0.4830470000000  0.5719010000000 1.0
C      1  0.4746470000000  0.4830470000000  0.4282030000000 1.0
C      1  0.4746470000000  0.5167300000000  0.5719010000000 1.0
C      1  0.4280910000000  0.4745950000000  0.4832100000000 1.0
C      1  0.5717900000000  0.4745950000000  0.5168940000000 1.0
C      1  0.5717900000000  0.5251820000000  0.4832100000000 1.0
C      1  0.4830990000000  0.4280390000000  0.5253460000000 1.0
C      1  0.4746470000000  0.5167300000000  0.4282030000000 1.0
C      1  0.5717900000000  0.5251820000000  0.5168940000000 1.0
C      1  0.4830990000000  0.5717380000000  0.4747580000000 1.0
C      1  0.5167820000000  0.5717380000000  0.5253460000000 1.0
C      1  0.5167820000000  0.4280390000000  0.4747580000000 1.0
C      1  0.4746470000000  0.4830470000000  0.5719010000000 1.0
C      1  0.5252340000000  0.4830470000000  0.4282030000000 1.0
C      1  0.5252340000000  0.5167300000000  0.5719010000000 1.0
C      1  0.5717900000000  0.4745950000000  0.4832100000000 1.0
C      1  0.4280910000000  0.4745950000000  0.5168940000000 1.0
C      1  0.4280910000000  0.5251820000000  0.4832100000000 1.0
C      1  0.4571410000000  0.5706560000000  0.5000520000000 1.0
C      1  0.4999400000000  0.4570890000000  0.5708190000000 1.0
C      1  0.5427390000000  0.4291210000000  0.5000520000000 1.0
C      1  0.4999400000000  0.5426880000000  0.4292850000000 1.0
C      1  0.4999400000000  0.5426880000000  0.5708190000000 1.0
C      1  0.4999400000000  0.4570890000000  0.4292850000000 1.0
C      1  0.5707080000000  0.4998880000000  0.4572530000000 1.0
C      1  0.5707080000000  0.4998880000000  0.5428510000000 1.0
C      1  0.4291730000000  0.4998880000000  0.4572530000000 1.0
C      1  0.4291730000000  0.4998880000000  0.5428510000000 1.0
C      1  0.4571410000000  0.4291210000000  0.5000520000000 1.0
C      1  0.5427390000000  0.5706560000000  0.5000520000000 1.0
C      1  0.5516520000000  0.4481760000000  0.4483400000000 1.0
C      1  0.4482280000000  0.5516010000000  0.4483400000000 1.0
C      1  0.4482280000000  0.5516010000000  0.5517640000000 1.0
C      1  0.5516520000000  0.4481760000000  0.5517640000000 1.0
C      1  0.5516520000000  0.5516010000000  0.5517640000000 1.0
C      1  0.4482280000000  0.4481760000000  0.5517640000000 1.0
C      1  0.4482280000000  0.4481760000000  0.4483400000000 1.0
C      1  0.5516520000000  0.5516010000000  0.4483400000000 1.0
END
