TITL C-862506-1665-495 0.000556036981028762 125000 -183.186799009418 0 0 40 (C3h) n - 1
REM
REM in /home/nfs/bkarasulu/CARBON/AIRSS/Generating-Clusters/TERSOFF/Higher-Symm/FIRE-HFTN
REM
REM
REM
REM
REM
REM ./C.cell (b20cbc046b6831c77cfcea5457e17084)
REM AIRSS Version 0.9.1 bugfix July 2018 build 013d7b7c2542+ Fri, 06 Jul 2018 19:26:36 +0100
REM compiler GCC version 9.2.1 20190827 (Red Hat 9.2.1-1)
REM options -cpp -mtune=generic -march=x86-64 -g -O0 -fpre-include=/usr/include/finclude/math-vector-fortran.h
REM seed 1947078922 226222536 -1583835303 -1929238888 -1529740278 522258105 1100953433 1495164556 -1787258310 -612825835 -1224302249 -1352514531 85813253 -773073299 975562319 1147212605 -1387082713 38313321 1259978764 318220136 391453763 1951653275 51764445 -66523423 -1953787371 1385615194 1995783243 -1344706910 1896231343 902921284 -1246048594 774799339 125252744
REM
CELL 1.54180   50.00000   50.00000   50.00000   90.00000   90.00000   90.00000
LATT -1
SFAC C  
C      1  0.5166910000000  0.5051020000000  0.4487340000000 1.0
C      1  0.5166910000000  0.4517020000000  0.5204400000000 1.0
C      1  0.5166910000000  0.5405010000000  0.5308320000000 1.0
C      1  0.4830780000000  0.5051020000000  0.4487340000000 1.0
C      1  0.4830780000000  0.4517020000000  0.5204400000000 1.0
C      1  0.4830780000000  0.5405010000000  0.5308320000000 1.0
C      1  0.4634790000000  0.5161190000000  0.5121620000000 1.0
C      1  0.4634790000000  0.5011240000000  0.4791850000000 1.0
C      1  0.4634790000000  0.4800620000000  0.5086590000000 1.0
C      1  0.5362910000000  0.5161190000000  0.5121620000000 1.0
C      1  0.5362910000000  0.5011240000000  0.4791850000000 1.0
C      1  0.5362910000000  0.4800620000000  0.5086590000000 1.0
C      1  0.4781740000000  0.4652160000000  0.4631890000000 1.0
C      1  0.4781740000000  0.4841640000000  0.5477540000000 1.0
C      1  0.4781740000000  0.5479250000000  0.4890620000000 1.0
C      1  0.5215960000000  0.4652160000000  0.4631890000000 1.0
C      1  0.5215960000000  0.4841640000000  0.5477540000000 1.0
C      1  0.5215960000000  0.5479250000000  0.4890620000000 1.0
C      1  0.4569220000000  0.4478010000000  0.4715270000000 1.0
C      1  0.4569220000000  0.5000920000000  0.5586670000000 1.0
C      1  0.4569220000000  0.5494120000000  0.4698120000000 1.0
C      1  0.5428480000000  0.4478010000000  0.4715270000000 1.0
C      1  0.5428480000000  0.5000920000000  0.5586670000000 1.0
C      1  0.5428480000000  0.5494120000000  0.4698120000000 1.0
C      1  0.4829310000000  0.5674750000000  0.5122050000000 1.0
C      1  0.4829310000000  0.4754830000000  0.4346870000000 1.0
C      1  0.4829310000000  0.4543470000000  0.5531130000000 1.0
C      1  0.5168390000000  0.5674750000000  0.5122050000000 1.0
C      1  0.5168390000000  0.4754830000000  0.4346870000000 1.0
C      1  0.5168390000000  0.4543470000000  0.5531130000000 1.0
C      1  0.5465760000000  0.5242600000000  0.4552840000000 1.0
C      1  0.5465760000000  0.4477950000000  0.5005730000000 1.0
C      1  0.5465760000000  0.5252490000000  0.5441490000000 1.0
C      1  0.4531940000000  0.5242600000000  0.4552840000000 1.0
C      1  0.4531940000000  0.4477950000000  0.5005730000000 1.0
C      1  0.4531940000000  0.5252490000000  0.5441490000000 1.0
C      1  0.4998850000000  0.4732770000000  0.4827170000000 1.0
C      1  0.4998850000000  0.5269830000000  0.4862800000000 1.0
C      1  0.4998850000000  0.4970450000000  0.5310090000000 1.0
C      1  0.4998850000000  0.4991020000000  0.5000020000000 1.0
END
