TITL C-862502-1143-35 394160.205525784 125000 -1031.61609594678 0 0 173 (C1) n - 1
REM
REM in /home/nfs/bkarasulu/CARBON/AIRSS/Generating-Clusters/TERSOFF/Higher-Symm/FIRE-HFTN
REM
REM
REM
REM
REM
REM ./C.cell (b20cbc046b6831c77cfcea5457e17084)
REM AIRSS Version 0.9.1 bugfix July 2018 build 013d7b7c2542+ Fri, 06 Jul 2018 19:26:36 +0100
REM compiler GCC version 9.2.1 20190827 (Red Hat 9.2.1-1)
REM options -cpp -mtune=generic -march=x86-64 -g -O0 -fpre-include=/usr/include/finclude/math-vector-fortran.h
REM seed 48626291 -807209461 1028973164 717617244 136182203 -190246963 1748718102 577372918 207962654 458400756 -456498392 -1131794192 -607937450 1231161130 791501055 -1993014885 -1881584255 145135888 685327100 1273537547 495004860 317024024 -258281598 -1484089756 1940330646 -1727902320 1662759806 1259934029 1919706802 799767045 586745404 1316708495 -448966577
REM
CELL 1.54180   50.00000   50.00000   50.00000   90.00000   90.00000   90.00000
LATT -1
SFAC C  
C      1  0.6015060000000  0.4694340000000  0.5491780000000 1.0
C      1  0.5345040000000  0.4564030000000  0.4041470000000 1.0
C      1  0.4346100000000  0.4781640000000  0.5962220000000 1.0
C      1  0.5138930000000  0.5321130000000  0.5012670000000 1.0
C      1  0.5279670000000  0.4903230000000  0.4656900000000 1.0
C      1  0.4979200000000  0.4500020000000  0.5879490000000 1.0
C      1  0.4463340000000  0.5570910000000  0.4939010000000 1.0
C      1  0.4256670000000  0.3896530000000  0.4736920000000 1.0
C      1  0.5037160000000  0.4805920000000  0.5853000000000 1.0
C      1  0.5486470000000  0.4209370000000  0.4260150000000 1.0
C      1  0.5320160000000  0.4896600000000  0.5913270000000 1.0
C      1  0.5135590000000  0.4430970000000  0.4591250000000 1.0
C      1  0.4257960000000  0.5584270000000  0.4705280000000 1.0
C      1  0.5800560000000  0.4514870000000  0.4880960000000 1.0
C      1  0.5316960000000  0.4003050000000  0.4809030000000 1.0
C      1  0.6216840000000  0.5695640000000  0.5099450000000 1.0
C      1  0.6173740000000  0.5549420000000  0.4524430000000 1.0
C      1  0.4053620000000  0.5793080000000  0.4740980000000 1.0
C      1  0.5656650000000  0.5244760000000  0.4591050000000 1.0
C      1  0.4890400000000  0.4824710000000  0.3956940000000 1.0
C      1  0.5545850000000  0.5819760000000  0.5676920000000 1.0
C      1  0.5134770000000  0.4945570000000  0.4061600000000 1.0
C      1  0.3969240000000  0.5036370000000  0.4342660000000 1.0
C      1  0.4690910000000  0.4285500000000  0.5081070000000 1.0
C      1  0.4142710000000  0.4023200000000  0.5404620000000 1.0
C      1  0.4827760000000  0.5160200000000  0.5535210000000 1.0
C      1  0.4916700000000  0.5785020000000  0.5581670000000 1.0
C      1  0.5262130000000  0.4779040000000  0.5139380000000 1.0
C      1  0.4983480000000  0.3891540000000  0.5183060000000 1.0
C      1  0.5334900000000  0.4005920000000  0.5541570000000 1.0
C      1  0.5939850000000  0.6031110000000  0.4178310000000 1.0
C      1  0.5255080000000  0.3868590000000  0.5299960000000 1.0
C      1  0.4068120000000  0.5224620000000  0.4925450000000 1.0
C      1  0.4795570000000  0.4097830000000  0.5273810000000 1.0
C      1  0.4318570000000  0.5389900000000  0.5434870000000 1.0
C      1  0.5334580000000  0.5786680000000  0.5309850000000 1.0
C      1  0.5477850000000  0.4261750000000  0.5545530000000 1.0
C      1  0.4533120000000  0.6018540000000  0.4654580000000 1.0
C      1  0.5763780000000  0.5298210000000  0.4322220000000 1.0
C      1  0.4110840000000  0.4292240000000  0.5297610000000 1.0
C      1  0.5291600000000  0.5635060000000  0.4276430000000 1.0
C      1  0.4055560000000  0.5971580000000  0.4976560000000 1.0
C      1  0.5014080000000  0.3879120000000  0.4885870000000 1.0
C      1  0.5226870000000  0.4365890000000  0.5963830000000 1.0
C      1  0.5732460000000  0.4948220000000  0.5137070000000 1.0
C      1  0.6030560000000  0.5420480000000  0.4301720000000 1.0
C      1  0.5775680000000  0.5907280000000  0.4988710000000 1.0
C      1  0.4097930000000  0.4790610000000  0.5346890000000 1.0
C      1  0.5403520000000  0.5720990000000  0.4773130000000 1.0
C      1  0.4111280000000  0.4340760000000  0.4984990000000 1.0
C      1  0.5194870000000  0.3972150000000  0.4515170000000 1.0
C      1  0.4552460000000  0.5040230000000  0.4855080000000 1.0
C      1  0.4835970000000  0.5394960000000  0.6002530000000 1.0
C      1  0.4613760000000  0.4883820000000  0.4419780000000 1.0
C      1  0.4902490000000  0.5175460000000  0.5043500000000 1.0
C      1  0.3891820000000  0.5336210000000  0.5144210000000 1.0
C      1  0.4478730000000  0.4337930000000  0.5886680000000 1.0
C      1  0.6008030000000  0.5323470000000  0.5682180000000 1.0
C      1  0.5100140000000  0.5346260000000  0.3899570000000 1.0
C      1  0.5452140000000  0.6051430000000  0.5339360000000 1.0
C      1  0.4659770000000  0.3901690000000  0.4454200000000 1.0
C      1  0.4969140000000  0.5181460000000  0.6150790000000 1.0
C      1  0.4813520000000  0.6178850000000  0.5225430000000 1.0
C      1  0.4846140000000  0.4462530000000  0.4636680000000 1.0
C      1  0.5039750000000  0.6055840000000  0.4748320000000 1.0
C      1  0.5133960000000  0.5143820000000  0.4274330000000 1.0
C      1  0.5609800000000  0.5661540000000  0.4979380000000 1.0
C      1  0.6339190000000  0.5396030000000  0.4707280000000 1.0
C      1  0.6369740000000  0.5475700000000  0.4982940000000 1.0
C      1  0.4364730000000  0.5267200000000  0.4958700000000 1.0
C      1  0.4710200000000  0.5353340000000  0.5741060000000 1.0
C      1  0.5364270000000  0.5289450000000  0.5182950000000 1.0
C      1  0.4464470000000  0.5264340000000  0.5230830000000 1.0
C      1  0.5102420000000  0.4388450000000  0.4059170000000 1.0
C      1  0.4926800000000  0.4429850000000  0.5594730000000 1.0
C      1  0.5569120000000  0.4983100000000  0.4690590000000 1.0
C      1  0.6081370000000  0.6042390000000  0.4430580000000 1.0
C      1  0.5340990000000  0.4487800000000  0.5097570000000 1.0
C      1  0.4174840000000  0.4539500000000  0.5492250000000 1.0
C      1  0.6053530000000  0.5861750000000  0.4910020000000 1.0
C      1  0.3934570000000  0.5009820000000  0.5471000000000 1.0
C      1  0.4319340000000  0.6032280000000  0.5136850000000 1.0
C      1  0.4731280000000  0.5195140000000  0.5269220000000 1.0
C      1  0.5943130000000  0.4953590000000  0.5331470000000 1.0
C      1  0.6017030000000  0.4439010000000  0.5364550000000 1.0
C      1  0.5678660000000  0.5632850000000  0.5494840000000 1.0
C      1  0.4245910000000  0.5417680000000  0.4233560000000 1.0
C      1  0.5583850000000  0.5289040000000  0.4086010000000 1.0
C      1  0.4373880000000  0.4473800000000  0.4880070000000 1.0
C      1  0.4360870000000  0.3889180000000  0.4452420000000 1.0
C      1  0.4893350000000  0.4668010000000  0.5404410000000 1.0
C      1  0.5336930000000  0.5546510000000  0.4553020000000 1.0
C      1  0.4681640000000  0.5393310000000  0.4495940000000 1.0
C      1  0.4910450000000  0.5853340000000  0.4572740000000 1.0
C      1  0.5334440000000  0.6007860000000  0.4774160000000 1.0
C      1  0.6103970000000  0.5821700000000  0.4617840000000 1.0
C      1  0.4731620000000  0.5089850000000  0.4597160000000 1.0
C      1  0.5187060000000  0.5898250000000  0.4216540000000 1.0
C      1  0.5884760000000  0.5076410000000  0.5605590000000 1.0
C      1  0.4918720000000  0.5948410000000  0.4127580000000 1.0
C      1  0.4488390000000  0.5540680000000  0.5634300000000 1.0
C      1  0.4482530000000  0.5904750000000  0.4382130000000 1.0
C      1  0.4168520000000  0.4616210000000  0.4438520000000 1.0
C      1  0.4344850000000  0.3947110000000  0.5597970000000 1.0
C      1  0.5432900000000  0.5619980000000  0.6123050000000 1.0
C      1  0.4053380000000  0.4083260000000  0.4832290000000 1.0
C      1  0.5723240000000  0.4330310000000  0.4657010000000 1.0
C      1  0.4948240000000  0.4896130000000  0.5585870000000 1.0
C      1  0.4677620000000  0.5033690000000  0.3978300000000 1.0
C      1  0.4348530000000  0.4649780000000  0.4193360000000 1.0
C      1  0.4512690000000  0.3861780000000  0.4880680000000 1.0
C      1  0.5957120000000  0.5564590000000  0.5533600000000 1.0
C      1  0.4765060000000  0.3965340000000  0.4736890000000 1.0
C      1  0.4788080000000  0.4181470000000  0.5542160000000 1.0
C      1  0.4859320000000  0.4922670000000  0.6054900000000 1.0
C      1  0.5345730000000  0.5745120000000  0.5875340000000 1.0
C      1  0.5723140000000  0.3839750000000  0.5106540000000 1.0
C      1  0.4550100000000  0.4126400000000  0.5700610000000 1.0
C      1  0.5681050000000  0.4411280000000  0.4374000000000 1.0
C      1  0.4818450000000  0.5311740000000  0.4005840000000 1.0
C      1  0.5897260000000  0.4070660000000  0.5079730000000 1.0
C      1  0.3617990000000  0.5217620000000  0.5177530000000 1.0
C      1  0.4610860000000  0.4762130000000  0.6116910000000 1.0
C      1  0.4692290000000  0.5785490000000  0.4202710000000 1.0
C      1  0.5458950000000  0.5007140000000  0.5206460000000 1.0
C      1  0.5287430000000  0.4662520000000  0.4508790000000 1.0
C      1  0.4604940000000  0.4464460000000  0.4180370000000 1.0
C      1  0.4032950000000  0.5315330000000  0.5427820000000 1.0
C      1  0.5276640000000  0.5134120000000  0.6106330000000 1.0
C      1  0.4766250000000  0.5580550000000  0.4939730000000 1.0
C      1  0.4461880000000  0.5886500000000  0.4912870000000 1.0
C      1  0.5619400000000  0.4063860000000  0.4727620000000 1.0
C      1  0.5835230000000  0.3578750000000  0.5168280000000 1.0
C      1  0.5335260000000  0.5444510000000  0.4061610000000 1.0
C      1  0.4730960000000  0.5490390000000  0.4220580000000 1.0
C      1  0.4433010000000  0.4959070000000  0.4160050000000 1.0
C      1  0.4569590000000  0.6027810000000  0.5326900000000 1.0
C      1  0.4027220000000  0.4937430000000  0.4847330000000 1.0
C      1  0.4835380000000  0.5585090000000  0.4664190000000 1.0
C      1  0.5437180000000  0.3871010000000  0.5071740000000 1.0
C      1  0.5062820000000  0.5088880000000  0.4553190000000 1.0
C      1  0.5519770000000  0.5544600000000  0.5239040000000 1.0
C      1  0.5483430000000  0.4627970000000  0.4293870000000 1.0
C      1  0.4498170000000  0.4745980000000  0.4996940000000 1.0
C      1  0.4843880000000  0.4533520000000  0.4011770000000 1.0
C      1  0.4010940000000  0.4842600000000  0.4555710000000 1.0
C      1  0.5587920000000  0.6134440000000  0.4896430000000 1.0
C      1  0.5555050000000  0.4707610000000  0.5839420000000 1.0
C      1  0.5060770000000  0.5810150000000  0.5835340000000 1.0
C      1  0.4728360000000  0.4255310000000  0.4801250000000 1.0
C      1  0.3887160000000  0.4533350000000  0.4928210000000 1.0
C      1  0.6171040000000  0.5708210000000  0.5390470000000 1.0
C      1  0.5829100000000  0.4802850000000  0.5773570000000 1.0
C      1  0.4192990000000  0.5142300000000  0.4188680000000 1.0
C      1  0.3643170000000  0.5015610000000  0.5392220000000 1.0
C      1  0.4620140000000  0.5814840000000  0.5558520000000 1.0
C      1  0.5469110000000  0.4419830000000  0.5806150000000 1.0
C      1  0.4628460000000  0.4655420000000  0.5269030000000 1.0
C      1  0.4462560000000  0.4483030000000  0.5425130000000 1.0
C      1  0.5255120000000  0.4316270000000  0.4845990000000 1.0
C      1  0.4879510000000  0.6231790000000  0.4935190000000 1.0
C      1  0.4705260000000  0.4478920000000  0.6032960000000 1.0
C      1  0.5183420000000  0.4221820000000  0.4334750000000 1.0
C      1  0.5051930000000  0.5753620000000  0.5328480000000 1.0
C      1  0.4684060000000  0.4595470000000  0.4439490000000 1.0
C      1  0.4258060000000  0.4534630000000  0.5804320000000 1.0
C      1  0.5547940000000  0.4379120000000  0.5277210000000 1.0
C      1  0.5823620000000  0.4352460000000  0.5157970000000 1.0
C      1  0.4389860000000  0.5493770000000  0.4465590000000 1.0
C      1  0.5474740000000  0.5336620000000  0.6158440000000 1.0
C      1  0.4191370000000  0.4805340000000  0.5062070000000 1.0
C      1  0.4894630000000  0.5789210000000  0.5091500000000 1.0
C      1  0.5754970000000  0.4819320000000  0.4878030000000 1.0
END
