TITL C-862133-5440-947 15.4784500326184 125000 -762.586360386217 0 0 133 (C1) n - 1
REM
REM in /home/nfs/bkarasulu/CARBON/AIRSS/Generating-Clusters/TERSOFF/Higher-Symm/FIRE-HFTN
REM
REM
REM
REM
REM
REM ./C.cell (b20cbc046b6831c77cfcea5457e17084)
REM AIRSS Version 0.9.1 bugfix July 2018 build 013d7b7c2542+ Fri, 06 Jul 2018 19:26:36 +0100
REM compiler GCC version 9.2.1 20190827 (Red Hat 9.2.1-1)
REM options -cpp -mtune=generic -march=x86-64 -g -O0 -fpre-include=/usr/include/finclude/math-vector-fortran.h
REM seed -965357756 1482599780 223771442 1176343965 636289892 -237834829 1609199106 194490846 719532550 387925956 367206021 -609147562 1457027774 -269085795 -255281905 -1323983953 -684206862 1653193289 -1568651781 886072168 167996725 -175432681 881095090 -593391419 -1183236816 -1227039933 -1906988647 -1801659134 -1808236720 -1965951240 992235892 -1116913775 1929602342
REM
CELL 1.54180   50.00000   50.00000   50.00000   90.00000   90.00000   90.00000
LATT -1
SFAC C  
C      1  0.5084450000000  0.4377230000000  0.5805700000000 1.0
C      1  0.5036770000000  0.4640930000000  0.3991740000000 1.0
C      1  0.5039440000000  0.6046260000000  0.5183310000000 1.0
C      1  0.5471130000000  0.4572190000000  0.5233810000000 1.0
C      1  0.5451980000000  0.4956370000000  0.4450750000000 1.0
C      1  0.5479560000000  0.5481130000000  0.5268750000000 1.0
C      1  0.5795110000000  0.4925000000000  0.5178390000000 1.0
C      1  0.5741890000000  0.4690290000000  0.4694850000000 1.0
C      1  0.5843970000000  0.5217100000000  0.5136330000000 1.0
C      1  0.5804140000000  0.5227300000000  0.4166800000000 1.0
C      1  0.5741690000000  0.5635570000000  0.5750650000000 1.0
C      1  0.5777720000000  0.4137290000000  0.5148330000000 1.0
C      1  0.4211470000000  0.4534470000000  0.4231010000000 1.0
C      1  0.4211310000000  0.5927500000000  0.4988470000000 1.0
C      1  0.4222660000000  0.4545300000000  0.5781020000000 1.0
C      1  0.3864180000000  0.4699910000000  0.4895930000000 1.0
C      1  0.3870330000000  0.5205510000000  0.4790700000000 1.0
C      1  0.3850150000000  0.5046490000000  0.5283050000000 1.0
C      1  0.4261130000000  0.5333540000000  0.4450030000000 1.0
C      1  0.4244090000000  0.5323840000000  0.5553610000000 1.0
C      1  0.4292780000000  0.4364840000000  0.4982630000000 1.0
C      1  0.5466780000000  0.5221140000000  0.4577580000000 1.0
C      1  0.5396910000000  0.5278060000000  0.5462710000000 1.0
C      1  0.5376900000000  0.4475490000000  0.4977350000000 1.0
C      1  0.5557250000000  0.5434320000000  0.4144530000000 1.0
C      1  0.5473380000000  0.5550590000000  0.5879090000000 1.0
C      1  0.5510970000000  0.3998960000000  0.5035660000000 1.0
C      1  0.4565820000000  0.4811170000000  0.5159390000000 1.0
C      1  0.4609560000000  0.4959320000000  0.4748170000000 1.0
C      1  0.4574100000000  0.5232960000000  0.5114770000000 1.0
C      1  0.4383880000000  0.4426150000000  0.5565580000000 1.0
C      1  0.4369470000000  0.4781440000000  0.4232400000000 1.0
C      1  0.4349310000000  0.5784750000000  0.5206380000000 1.0
C      1  0.4507350000000  0.5243930000000  0.5675150000000 1.0
C      1  0.4549010000000  0.4307620000000  0.4837380000000 1.0
C      1  0.4515990000000  0.5487600000000  0.4456270000000 1.0
C      1  0.4883500000000  0.4990430000000  0.5509810000000 1.0
C      1  0.4971200000000  0.4577290000000  0.4698050000000 1.0
C      1  0.4876220000000  0.5459640000000  0.4777910000000 1.0
C      1  0.5153410000000  0.6311280000000  0.5140650000000 1.0
C      1  0.5229890000000  0.4327650000000  0.6053620000000 1.0
C      1  0.5151440000000  0.4481920000000  0.3775540000000 1.0
C      1  0.5002570000000  0.5009640000000  0.5795330000000 1.0
C      1  0.5001080000000  0.4294410000000  0.4582840000000 1.0
C      1  0.5024600000000  0.5694640000000  0.4645400000000 1.0
C      1  0.5214650000000  0.4291990000000  0.5542930000000 1.0
C      1  0.5170420000000  0.4912290000000  0.4056940000000 1.0
C      1  0.5180430000000  0.5858610000000  0.5375220000000 1.0
C      1  0.5979060000000  0.4838020000000  0.4565020000000 1.0
C      1  0.5993190000000  0.5401820000000  0.5329550000000 1.0
C      1  0.5991880000000  0.4695850000000  0.5096220000000 1.0
C      1  0.4746980000000  0.4769330000000  0.4575070000000 1.0
C      1  0.4701930000000  0.5475800000000  0.5019920000000 1.0
C      1  0.4706000000000  0.4770340000000  0.5408970000000 1.0
C      1  0.4217550000000  0.5051110000000  0.4294060000000 1.0
C      1  0.4183660000000  0.5580760000000  0.5363710000000 1.0
C      1  0.4235990000000  0.4356800000000  0.5299590000000 1.0
C      1  0.5673900000000  0.4798250000000  0.4013180000000 1.0
C      1  0.5688980000000  0.5930390000000  0.5360050000000 1.0
C      1  0.5740160000000  0.4334690000000  0.5586960000000 1.0
C      1  0.4598100000000  0.6211180000000  0.5031510000000 1.0
C      1  0.4639420000000  0.4368800000000  0.6027670000000 1.0
C      1  0.4601710000000  0.4418670000000  0.3929770000000 1.0
C      1  0.4522340000000  0.5774370000000  0.4599270000000 1.0
C      1  0.4512130000000  0.4972300000000  0.5852060000000 1.0
C      1  0.4530330000000  0.4259220000000  0.4530740000000 1.0
C      1  0.5116640000000  0.5677840000000  0.4350780000000 1.0
C      1  0.5026820000000  0.5286480000000  0.5928010000000 1.0
C      1  0.5035550000000  0.4054970000000  0.4779360000000 1.0
C      1  0.4806210000000  0.4513720000000  0.5825450000000 1.0
C      1  0.4789070000000  0.4525210000000  0.4139800000000 1.0
C      1  0.4780880000000  0.5973050000000  0.5029480000000 1.0
C      1  0.4272960000000  0.5892610000000  0.4703660000000 1.0
C      1  0.4265650000000  0.4814650000000  0.5888590000000 1.0
C      1  0.4276090000000  0.4299300000000  0.4390410000000 1.0
C      1  0.5336560000000  0.5023680000000  0.5355590000000 1.0
C      1  0.5248910000000  0.4654690000000  0.4795100000000 1.0
C      1  0.5423900000000  0.5239480000000  0.4855840000000 1.0
C      1  0.5914750000000  0.5415600000000  0.5624070000000 1.0
C      1  0.5867730000000  0.4402500000000  0.5001310000000 1.0
C      1  0.5918720000000  0.5138880000000  0.4452030000000 1.0
C      1  0.4783680000000  0.4827480000000  0.5891480000000 1.0
C      1  0.4789260000000  0.4293040000000  0.4373130000000 1.0
C      1  0.4790270000000  0.5870180000000  0.4726500000000 1.0
C      1  0.4137910000000  0.5087820000000  0.5385080000000 1.0
C      1  0.4160440000000  0.4620560000000  0.4882180000000 1.0
C      1  0.4164940000000  0.5264330000000  0.4728900000000 1.0
C      1  0.5484150000000  0.5292100000000  0.5732870000000 1.0
C      1  0.5491540000000  0.4243010000000  0.4859970000000 1.0
C      1  0.5561680000000  0.5445740000000  0.4438050000000 1.0
C      1  0.5154360000000  0.5540030000000  0.5810630000000 1.0
C      1  0.5175490000000  0.4053280000000  0.5060560000000 1.0
C      1  0.5222800000000  0.5432810000000  0.4190350000000 1.0
C      1  0.4282410000000  0.4773210000000  0.5121570000000 1.0
C      1  0.4320440000000  0.4990430000000  0.4764260000000 1.0
C      1  0.4289620000000  0.5192970000000  0.5130710000000 1.0
C      1  0.4654570000000  0.4738240000000  0.4298180000000 1.0
C      1  0.4632750000000  0.5734750000000  0.5140370000000 1.0
C      1  0.4658300000000  0.4529130000000  0.5564550000000 1.0
C      1  0.5756560000000  0.5900820000000  0.5639030000000 1.0
C      1  0.5831910000000  0.4111550000000  0.5429240000000 1.0
C      1  0.5823830000000  0.5036540000000  0.3951970000000 1.0
C      1  0.5057150000000  0.4229550000000  0.5287890000000 1.0
C      1  0.5050060000000  0.5169260000000  0.4177120000000 1.0
C      1  0.5033340000000  0.5661570000000  0.5552950000000 1.0
C      1  0.4081580000000  0.5421230000000  0.5117890000000 1.0
C      1  0.4088340000000  0.4642280000000  0.5330530000000 1.0
C      1  0.4115170000000  0.4888230000000  0.4549050000000 1.0
C      1  0.5083810000000  0.5010050000000  0.4644800000000 1.0
C      1  0.5088230000000  0.5380680000000  0.5154210000000 1.0
C      1  0.5078560000000  0.4720340000000  0.5222140000000 1.0
C      1  0.6033790000000  0.4643710000000  0.4341240000000 1.0
C      1  0.6086330000000  0.5652970000000  0.5207280000000 1.0
C      1  0.6109980000000  0.4638870000000  0.5372520000000 1.0
C      1  0.4751690000000  0.5245680000000  0.5495130000000 1.0
C      1  0.4801930000000  0.4454560000000  0.4917600000000 1.0
C      1  0.4751870000000  0.5335020000000  0.4552840000000 1.0
C      1  0.5471690000000  0.4744050000000  0.4626670000000 1.0
C      1  0.5604820000000  0.5362450000000  0.5041560000000 1.0
C      1  0.5532860000000  0.4841550000000  0.5256980000000 1.0
C      1  0.5473090000000  0.4411980000000  0.5471790000000 1.0
C      1  0.5434970000000  0.4894150000000  0.4168080000000 1.0
C      1  0.5447510000000  0.5767590000000  0.5304450000000 1.0
C      1  0.5919230000000  0.5889010000000  0.5185070000000 1.0
C      1  0.5949760000000  0.4545280000000  0.5603660000000 1.0
C      1  0.5842420000000  0.4589290000000  0.4128910000000 1.0
C      1  0.4914750000000  0.5458380000000  0.5381430000000 1.0
C      1  0.4925210000000  0.4469910000000  0.5181010000000 1.0
C      1  0.4914640000000  0.5127320000000  0.4433580000000 1.0
C      1  0.3810990000000  0.5274530000000  0.5079940000000 1.0
C      1  0.3826560000000  0.4757090000000  0.5196340000000 1.0
C      1  0.3837220000000  0.4918590000000  0.4687250000000 1.0
C      1  0.6131840000000  0.4804480000000  0.4840120000000 1.0
END
