TITL C-862506-1665-1324 0.000133978499703183 125000 -911.447067913564 0 0 156 (C4h) n - 1
REM
REM in /home/nfs/bkarasulu/CARBON/AIRSS/Generating-Clusters/TERSOFF/Higher-Symm/FIRE-HFTN
REM
REM
REM
REM
REM
REM ./C.cell (b20cbc046b6831c77cfcea5457e17084)
REM AIRSS Version 0.9.1 bugfix July 2018 build 013d7b7c2542+ Fri, 06 Jul 2018 19:26:36 +0100
REM compiler GCC version 9.2.1 20190827 (Red Hat 9.2.1-1)
REM options -cpp -mtune=generic -march=x86-64 -g -O0 -fpre-include=/usr/include/finclude/math-vector-fortran.h
REM seed 1507050519 1448000603 321721950 -140168495 929946406 372450727 1594630790 190069687 -2108786089 -1160623407 -1888706507 -835773406 -1133087338 1568082234 1637900077 1821449791 795154352 -102677843 1275542230 -160213412 1038449463 -322214836 564269015 -1210453448 574784703 -1165856170 -845940243 -1954815579 343486288 -2120069745 -241671636 -884460709 -1191516384
REM
CELL 1.54180   50.00000   50.00000   50.00000   90.00000   90.00000   90.00000
LATT -1
SFAC C  
C      1  0.5317530000000  0.4919430000000  0.5213060000000 1.0
C      1  0.5317530000000  0.4786940000000  0.4919430000000 1.0
C      1  0.5317530000000  0.5080570000000  0.4786940000000 1.0
C      1  0.5317530000000  0.5213060000000  0.5080570000000 1.0
C      1  0.4680410000000  0.4919430000000  0.5213060000000 1.0
C      1  0.4680410000000  0.4786940000000  0.4919430000000 1.0
C      1  0.4680410000000  0.5080570000000  0.4786940000000 1.0
C      1  0.4680410000000  0.5213060000000  0.5080570000000 1.0
C      1  0.4459260000000  0.5423260000000  0.4176960000000 1.0
C      1  0.4459260000000  0.5823040000000  0.5423260000000 1.0
C      1  0.4459260000000  0.4576740000000  0.5823040000000 1.0
C      1  0.4459260000000  0.4176960000000  0.4576740000000 1.0
C      1  0.5538680000000  0.5423260000000  0.4176960000000 1.0
C      1  0.5538680000000  0.5823040000000  0.5423260000000 1.0
C      1  0.5538680000000  0.4576740000000  0.5823040000000 1.0
C      1  0.5538680000000  0.4176960000000  0.4576740000000 1.0
C      1  0.5372150000000  0.4031190000000  0.4126270000000 1.0
C      1  0.5372150000000  0.5873730000000  0.4031190000000 1.0
C      1  0.5372150000000  0.5968810000000  0.5873730000000 1.0
C      1  0.5372150000000  0.4126270000000  0.5968810000000 1.0
C      1  0.4625790000000  0.4031190000000  0.4126270000000 1.0
C      1  0.4625790000000  0.5873730000000  0.4031190000000 1.0
C      1  0.4625790000000  0.5968810000000  0.5873730000000 1.0
C      1  0.4625790000000  0.4126270000000  0.5968810000000 1.0
C      1  0.5256630000000  0.5282100000000  0.4213630000000 1.0
C      1  0.5256630000000  0.5786370000000  0.5282100000000 1.0
C      1  0.5256630000000  0.4717900000000  0.5786370000000 1.0
C      1  0.5256630000000  0.4213630000000  0.4717900000000 1.0
C      1  0.4741310000000  0.5282100000000  0.4213630000000 1.0
C      1  0.4741310000000  0.5786370000000  0.5282100000000 1.0
C      1  0.4741310000000  0.4717900000000  0.5786370000000 1.0
C      1  0.4741310000000  0.4213630000000  0.4717900000000 1.0
C      1  0.5157970000000  0.4805880000000  0.5450960000000 1.0
C      1  0.5157970000000  0.4549040000000  0.4805880000000 1.0
C      1  0.5157970000000  0.5194120000000  0.4549040000000 1.0
C      1  0.5157970000000  0.5450960000000  0.5194120000000 1.0
C      1  0.4839970000000  0.4805880000000  0.5450960000000 1.0
C      1  0.4839970000000  0.4549040000000  0.4805880000000 1.0
C      1  0.4839970000000  0.5194120000000  0.4549040000000 1.0
C      1  0.4839970000000  0.5450960000000  0.5194120000000 1.0
C      1  0.4455760000000  0.4415130000000  0.5336720000000 1.0
C      1  0.4455760000000  0.4663280000000  0.4415130000000 1.0
C      1  0.4455760000000  0.5584870000000  0.4663280000000 1.0
C      1  0.4455760000000  0.5336720000000  0.5584870000000 1.0
C      1  0.5542180000000  0.4415130000000  0.5336720000000 1.0
C      1  0.5542180000000  0.4663280000000  0.4415130000000 1.0
C      1  0.5542180000000  0.5584870000000  0.4663280000000 1.0
C      1  0.5542180000000  0.5336720000000  0.5584870000000 1.0
C      1  0.4434710000000  0.5818270000000  0.4482330000000 1.0
C      1  0.4434710000000  0.5517670000000  0.5818270000000 1.0
C      1  0.4434710000000  0.4181730000000  0.5517670000000 1.0
C      1  0.4434710000000  0.4482330000000  0.4181730000000 1.0
C      1  0.5563230000000  0.5818270000000  0.4482330000000 1.0
C      1  0.5563230000000  0.5517670000000  0.5818270000000 1.0
C      1  0.5563230000000  0.4181730000000  0.5517670000000 1.0
C      1  0.5563230000000  0.4482330000000  0.4181730000000 1.0
C      1  0.5574860000000  0.4193980000000  0.4283250000000 1.0
C      1  0.5574860000000  0.5716750000000  0.4193980000000 1.0
C      1  0.5574860000000  0.5806020000000  0.5716750000000 1.0
C      1  0.5574860000000  0.4283250000000  0.5806020000000 1.0
C      1  0.4423080000000  0.4193980000000  0.4283250000000 1.0
C      1  0.4423080000000  0.5716750000000  0.4193980000000 1.0
C      1  0.4423080000000  0.5806020000000  0.5716750000000 1.0
C      1  0.4423080000000  0.4283250000000  0.5806020000000 1.0
C      1  0.4748800000000  0.4644740000000  0.4501240000000 1.0
C      1  0.4748800000000  0.5498760000000  0.4644740000000 1.0
C      1  0.4748800000000  0.5355260000000  0.5498760000000 1.0
C      1  0.4748800000000  0.4501240000000  0.5355260000000 1.0
C      1  0.5249140000000  0.4644740000000  0.4501240000000 1.0
C      1  0.5249140000000  0.5498760000000  0.4644740000000 1.0
C      1  0.5249140000000  0.5355260000000  0.5498760000000 1.0
C      1  0.5249140000000  0.4501240000000  0.5355260000000 1.0
C      1  0.5299760000000  0.4024160000000  0.5490450000000 1.0
C      1  0.5299760000000  0.4509550000000  0.4024160000000 1.0
C      1  0.5299760000000  0.5975840000000  0.4509550000000 1.0
C      1  0.5299760000000  0.5490450000000  0.5975840000000 1.0
C      1  0.4698180000000  0.4024160000000  0.5490450000000 1.0
C      1  0.4698180000000  0.4509550000000  0.4024160000000 1.0
C      1  0.4698180000000  0.5975840000000  0.4509550000000 1.0
C      1  0.4698180000000  0.5490450000000  0.5975840000000 1.0
C      1  0.5153670000000  0.5979270000000  0.4770430000000 1.0
C      1  0.5153670000000  0.5229570000000  0.5979270000000 1.0
C      1  0.5153670000000  0.4020730000000  0.5229570000000 1.0
C      1  0.5153670000000  0.4770430000000  0.4020730000000 1.0
C      1  0.4844270000000  0.5979270000000  0.4770430000000 1.0
C      1  0.4844270000000  0.5229570000000  0.5979270000000 1.0
C      1  0.4844270000000  0.4020730000000  0.5229570000000 1.0
C      1  0.4844270000000  0.4770430000000  0.4020730000000 1.0
C      1  0.5160140000000  0.4251450000000  0.4120310000000 1.0
C      1  0.5160140000000  0.5879690000000  0.4251450000000 1.0
C      1  0.5160140000000  0.5748550000000  0.5879690000000 1.0
C      1  0.5160140000000  0.4120310000000  0.5748550000000 1.0
C      1  0.4837810000000  0.4251450000000  0.4120310000000 1.0
C      1  0.4837810000000  0.5879690000000  0.4251450000000 1.0
C      1  0.4837810000000  0.5748550000000  0.5879690000000 1.0
C      1  0.4837810000000  0.4120310000000  0.5748550000000 1.0
C      1  0.5936090000000  0.5063790000000  0.5419900000000 1.0
C      1  0.5936090000000  0.4580100000000  0.5063790000000 1.0
C      1  0.5936090000000  0.4936210000000  0.4580100000000 1.0
C      1  0.5936090000000  0.5419900000000  0.4936210000000 1.0
C      1  0.4061850000000  0.5063790000000  0.5419900000000 1.0
C      1  0.4061850000000  0.4580100000000  0.5063790000000 1.0
C      1  0.4061850000000  0.4936210000000  0.4580100000000 1.0
C      1  0.4061850000000  0.5419900000000  0.4936210000000 1.0
C      1  0.5771290000000  0.4602220000000  0.5300660000000 1.0
C      1  0.5771290000000  0.4699340000000  0.4602220000000 1.0
C      1  0.5771290000000  0.5397780000000  0.4699340000000 1.0
C      1  0.5771290000000  0.5300660000000  0.5397780000000 1.0
C      1  0.4226650000000  0.4602220000000  0.5300660000000 1.0
C      1  0.4226650000000  0.4699340000000  0.4602220000000 1.0
C      1  0.4226650000000  0.5397780000000  0.4699340000000 1.0
C      1  0.4226650000000  0.5300660000000  0.5397780000000 1.0
C      1  0.4671810000000  0.5014250000000  0.4052910000000 1.0
C      1  0.4671810000000  0.5947090000000  0.5014250000000 1.0
C      1  0.4671810000000  0.4985750000000  0.5947090000000 1.0
C      1  0.4671810000000  0.4052910000000  0.4985750000000 1.0
C      1  0.5326130000000  0.5014250000000  0.4052910000000 1.0
C      1  0.5326130000000  0.5947090000000  0.5014250000000 1.0
C      1  0.5326130000000  0.4985750000000  0.5947090000000 1.0
C      1  0.5326130000000  0.4052910000000  0.4985750000000 1.0
C      1  0.4157130000000  0.5505600000000  0.5194290000000 1.0
C      1  0.4157130000000  0.4805710000000  0.5505600000000 1.0
C      1  0.4157130000000  0.4494400000000  0.4805710000000 1.0
C      1  0.4157130000000  0.5194290000000  0.4494400000000 1.0
C      1  0.5840810000000  0.5505600000000  0.5194290000000 1.0
C      1  0.5840810000000  0.4805710000000  0.5505600000000 1.0
C      1  0.5840810000000  0.4494400000000  0.4805710000000 1.0
C      1  0.5840810000000  0.5194290000000  0.4494400000000 1.0
C      1  0.4372120000000  0.5927940000000  0.4995910000000 1.0
C      1  0.4372120000000  0.5004090000000  0.5927940000000 1.0
C      1  0.4372120000000  0.4072060000000  0.5004090000000 1.0
C      1  0.4372120000000  0.4995910000000  0.4072060000000 1.0
C      1  0.5625820000000  0.5927940000000  0.4995910000000 1.0
C      1  0.5625820000000  0.5004090000000  0.5927940000000 1.0
C      1  0.5625820000000  0.4072060000000  0.5004090000000 1.0
C      1  0.5625820000000  0.4995910000000  0.4072060000000 1.0
C      1  0.4849270000000  0.5561830000000  0.4346810000000 1.0
C      1  0.4849270000000  0.5653190000000  0.5561830000000 1.0
C      1  0.4849270000000  0.4438170000000  0.5653190000000 1.0
C      1  0.4849270000000  0.4346810000000  0.4438170000000 1.0
C      1  0.5148670000000  0.5561830000000  0.4346810000000 1.0
C      1  0.5148670000000  0.5653190000000  0.5561830000000 1.0
C      1  0.5148670000000  0.4438170000000  0.5653190000000 1.0
C      1  0.5148670000000  0.4346810000000  0.4438170000000 1.0
C      1  0.4243680000000  0.4772610000000  0.5783420000000 1.0
C      1  0.4243680000000  0.4216580000000  0.4772610000000 1.0
C      1  0.4243680000000  0.5227390000000  0.4216580000000 1.0
C      1  0.4243680000000  0.5783420000000  0.5227390000000 1.0
C      1  0.5754260000000  0.4772610000000  0.5783420000000 1.0
C      1  0.5754260000000  0.4216580000000  0.4772610000000 1.0
C      1  0.5754260000000  0.5227390000000  0.4216580000000 1.0
C      1  0.5754260000000  0.5783420000000  0.5227390000000 1.0
C      1  0.4998970000000  0.4409850000000  0.5197590000000 1.0
C      1  0.4998970000000  0.4802410000000  0.4409850000000 1.0
C      1  0.4998970000000  0.5590150000000  0.4802410000000 1.0
C      1  0.4998970000000  0.5197590000000  0.5590150000000 1.0
END
