TITL C-862128-1543-620 31.2229611087659 125000 -569.694185118445 0 0 106 (S4) n - 1
REM
REM in /home/nfs/bkarasulu/CARBON/AIRSS/Generating-Clusters/TERSOFF/Higher-Symm/FIRE-HFTN
REM
REM
REM
REM
REM
REM ./C.cell (b20cbc046b6831c77cfcea5457e17084)
REM AIRSS Version 0.9.1 bugfix July 2018 build 013d7b7c2542+ Fri, 06 Jul 2018 19:26:36 +0100
REM compiler GCC version 9.2.1 20190827 (Red Hat 9.2.1-1)
REM options -cpp -mtune=generic -march=x86-64 -g -O0 -fpre-include=/usr/include/finclude/math-vector-fortran.h
REM seed 291248721 -1961094751 -297457272 766137831 -1959881597 -450200734 1160949781 -1639167572 1006499289 -1866867022 -504224167 -1409937927 2116988302 -639650182 1464157654 -312907459 493540526 427952187 -625528991 483942354 -422744143 747604142 -2047778230 211641743 -469511693 662476663 902795622 -1337695157 -2131304558 -1023889225 -1419662211 656903449 -2078072672
REM
CELL 1.54180   50.00000   50.00000   50.00000   90.00000   90.00000   90.00000
LATT -1
SFAC C  
C      1  0.5959570000000  0.4812470000000  0.5161680000000 1.0
C      1  0.4838750000000  0.5187530000000  0.5959750000000 1.0
C      1  0.4040680000000  0.4812470000000  0.4838930000000 1.0
C      1  0.5161500000000  0.5187530000000  0.4040860000000 1.0
C      1  0.4892610000000  0.5456780000000  0.5289110000000 1.0
C      1  0.4711320000000  0.4543220000000  0.4892790000000 1.0
C      1  0.5107640000000  0.5456780000000  0.4711500000000 1.0
C      1  0.5288930000000  0.4543220000000  0.5107820000000 1.0
C      1  0.5319380000000  0.4154490000000  0.4713300000000 1.0
C      1  0.5287140000000  0.5845510000000  0.5319560000000 1.0
C      1  0.4680870000000  0.4154490000000  0.5287320000000 1.0
C      1  0.4713110000000  0.5845510000000  0.4681050000000 1.0
C      1  0.4183760000000  0.5058740000000  0.5273010000000 1.0
C      1  0.4727420000000  0.4941260000000  0.4183940000000 1.0
C      1  0.5816490000000  0.5058740000000  0.4727600000000 1.0
C      1  0.5272830000000  0.4941260000000  0.5816680000000 1.0
C      1  0.4984740000000  0.4933140000000  0.5905050000000 1.0
C      1  0.4095380000000  0.5066860000000  0.4984920000000 1.0
C      1  0.5015510000000  0.4933140000000  0.4095570000000 1.0
C      1  0.5904870000000  0.5066860000000  0.5015690000000 1.0
C      1  0.4607080000000  0.4914660000000  0.5202650000000 1.0
C      1  0.4797780000000  0.5085340000000  0.4607260000000 1.0
C      1  0.5393170000000  0.4914660000000  0.4797960000000 1.0
C      1  0.5202470000000  0.5085340000000  0.5393360000000 1.0
C      1  0.5002200000000  0.5820270000000  0.4534090000000 1.0
C      1  0.5466340000000  0.4179730000000  0.5002380000000 1.0
C      1  0.4998050000000  0.5820270000000  0.5466520000000 1.0
C      1  0.4533910000000  0.4179730000000  0.4998230000000 1.0
C      1  0.4656640000000  0.5178720000000  0.4362330000000 1.0
C      1  0.5638110000000  0.4821280000000  0.4656820000000 1.0
C      1  0.5343610000000  0.5178720000000  0.5638290000000 1.0
C      1  0.4362140000000  0.4821280000000  0.5343790000000 1.0
C      1  0.4813120000000  0.5418670000000  0.5770310000000 1.0
C      1  0.4230120000000  0.4581330000000  0.4813300000000 1.0
C      1  0.5187130000000  0.5418670000000  0.4230300000000 1.0
C      1  0.5770130000000  0.4581330000000  0.5187310000000 1.0
C      1  0.5739870000000  0.5377490000000  0.5416550000000 1.0
C      1  0.4583880000000  0.4622510000000  0.5740060000000 1.0
C      1  0.4260380000000  0.5377490000000  0.4584060000000 1.0
C      1  0.5416370000000  0.4622510000000  0.4260560000000 1.0
C      1  0.5379140000000  0.4982900000000  0.5139340000000 1.0
C      1  0.4861090000000  0.5017100000000  0.5379320000000 1.0
C      1  0.4621110000000  0.4982900000000  0.4861270000000 1.0
C      1  0.5139160000000  0.5017100000000  0.4621290000000 1.0
C      1  0.5674660000000  0.4410500000000  0.4962750000000 1.0
C      1  0.5037680000000  0.5589500000000  0.5674840000000 1.0
C      1  0.4325590000000  0.4410500000000  0.5037860000000 1.0
C      1  0.4962570000000  0.5589500000000  0.4325770000000 1.0
C      1  0.4891570000000  0.4812800000000  0.4912150000000 1.0
C      1  0.5088280000000  0.5187200000000  0.4891750000000 1.0
C      1  0.5108680000000  0.4812800000000  0.5088460000000 1.0
C      1  0.4911970000000  0.5187200000000  0.5108860000000 1.0
C      1  0.4993550000000  0.4090270000000  0.5313940000000 1.0
C      1  0.4686490000000  0.5909730000000  0.4993730000000 1.0
C      1  0.5006700000000  0.4090270000000  0.4686670000000 1.0
C      1  0.5313760000000  0.5909730000000  0.5006880000000 1.0
C      1  0.4693270000000  0.5477210000000  0.4340850000000 1.0
C      1  0.5659580000000  0.4522790000000  0.4693450000000 1.0
C      1  0.5306980000000  0.5477210000000  0.5659760000000 1.0
C      1  0.4340670000000  0.4522790000000  0.5307160000000 1.0
C      1  0.4413090000000  0.4850270000000  0.5635900000000 1.0
C      1  0.4364530000000  0.5149730000000  0.4413270000000 1.0
C      1  0.5587160000000  0.4850270000000  0.4364710000000 1.0
C      1  0.5635720000000  0.5149730000000  0.5587340000000 1.0
C      1  0.5484030000000  0.5418490000000  0.4893220000000 1.0
C      1  0.5107210000000  0.4581510000000  0.5484210000000 1.0
C      1  0.4516220000000  0.5418490000000  0.5107390000000 1.0
C      1  0.4893040000000  0.4581510000000  0.4516400000000 1.0
C      1  0.5720490000000  0.4868870000000  0.5625340000000 1.0
C      1  0.4375090000000  0.5131130000000  0.5720670000000 1.0
C      1  0.4279760000000  0.4868870000000  0.4375270000000 1.0
C      1  0.5625160000000  0.5131130000000  0.4279940000000 1.0
C      1  0.5468890000000  0.4370620000000  0.4498320000000 1.0
C      1  0.5502110000000  0.5629380000000  0.5469080000000 1.0
C      1  0.4531360000000  0.4370620000000  0.5502290000000 1.0
C      1  0.4498140000000  0.5629380000000  0.4531540000000 1.0
C      1  0.4724340000000  0.4251630000000  0.4714200000000 1.0
C      1  0.5286230000000  0.5748370000000  0.4724520000000 1.0
C      1  0.5275910000000  0.4251630000000  0.5286410000000 1.0
C      1  0.4714020000000  0.5748370000000  0.5276090000000 1.0
C      1  0.5085990000000  0.4502160000000  0.4708160000000 1.0
C      1  0.5292270000000  0.5497840000000  0.5086170000000 1.0
C      1  0.4914260000000  0.4502160000000  0.5292450000000 1.0
C      1  0.4707980000000  0.5497840000000  0.4914440000000 1.0
C      1  0.5390290000000  0.4710090000000  0.5380020000000 1.0
C      1  0.4620410000000  0.5289910000000  0.5390470000000 1.0
C      1  0.4609960000000  0.4710090000000  0.4620590000000 1.0
C      1  0.5379840000000  0.5289910000000  0.4610140000000 1.0
C      1  0.4242680000000  0.5481170000000  0.5060490000000 1.0
C      1  0.4939940000000  0.4518830000000  0.4242860000000 1.0
C      1  0.5757570000000  0.5481170000000  0.4940120000000 1.0
C      1  0.5060310000000  0.4518830000000  0.5757750000000 1.0
C      1  0.4844590000000  0.4665780000000  0.5881380000000 1.0
C      1  0.4119060000000  0.5334220000000  0.4844780000000 1.0
C      1  0.5155660000000  0.4665780000000  0.4119240000000 1.0
C      1  0.5881190000000  0.5334220000000  0.5155840000000 1.0
C      1  0.5438060000000  0.4335600000000  0.5564010000000 1.0
C      1  0.4436420000000  0.5664400000000  0.5438240000000 1.0
C      1  0.4562190000000  0.4335600000000  0.4436600000000 1.0
C      1  0.5563830000000  0.5664400000000  0.4562370000000 1.0
C      1  0.4310400000000  0.5329040000000  0.5477170000000 1.0
C      1  0.4523270000000  0.4670960000000  0.4310580000000 1.0
C      1  0.5689850000000  0.5329040000000  0.4523450000000 1.0
C      1  0.5476980000000  0.4670960000000  0.5690040000000 1.0
C      1  0.5000120000000  0.5583170000000  0.5000310000000 1.0
C      1  0.5000120000000  0.4416830000000  0.5000310000000 1.0
END
