TITL C-862500-986-1263 4.48739633516669e-05 125000 -186.773194699455 0 0 34 (C2h) n - 1
REM
REM in /home/nfs/bkarasulu/CARBON/AIRSS/Generating-Clusters/TERSOFF/Higher-Symm/FIRE-HFTN
REM
REM
REM
REM
REM
REM ./C.cell (b20cbc046b6831c77cfcea5457e17084)
REM AIRSS Version 0.9.1 bugfix July 2018 build 013d7b7c2542+ Fri, 06 Jul 2018 19:26:36 +0100
REM compiler GCC version 9.2.1 20190827 (Red Hat 9.2.1-1)
REM options -cpp -mtune=generic -march=x86-64 -g -O0 -fpre-include=/usr/include/finclude/math-vector-fortran.h
REM seed 38155671 -131814823 -1087530658 -670497494 -1456619807 277849583 1991689255 1750589701 -1340671402 965690592 1049826606 -1869525257 -1344033884 132456657 -932213679 -1562432608 -1757042094 -2128168139 1810767339 1162081668 1233261127 541707866 -192185873 -863151199 1083714437 -391393224 2132646628 738591354 -1839147384 1985188742 -2018756486 -375843289 339514706
REM
CELL 1.54180   50.00000   50.00000   50.00000   90.00000   90.00000   90.00000
LATT -1
SFAC C  
C      1  0.5264750000000  0.4617820000000  0.4754900000000 1.0
C      1  0.4735250000000  0.5382180000000  0.4754900000000 1.0
C      1  0.5264750000000  0.4617820000000  0.5223180000000 1.0
C      1  0.4735250000000  0.5382180000000  0.5223180000000 1.0
C      1  0.4676800000000  0.4929160000000  0.4432800000000 1.0
C      1  0.5323200000000  0.5070840000000  0.4432800000000 1.0
C      1  0.4676800000000  0.4929160000000  0.5545280000000 1.0
C      1  0.5323200000000  0.5070840000000  0.5545280000000 1.0
C      1  0.4774350000000  0.4540180000000  0.4758040000000 1.0
C      1  0.5225650000000  0.5459820000000  0.4758040000000 1.0
C      1  0.4774350000000  0.4540180000000  0.5220030000000 1.0
C      1  0.5225650000000  0.5459820000000  0.5220030000000 1.0
C      1  0.4508450000000  0.5220140000000  0.4834730000000 1.0
C      1  0.5491550000000  0.4779860000000  0.4834730000000 1.0
C      1  0.4508450000000  0.5220140000000  0.5143340000000 1.0
C      1  0.5491550000000  0.4779860000000  0.5143340000000 1.0
C      1  0.4410910000000  0.4732550000000  0.4843010000000 1.0
C      1  0.5589090000000  0.5267450000000  0.4843010000000 1.0
C      1  0.4410910000000  0.4732550000000  0.5135070000000 1.0
C      1  0.5589090000000  0.5267450000000  0.5135070000000 1.0
C      1  0.5494120000000  0.5038370000000  0.4687320000000 1.0
C      1  0.4505880000000  0.4961630000000  0.4687320000000 1.0
C      1  0.5494120000000  0.5038370000000  0.5290760000000 1.0
C      1  0.4505880000000  0.4961630000000  0.5290760000000 1.0
C      1  0.4999780000000  0.4727660000000  0.4832970000000 1.0
C      1  0.5000220000000  0.5272340000000  0.4832970000000 1.0
C      1  0.4999780000000  0.4727660000000  0.5145110000000 1.0
C      1  0.5000220000000  0.5272340000000  0.5145110000000 1.0
C      1  0.5357800000000  0.5586100000000  0.4989040000000 1.0
C      1  0.4642200000000  0.4413900000000  0.4989040000000 1.0
C      1  0.5000000000000  0.5000000000000  0.4409330000000 1.0
C      1  0.5000000000000  0.5000000000000  0.5568740000000 1.0
C      1  0.5000000000000  0.5000000000000  0.5273770000000 1.0
C      1  0.5000000000000  0.5000000000000  0.4704310000000 1.0
END
