TITL C-862502-1143-1200 -0.000390030763311646 125000 -356.107804652151 0 0 63 (C7v) n - 1
REM
REM in /home/nfs/bkarasulu/CARBON/AIRSS/Generating-Clusters/TERSOFF/Higher-Symm/FIRE-HFTN
REM
REM
REM
REM
REM
REM ./C.cell (b20cbc046b6831c77cfcea5457e17084)
REM AIRSS Version 0.9.1 bugfix July 2018 build 013d7b7c2542+ Fri, 06 Jul 2018 19:26:36 +0100
REM compiler GCC version 9.2.1 20190827 (Red Hat 9.2.1-1)
REM options -cpp -mtune=generic -march=x86-64 -g -O0 -fpre-include=/usr/include/finclude/math-vector-fortran.h
REM seed 1108383900 1880748697 1494199808 -262414602 -1330972653 -1344235998 1078693974 669447477 860890056 541286817 -973503576 -971856779 -674313668 880265382 -1412177772 -1887204877 676102427 1730955132 1191482579 1224852435 -490219548 -1994292744 596545693 410998079 1770036215 1080648551 -1716806954 -1643293259 784413205 -1751297695 2084861610 -1022856641 460849457
REM
CELL 1.54180   50.00000   50.00000   50.00000   90.00000   90.00000   90.00000
LATT -1
SFAC C  
C      1  0.4468880000000  0.4815900000000  0.5287680000000 1.0
C      1  0.4468880000000  0.4660300000000  0.5035430000000 1.0
C      1  0.4468880000000  0.4760500000000  0.4756500000000 1.0
C      1  0.4468880000000  0.5041050000000  0.4660930000000 1.0
C      1  0.4468880000000  0.5290690000000  0.4820690000000 1.0
C      1  0.4468880000000  0.5321430000000  0.5115470000000 1.0
C      1  0.4468880000000  0.5110130000000  0.5323300000000 1.0
C      1  0.5299810000000  0.4675320000000  0.5507360000000 1.0
C      1  0.5299810000000  0.4400890000000  0.5062490000000 1.0
C      1  0.5299810000000  0.4577610000000  0.4570560000000 1.0
C      1  0.5299810000000  0.5072390000000  0.4402010000000 1.0
C      1  0.5299810000000  0.5512670000000  0.4683760000000 1.0
C      1  0.5299810000000  0.5566890000000  0.5203650000000 1.0
C      1  0.5299810000000  0.5194230000000  0.5570180000000 1.0
C      1  0.4436140000000  0.5490330000000  0.5498510000000 1.0
C      1  0.4436140000000  0.4915960000000  0.5694170000000 1.0
C      1  0.4436140000000  0.4404880000000  0.5367110000000 1.0
C      1  0.4436140000000  0.4341930000000  0.4763600000000 1.0
C      1  0.4436140000000  0.4774530000000  0.4338110000000 1.0
C      1  0.4436140000000  0.5376910000000  0.4411040000000 1.0
C      1  0.4436140000000  0.5695470000000  0.4927460000000 1.0
C      1  0.5723430000000  0.5579120000000  0.4939600000000 1.0
C      1  0.5723430000000  0.5408300000000  0.5415120000000 1.0
C      1  0.5723430000000  0.4930020000000  0.5578040000000 1.0
C      1  0.5723430000000  0.4504430000000  0.5305690000000 1.0
C      1  0.5723430000000  0.4452020000000  0.4803150000000 1.0
C      1  0.5723430000000  0.4812250000000  0.4448840000000 1.0
C      1  0.5723430000000  0.5313850000000  0.4509560000000 1.0
C      1  0.4612710000000  0.5209100000000  0.5613820000000 1.0
C      1  0.4612710000000  0.4650470000000  0.5546190000000 1.0
C      1  0.4612710000000  0.4355040000000  0.5067270000000 1.0
C      1  0.4612710000000  0.4545280000000  0.4537690000000 1.0
C      1  0.4612710000000  0.5077930000000  0.4356240000000 1.0
C      1  0.4612710000000  0.5551900000000  0.4659560000000 1.0
C      1  0.4612710000000  0.5610270000000  0.5219230000000 1.0
C      1  0.4861660000000  0.4962090000000  0.5313140000000 1.0
C      1  0.4861660000000  0.4731540000000  0.5165600000000 1.0
C      1  0.4861660000000  0.4703150000000  0.4893360000000 1.0
C      1  0.4861660000000  0.4898290000000  0.4701420000000 1.0
C      1  0.4861660000000  0.5170020000000  0.4734320000000 1.0
C      1  0.4861660000000  0.5313720000000  0.4967280000000 1.0
C      1  0.4861660000000  0.5221190000000  0.5224880000000 1.0
C      1  0.5594320000000  0.4414140000000  0.5061110000000 1.0
C      1  0.5594320000000  0.4586950000000  0.4580050000000 1.0
C      1  0.5594320000000  0.5070790000000  0.4415230000000 1.0
C      1  0.5594320000000  0.5501330000000  0.4690750000000 1.0
C      1  0.5594320000000  0.5554360000000  0.5199140000000 1.0
C      1  0.5594320000000  0.5189940000000  0.5557580000000 1.0
C      1  0.5594320000000  0.4682490000000  0.5496140000000 1.0
C      1  0.5157660000000  0.5330500000000  0.4483560000000 1.0
C      1  0.5157660000000  0.5609830000000  0.4936400000000 1.0
C      1  0.5157660000000  0.5429950000000  0.5437130000000 1.0
C      1  0.5157660000000  0.4926310000000  0.5608690000000 1.0
C      1  0.5157660000000  0.4478160000000  0.5321900000000 1.0
C      1  0.5157660000000  0.4422960000000  0.4792710000000 1.0
C      1  0.5157660000000  0.4802290000000  0.4419610000000 1.0
C      1  0.4845380000000  0.5429770000000  0.5436950000000 1.0
C      1  0.4845380000000  0.4926340000000  0.5608440000000 1.0
C      1  0.4845380000000  0.4478370000000  0.5321770000000 1.0
C      1  0.4845380000000  0.4423200000000  0.4792800000000 1.0
C      1  0.4845380000000  0.4802370000000  0.4419850000000 1.0
C      1  0.4845380000000  0.5330360000000  0.4483770000000 1.0
C      1  0.4845380000000  0.5609580000000  0.4936420000000 1.0
END
