TITL C-862134-6730-604 6.63078596179859 125000 -739.683161667106 0 0 127 (C1) n - 1
REM
REM in /home/nfs/bkarasulu/CARBON/AIRSS/Generating-Clusters/TERSOFF/Higher-Symm/FIRE-HFTN
REM
REM
REM
REM
REM
REM ./C.cell (b20cbc046b6831c77cfcea5457e17084)
REM AIRSS Version 0.9.1 bugfix July 2018 build 013d7b7c2542+ Fri, 06 Jul 2018 19:26:36 +0100
REM compiler GCC version 9.2.1 20190827 (Red Hat 9.2.1-1)
REM options -cpp -mtune=generic -march=x86-64 -g -O0 -fpre-include=/usr/include/finclude/math-vector-fortran.h
REM seed 1838769974 -522475379 2103550084 -1972622435 1842768877 -1785564420 30611341 -1458679133 -1319250817 -1358062177 1093580704 12882453 1546020839 757178893 -450633992 1562110715 1484940273 476322611 -525140667 869107649 207274793 1610873305 354659043 837163841 -1552436025 192849299 -1444291509 -101976539 2055231547 -1812491804 1070221800 891346062 1698179430
REM
CELL 1.54180   50.00000   50.00000   50.00000   90.00000   90.00000   90.00000
LATT -1
SFAC C  
C      1  0.4442640000000  0.4422310000000  0.5296740000000 1.0
C      1  0.5415370000000  0.5010490000000  0.5347110000000 1.0
C      1  0.5428420000000  0.5685590000000  0.5027390000000 1.0
C      1  0.5024920000000  0.6004770000000  0.5671710000000 1.0
C      1  0.5245230000000  0.5391400000000  0.5381060000000 1.0
C      1  0.4013070000000  0.5152910000000  0.5009970000000 1.0
C      1  0.4114560000000  0.4919280000000  0.4165970000000 1.0
C      1  0.4563790000000  0.5763800000000  0.5393590000000 1.0
C      1  0.4439070000000  0.4930690000000  0.5176310000000 1.0
C      1  0.4399380000000  0.4924820000000  0.4096720000000 1.0
C      1  0.5267640000000  0.4496190000000  0.4381510000000 1.0
C      1  0.5259920000000  0.4618370000000  0.4645460000000 1.0
C      1  0.4366350000000  0.5642040000000  0.4345660000000 1.0
C      1  0.4508580000000  0.5349110000000  0.5362000000000 1.0
C      1  0.5071240000000  0.4834280000000  0.4694870000000 1.0
C      1  0.4704740000000  0.4782010000000  0.4347190000000 1.0
C      1  0.4772510000000  0.3986180000000  0.4337260000000 1.0
C      1  0.4600970000000  0.4828570000000  0.4599720000000 1.0
C      1  0.5685650000000  0.4657330000000  0.5492250000000 1.0
C      1  0.5290020000000  0.6046050000000  0.5260250000000 1.0
C      1  0.4503690000000  0.4618950000000  0.4753850000000 1.0
C      1  0.5541480000000  0.5203090000000  0.5150810000000 1.0
C      1  0.4598600000000  0.5733090000000  0.4500590000000 1.0
C      1  0.4938700000000  0.4369520000000  0.5405140000000 1.0
C      1  0.5473320000000  0.5535450000000  0.4259310000000 1.0
C      1  0.4985430000000  0.5441330000000  0.5460940000000 1.0
C      1  0.4793190000000  0.5944460000000  0.4931940000000 1.0
C      1  0.5560140000000  0.5547500000000  0.4819090000000 1.0
C      1  0.6038770000000  0.5692910000000  0.4699510000000 1.0
C      1  0.5338940000000  0.5154320000000  0.4647110000000 1.0
C      1  0.4540570000000  0.5155400000000  0.4955570000000 1.0
C      1  0.5881260000000  0.5222040000000  0.4458130000000 1.0
C      1  0.5132540000000  0.4645850000000  0.4168730000000 1.0
C      1  0.5243790000000  0.4895530000000  0.5895430000000 1.0
C      1  0.4855530000000  0.4485240000000  0.4091240000000 1.0
C      1  0.5279130000000  0.4026470000000  0.4555110000000 1.0
C      1  0.4800150000000  0.5209660000000  0.4255740000000 1.0
C      1  0.4998120000000  0.4835490000000  0.5560860000000 1.0
C      1  0.3805820000000  0.5491820000000  0.5345240000000 1.0
C      1  0.5920980000000  0.4935120000000  0.4376160000000 1.0
C      1  0.5090870000000  0.5316060000000  0.4661910000000 1.0
C      1  0.4362670000000  0.4451860000000  0.4312710000000 1.0
C      1  0.4804220000000  0.4270930000000  0.5674150000000 1.0
C      1  0.6192740000000  0.4994800000000  0.5035660000000 1.0
C      1  0.4870620000000  0.4661420000000  0.5341770000000 1.0
C      1  0.4037320000000  0.5398820000000  0.5195780000000 1.0
C      1  0.5334070000000  0.4551430000000  0.5143750000000 1.0
C      1  0.5053500000000  0.4172680000000  0.5213360000000 1.0
C      1  0.5090910000000  0.3905710000000  0.4772340000000 1.0
C      1  0.4819270000000  0.5535020000000  0.5021250000000 1.0
C      1  0.5202720000000  0.4933710000000  0.4177300000000 1.0
C      1  0.4156450000000  0.4165270000000  0.4822840000000 1.0
C      1  0.5017310000000  0.5129170000000  0.4092900000000 1.0
C      1  0.4841160000000  0.5226790000000  0.4548000000000 1.0
C      1  0.4871330000000  0.5706350000000  0.4399130000000 1.0
C      1  0.5063750000000  0.4922000000000  0.6134450000000 1.0
C      1  0.5541910000000  0.5968350000000  0.5431900000000 1.0
C      1  0.5864240000000  0.4356380000000  0.5035140000000 1.0
C      1  0.5220530000000  0.4625760000000  0.5751150000000 1.0
C      1  0.3868650000000  0.5168790000000  0.4755970000000 1.0
C      1  0.5022690000000  0.6052080000000  0.5389250000000 1.0
C      1  0.4943740000000  0.5752390000000  0.5773850000000 1.0
C      1  0.4773910000000  0.5947790000000  0.5234050000000 1.0
C      1  0.4410390000000  0.4626320000000  0.5699350000000 1.0
C      1  0.5909260000000  0.4866530000000  0.5449680000000 1.0
C      1  0.4531710000000  0.5192600000000  0.4147900000000 1.0
C      1  0.5479920000000  0.4734610000000  0.5310130000000 1.0
C      1  0.4561620000000  0.4622560000000  0.4144160000000 1.0
C      1  0.5327930000000  0.4081460000000  0.5212180000000 1.0
C      1  0.4684610000000  0.5644840000000  0.5671490000000 1.0
C      1  0.5059290000000  0.4381630000000  0.5832600000000 1.0
C      1  0.5295770000000  0.5934340000000  0.4988010000000 1.0
C      1  0.5419020000000  0.5012310000000  0.4367900000000 1.0
C      1  0.4415380000000  0.4035250000000  0.4861200000000 1.0
C      1  0.4320030000000  0.5554020000000  0.5225080000000 1.0
C      1  0.4158880000000  0.4900700000000  0.5068930000000 1.0
C      1  0.4581870000000  0.4428560000000  0.5823210000000 1.0
C      1  0.5557730000000  0.5248060000000  0.4841350000000 1.0
C      1  0.5378090000000  0.3931440000000  0.4962030000000 1.0
C      1  0.6053090000000  0.5236990000000  0.4956780000000 1.0
C      1  0.5527990000000  0.4578700000000  0.5728220000000 1.0
C      1  0.6035450000000  0.5447980000000  0.5157440000000 1.0
C      1  0.5659560000000  0.5657960000000  0.5467270000000 1.0
C      1  0.4564630000000  0.5009890000000  0.5970140000000 1.0
C      1  0.4374040000000  0.5438050000000  0.4135900000000 1.0
C      1  0.5385530000000  0.5739220000000  0.4455600000000 1.0
C      1  0.4418900000000  0.5424580000000  0.4958950000000 1.0
C      1  0.4554690000000  0.4210690000000  0.5465200000000 1.0
C      1  0.5198400000000  0.4218740000000  0.4356700000000 1.0
C      1  0.3815240000000  0.4940510000000  0.4579210000000 1.0
C      1  0.5018050000000  0.5290910000000  0.5939420000000 1.0
C      1  0.5840130000000  0.5223180000000  0.4752910000000 1.0
C      1  0.5754050000000  0.5681720000000  0.4648680000000 1.0
C      1  0.5106330000000  0.5797190000000  0.4546650000000 1.0
C      1  0.5065930000000  0.5930920000000  0.4810900000000 1.0
C      1  0.4041000000000  0.4633460000000  0.5004870000000 1.0
C      1  0.5143010000000  0.5555430000000  0.5894740000000 1.0
C      1  0.5885610000000  0.5158910000000  0.5560870000000 1.0
C      1  0.4877370000000  0.5125380000000  0.5714850000000 1.0
C      1  0.4016800000000  0.4805180000000  0.4413600000000 1.0
C      1  0.4646500000000  0.5362450000000  0.5757410000000 1.0
C      1  0.4567260000000  0.5861020000000  0.4763650000000 1.0
C      1  0.5354830000000  0.5116510000000  0.5685810000000 1.0
C      1  0.4769980000000  0.4867590000000  0.6133760000000 1.0
C      1  0.4664070000000  0.4176440000000  0.4903770000000 1.0
C      1  0.5394480000000  0.4496790000000  0.4868190000000 1.0
C      1  0.4583020000000  0.4677080000000  0.5253080000000 1.0
C      1  0.6085340000000  0.4792150000000  0.5217250000000 1.0
C      1  0.5644970000000  0.3925430000000  0.4844490000000 1.0
C      1  0.4668430000000  0.4455360000000  0.4907190000000 1.0
C      1  0.5653410000000  0.4816690000000  0.4372470000000 1.0
C      1  0.4158820000000  0.4565150000000  0.4502970000000 1.0
C      1  0.4458320000000  0.4912730000000  0.5706550000000 1.0
C      1  0.4908620000000  0.4053550000000  0.4984690000000 1.0
C      1  0.5432910000000  0.5582740000000  0.5293530000000 1.0
C      1  0.4775920000000  0.5419930000000  0.5279560000000 1.0
C      1  0.5060520000000  0.5509480000000  0.4869630000000 1.0
C      1  0.4868100000000  0.3817020000000  0.4561750000000 1.0
C      1  0.4940090000000  0.4194630000000  0.4215560000000 1.0
C      1  0.4432310000000  0.5076660000000  0.5436570000000 1.0
C      1  0.4118260000000  0.4454510000000  0.4776330000000 1.0
C      1  0.5387060000000  0.5406410000000  0.5775620000000 1.0
C      1  0.5880270000000  0.5427840000000  0.5404750000000 1.0
C      1  0.6093930000000  0.4508730000000  0.5135860000000 1.0
C      1  0.5594740000000  0.5272080000000  0.4326370000000 1.0
C      1  0.5874970000000  0.4078510000000  0.4943400000000 1.0
C      1  0.4666740000000  0.5068710000000  0.4713850000000 1.0
END
