TITL C-862506-1665-871 -0.00167357309989312 125000 -173.961274366296 0 0 32 (C3) n - 1
REM
REM in /home/nfs/bkarasulu/CARBON/AIRSS/Generating-Clusters/TERSOFF/Higher-Symm/FIRE-HFTN
REM
REM
REM
REM
REM
REM ./C.cell (b20cbc046b6831c77cfcea5457e17084)
REM AIRSS Version 0.9.1 bugfix July 2018 build 013d7b7c2542+ Fri, 06 Jul 2018 19:26:36 +0100
REM compiler GCC version 9.2.1 20190827 (Red Hat 9.2.1-1)
REM options -cpp -mtune=generic -march=x86-64 -g -O0 -fpre-include=/usr/include/finclude/math-vector-fortran.h
REM seed 886546819 186791339 -1420035301 -1703132167 1260431657 1475265213 238494848 1269982448 -1019436678 -1751312741 1519130988 278153536 -1227796431 -1328605015 -1930698950 -1307574931 140638331 -154992311 1483381329 549506599 1206099087 431872330 1677051311 -325093896 -1029970265 1490812833 -1589043121 -814666825 203105034 111560523 -2100811071 1346612067 -677764853
REM
CELL 1.54180   50.00000   50.00000   50.00000   90.00000   90.00000   90.00000
LATT -1
SFAC C  
C      1  0.4803810000000  0.4417900000000  0.4600020000000 1.0
C      1  0.4803810000000  0.5659450000000  0.4699110000000 1.0
C      1  0.4803810000000  0.4952860000000  0.5724780000000 1.0
C      1  0.5228970000000  0.5014630000000  0.5436670000000 1.0
C      1  0.5228970000000  0.4636530000000  0.4797580000000 1.0
C      1  0.5228970000000  0.5379050000000  0.4789680000000 1.0
C      1  0.5249420000000  0.5375150000000  0.5089290000000 1.0
C      1  0.5249420000000  0.4757100000000  0.5283480000000 1.0
C      1  0.5249420000000  0.4897950000000  0.4651140000000 1.0
C      1  0.4836520000000  0.5159810000000  0.4534000000000 1.0
C      1  0.4836520000000  0.5345670000000  0.5374640000000 1.0
C      1  0.4836520000000  0.4524730000000  0.5115280000000 1.0
C      1  0.4623360000000  0.4868110000000  0.5512590000000 1.0
C      1  0.4623360000000  0.4644040000000  0.4632720000000 1.0
C      1  0.4623360000000  0.5518060000000  0.4878610000000 1.0
C      1  0.5507270000000  0.5374430000000  0.5231790000000 1.0
C      1  0.5507270000000  0.4634060000000  0.5211600000000 1.0
C      1  0.5507270000000  0.5021730000000  0.4580520000000 1.0
C      1  0.5490600000000  0.5168110000000  0.5438480000000 1.0
C      1  0.5490600000000  0.4558210000000  0.4929590000000 1.0
C      1  0.5490600000000  0.5303880000000  0.4655850000000 1.0
C      1  0.5090310000000  0.4985530000000  0.5694950000000 1.0
C      1  0.5090310000000  0.4427400000000  0.4643230000000 1.0
C      1  0.5090310000000  0.5617280000000  0.4685740000000 1.0
C      1  0.5048710000000  0.5195240000000  0.5233130000000 1.0
C      1  0.5048710000000  0.4722500000000  0.5055760000000 1.0
C      1  0.5048710000000  0.5112470000000  0.4735030000000 1.0
C      1  0.4535830000000  0.5036350000000  0.5291670000000 1.0
C      1  0.4535830000000  0.4751240000000  0.4888880000000 1.0
C      1  0.4535830000000  0.5242620000000  0.4843360000000 1.0
C      1  0.4936680000000  0.5010070000000  0.5007970000000 1.0
C      1  0.4630960000000  0.5010070000000  0.5007970000000 1.0
END
