TITL C-862506-1665-723 -5.76919881123662e-05 125000 -162.398916992998 0 0 34 (D2) n - 1
REM
REM in /home/nfs/bkarasulu/CARBON/AIRSS/Generating-Clusters/TERSOFF/Higher-Symm/FIRE-HFTN
REM
REM
REM
REM
REM
REM ./C.cell (b20cbc046b6831c77cfcea5457e17084)
REM AIRSS Version 0.9.1 bugfix July 2018 build 013d7b7c2542+ Fri, 06 Jul 2018 19:26:36 +0100
REM compiler GCC version 9.2.1 20190827 (Red Hat 9.2.1-1)
REM options -cpp -mtune=generic -march=x86-64 -g -O0 -fpre-include=/usr/include/finclude/math-vector-fortran.h
REM seed 779953651 -1180683418 -1153717953 -2082175480 1970476139 -198528650 424306692 -856060691 697922796 38901405 -1538013218 -1465358178 -952505495 1116154089 -471545173 -1803071498 -91231168 1188127199 285232898 -314685692 -1091885824 173813269 -601490642 -764150527 96260503 -1842187929 -2058915435 -397033363 -1200226889 1491159161 1440973670 -745345151 -359055509
REM
CELL 1.54180   50.00000   50.00000   50.00000   90.00000   90.00000   90.00000
LATT -1
SFAC C  
C      1  0.4575210000000  0.5387250000000  0.4996590000000 1.0
C      1  0.5355290000000  0.4974600000000  0.4601060000000 1.0
C      1  0.4985780000000  0.4559150000000  0.5302230000000 1.0
C      1  0.4575220000000  0.4617580000000  0.4985880000000 1.0
C      1  0.5428680000000  0.5387260000000  0.4985910000000 1.0
C      1  0.5428690000000  0.4617590000000  0.4996620000000 1.0
C      1  0.5355270000000  0.5030250000000  0.5381460000000 1.0
C      1  0.4648610000000  0.4974590000000  0.5381440000000 1.0
C      1  0.4648630000000  0.5030250000000  0.4601040000000 1.0
C      1  0.4985790000000  0.5445690000000  0.4680270000000 1.0
C      1  0.5018130000000  0.4559150000000  0.4680270000000 1.0
C      1  0.5018100000000  0.5445690000000  0.5302230000000 1.0
C      1  0.5260490000000  0.5585430000000  0.5135770000000 1.0
C      1  0.5539820000000  0.5180970000000  0.5175420000000 1.0
C      1  0.5207930000000  0.5301170000000  0.5503860000000 1.0
C      1  0.5260510000000  0.4419420000000  0.4846750000000 1.0
C      1  0.4743390000000  0.5585420000000  0.4846740000000 1.0
C      1  0.4743400000000  0.4419410000000  0.5135750000000 1.0
C      1  0.5539830000000  0.4823880000000  0.4807110000000 1.0
C      1  0.4464080000000  0.5180960000000  0.4807080000000 1.0
C      1  0.4464070000000  0.4823870000000  0.5175390000000 1.0
C      1  0.5207970000000  0.4703670000000  0.4478650000000 1.0
C      1  0.4795960000000  0.5301180000000  0.4478640000000 1.0
C      1  0.4795930000000  0.4703660000000  0.5503850000000 1.0
C      1  0.5001960000000  0.5002420000000  0.4687200000000 1.0
C      1  0.5001950000000  0.4716270000000  0.4991250000000 1.0
C      1  0.5001950000000  0.5288570000000  0.4991250000000 1.0
C      1  0.4796120000000  0.5002420000000  0.4991240000000 1.0
C      1  0.5207770000000  0.5002420000000  0.4991260000000 1.0
C      1  0.5001940000000  0.5002420000000  0.5295300000000 1.0
C      1  0.5312280000000  0.4703650000000  0.5272690000000 1.0
C      1  0.4691600000000  0.5301180000000  0.5272680000000 1.0
C      1  0.5312290000000  0.5301190000000  0.4709830000000 1.0
C      1  0.4691620000000  0.4703650000000  0.4709810000000 1.0
END
