TITL C-862504-1170-216 -6.81754431529725e-05 125000 -265.167935527768 0 0 48 (C4) n - 1
REM
REM in /home/nfs/bkarasulu/CARBON/AIRSS/Generating-Clusters/TERSOFF/Higher-Symm/FIRE-HFTN
REM
REM
REM
REM
REM
REM ./C.cell (b20cbc046b6831c77cfcea5457e17084)
REM AIRSS Version 0.9.1 bugfix July 2018 build 013d7b7c2542+ Fri, 06 Jul 2018 19:26:36 +0100
REM compiler GCC version 9.2.1 20190827 (Red Hat 9.2.1-1)
REM options -cpp -mtune=generic -march=x86-64 -g -O0 -fpre-include=/usr/include/finclude/math-vector-fortran.h
REM seed 1127267934 -1975341806 1997078088 -501675043 -1120621075 1927095508 1887429065 -1591439393 1808877263 -1482861347 1415023304 -40381721 728189513 1072114168 -632612141 -60198552 1988638657 -2110063752 -1717005745 -224216301 95271184 -424002281 -753264667 927635726 -876389451 1877581329 -729930357 382028034 1985288537 -66766222 372772291 1399393554 430865644
REM
CELL 1.54180   50.00000   50.00000   50.00000   90.00000   90.00000   90.00000
LATT -1
SFAC C  
C      1  0.5521860000000  0.5293700000000  0.4628090000000 1.0
C      1  0.5293700000000  0.4478140000000  0.4628090000000 1.0
C      1  0.4478140000000  0.4706300000000  0.4628090000000 1.0
C      1  0.4706300000000  0.5521860000000  0.4628090000000 1.0
C      1  0.4478140000000  0.5293700000000  0.4628090000000 1.0
C      1  0.4706300000000  0.4478140000000  0.4628090000000 1.0
C      1  0.5521860000000  0.4706300000000  0.4628090000000 1.0
C      1  0.5293700000000  0.5521860000000  0.4628090000000 1.0
C      1  0.5615220000000  0.5147210000000  0.4864330000000 1.0
C      1  0.5147210000000  0.4384780000000  0.4864330000000 1.0
C      1  0.4384780000000  0.4852790000000  0.4864330000000 1.0
C      1  0.4852790000000  0.5615220000000  0.4864330000000 1.0
C      1  0.4384780000000  0.5147210000000  0.4864330000000 1.0
C      1  0.4852790000000  0.4384780000000  0.4864330000000 1.0
C      1  0.5615220000000  0.4852790000000  0.4864330000000 1.0
C      1  0.5147210000000  0.5615220000000  0.4864330000000 1.0
C      1  0.5160930000000  0.5389040000000  0.5662770000000 1.0
C      1  0.5389040000000  0.4839070000000  0.5662770000000 1.0
C      1  0.4839070000000  0.4610960000000  0.5662770000000 1.0
C      1  0.4610960000000  0.5160930000000  0.5662770000000 1.0
C      1  0.4839070000000  0.5389040000000  0.5662770000000 1.0
C      1  0.4610960000000  0.4839070000000  0.5662770000000 1.0
C      1  0.5160930000000  0.4610960000000  0.5662770000000 1.0
C      1  0.5389040000000  0.5160930000000  0.5662770000000 1.0
C      1  0.4739290000000  0.5589960000000  0.5131080000000 1.0
C      1  0.5589960000000  0.5260710000000  0.5131080000000 1.0
C      1  0.5260710000000  0.4410040000000  0.5131080000000 1.0
C      1  0.4410040000000  0.4739290000000  0.5131080000000 1.0
C      1  0.5260710000000  0.5589960000000  0.5131080000000 1.0
C      1  0.4410040000000  0.5260710000000  0.5131080000000 1.0
C      1  0.4739290000000  0.4410040000000  0.5131080000000 1.0
C      1  0.5589960000000  0.4739290000000  0.5131080000000 1.0
C      1  0.4852550000000  0.5375070000000  0.4385680000000 1.0
C      1  0.5375070000000  0.5147450000000  0.4385680000000 1.0
C      1  0.5147450000000  0.4624930000000  0.4385680000000 1.0
C      1  0.4624930000000  0.4852550000000  0.4385680000000 1.0
C      1  0.5147450000000  0.5375070000000  0.4385680000000 1.0
C      1  0.4624930000000  0.5147450000000  0.4385680000000 1.0
C      1  0.4852550000000  0.4624930000000  0.4385680000000 1.0
C      1  0.5375070000000  0.4852550000000  0.4385680000000 1.0
C      1  0.5387280000000  0.5162680000000  0.5328050000000 1.0
C      1  0.5162680000000  0.4612720000000  0.5328050000000 1.0
C      1  0.4612720000000  0.4837320000000  0.5328050000000 1.0
C      1  0.4837320000000  0.5387280000000  0.5328050000000 1.0
C      1  0.4612720000000  0.5162680000000  0.5328050000000 1.0
C      1  0.4837320000000  0.4612720000000  0.5328050000000 1.0
C      1  0.5387280000000  0.4837320000000  0.5328050000000 1.0
C      1  0.5162680000000  0.5387280000000  0.5328050000000 1.0
END
