TITL C-862507-1800-1105 0.107040134183382 125000 -17.539053616158 0 0 5 (Td) n - 1
REM
REM in /home/nfs/bkarasulu/CARBON/AIRSS/Generating-Clusters/TERSOFF/Higher-Symm/FIRE-HFTN
REM
REM
REM
REM
REM
REM ./C.cell (b20cbc046b6831c77cfcea5457e17084)
REM AIRSS Version 0.9.1 bugfix July 2018 build 013d7b7c2542+ Fri, 06 Jul 2018 19:26:36 +0100
REM compiler GCC version 9.2.1 20190827 (Red Hat 9.2.1-1)
REM options -cpp -mtune=generic -march=x86-64 -g -O0 -fpre-include=/usr/include/finclude/math-vector-fortran.h
REM seed -1473914594 448814707 -5188500 -2047803300 770083680 681877679 854764539 591774030 -75287603 1165932160 -1890027469 1086872148 445135590 -1765063938 79045457 2128987823 -941054857 -1725191205 802782299 1616206198 -520481204 2102620530 -202082177 -464092728 951237060 1410968479 761927830 1074312640 113127517 2005098039 -1796921217 -1234839722 337739742
REM
CELL 1.54180   50.00000   50.00000   50.00000   90.00000   90.00000   90.00000
LATT -1
SFAC C  
C      1  0.4788840000000  0.4937180000000  0.4766380000000 1.0
C      1  0.5133900000000  0.5244430000000  0.4923410000000 1.0
C      1  0.4788840000000  0.5087400000000  0.5230660000000 1.0
C      1  0.5133900000000  0.4780150000000  0.5073630000000 1.0
C      1  0.4961370000000  0.5012290000000  0.4998520000000 1.0
END
