TITL C-862133-5440-1471 8.82797280346758 125000 -805.030349783374 0 0 138 (C1) n - 1
REM
REM in /home/nfs/bkarasulu/CARBON/AIRSS/Generating-Clusters/TERSOFF/Higher-Symm/FIRE-HFTN
REM
REM
REM
REM
REM
REM ./C.cell (b20cbc046b6831c77cfcea5457e17084)
REM AIRSS Version 0.9.1 bugfix July 2018 build 013d7b7c2542+ Fri, 06 Jul 2018 19:26:36 +0100
REM compiler GCC version 9.2.1 20190827 (Red Hat 9.2.1-1)
REM options -cpp -mtune=generic -march=x86-64 -g -O0 -fpre-include=/usr/include/finclude/math-vector-fortran.h
REM seed 865432167 666259906 848345401 -427532278 827951675 -1738658049 -12086082 573059778 1623966516 1355506449 1917281726 -1106169049 -1692192897 -44365402 1728190186 284958849 775043159 -393612 1750679794 -1103570321 261338790 -246187867 2111867542 -896555379 1668243268 1319964917 -1307897520 134211840 967251822 -1470490613 2071419993 -227402960 -1984132521
REM
CELL 1.54180   50.00000   50.00000   50.00000   90.00000   90.00000   90.00000
LATT -1
SFAC C  
C      1  0.5180140000000  0.4330250000000  0.4581650000000 1.0
C      1  0.4853160000000  0.5868920000000  0.4568260000000 1.0
C      1  0.4995970000000  0.5330930000000  0.4254860000000 1.0
C      1  0.4477520000000  0.4439060000000  0.4227160000000 1.0
C      1  0.5368110000000  0.4193430000000  0.5995450000000 1.0
C      1  0.5606010000000  0.4460490000000  0.4735680000000 1.0
C      1  0.4788730000000  0.5541620000000  0.5813420000000 1.0
C      1  0.5504110000000  0.3982620000000  0.4696390000000 1.0
C      1  0.4191260000000  0.5008890000000  0.4392380000000 1.0
C      1  0.4935070000000  0.5110110000000  0.4696810000000 1.0
C      1  0.4707660000000  0.4628800000000  0.6091080000000 1.0
C      1  0.6010100000000  0.5258130000000  0.5159240000000 1.0
C      1  0.4060180000000  0.5402790000000  0.4827660000000 1.0
C      1  0.4584430000000  0.5879930000000  0.5439510000000 1.0
C      1  0.5903240000000  0.5541050000000  0.5185930000000 1.0
C      1  0.4447050000000  0.4636280000000  0.5510910000000 1.0
C      1  0.5470250000000  0.4251150000000  0.4570460000000 1.0
C      1  0.5103690000000  0.5585890000000  0.4751240000000 1.0
C      1  0.5125750000000  0.5154290000000  0.4912600000000 1.0
C      1  0.5403660000000  0.4361150000000  0.4067480000000 1.0
C      1  0.6004480000000  0.5142210000000  0.4649980000000 1.0
C      1  0.4271070000000  0.4816290000000  0.5644450000000 1.0
C      1  0.5500110000000  0.5746220000000  0.5648480000000 1.0
C      1  0.5429380000000  0.5900740000000  0.5403410000000 1.0
C      1  0.5970440000000  0.5646430000000  0.4579660000000 1.0
C      1  0.5867650000000  0.5036220000000  0.5641640000000 1.0
C      1  0.5042590000000  0.5299640000000  0.5423700000000 1.0
C      1  0.4667270000000  0.4730390000000  0.5353990000000 1.0
C      1  0.5426440000000  0.5514040000000  0.4048840000000 1.0
C      1  0.4372290000000  0.5760830000000  0.5266530000000 1.0
C      1  0.4285910000000  0.5221390000000  0.5396280000000 1.0
C      1  0.4205090000000  0.5520270000000  0.5363890000000 1.0
C      1  0.5654150000000  0.4585820000000  0.5492490000000 1.0
C      1  0.5341750000000  0.5411100000000  0.5982570000000 1.0
C      1  0.6140840000000  0.5172090000000  0.4908340000000 1.0
C      1  0.5850690000000  0.5253020000000  0.3996590000000 1.0
C      1  0.4896240000000  0.5212030000000  0.4002670000000 1.0
C      1  0.4930930000000  0.3844260000000  0.5479560000000 1.0
C      1  0.5731460000000  0.5735840000000  0.4724630000000 1.0
C      1  0.4436400000000  0.4070540000000  0.4535190000000 1.0
C      1  0.3812470000000  0.4823100000000  0.5068190000000 1.0
C      1  0.5309080000000  0.4790860000000  0.5824940000000 1.0
C      1  0.5782460000000  0.4943930000000  0.4615830000000 1.0
C      1  0.4830730000000  0.5988090000000  0.5234280000000 1.0
C      1  0.4923110000000  0.4821740000000  0.5462200000000 1.0
C      1  0.5847730000000  0.4777480000000  0.5812160000000 1.0
C      1  0.4876550000000  0.5519510000000  0.5355130000000 1.0
C      1  0.5578060000000  0.4389070000000  0.6043040000000 1.0
C      1  0.5560430000000  0.4256980000000  0.4287120000000 1.0
C      1  0.4994420000000  0.5139500000000  0.6068470000000 1.0
C      1  0.5245250000000  0.5484450000000  0.4273210000000 1.0
C      1  0.5693300000000  0.5680750000000  0.5011660000000 1.0
C      1  0.4618340000000  0.4794630000000  0.3893560000000 1.0
C      1  0.5946100000000  0.5025500000000  0.5351080000000 1.0
C      1  0.4345960000000  0.4369230000000  0.5467130000000 1.0
C      1  0.5298120000000  0.5606200000000  0.4535660000000 1.0
C      1  0.4424560000000  0.4685190000000  0.4083270000000 1.0
C      1  0.5487320000000  0.4532520000000  0.5006100000000 1.0
C      1  0.4197470000000  0.4841240000000  0.4159730000000 1.0
C      1  0.3693350000000  0.5549990000000  0.4516160000000 1.0
C      1  0.5018750000000  0.4258160000000  0.4811760000000 1.0
C      1  0.5605660000000  0.4417760000000  0.5259740000000 1.0
C      1  0.5036420000000  0.4676590000000  0.5702970000000 1.0
C      1  0.3719640000000  0.5099650000000  0.5072140000000 1.0
C      1  0.5246240000000  0.4993510000000  0.6040470000000 1.0
C      1  0.5885070000000  0.4788730000000  0.5206340000000 1.0
C      1  0.5702120000000  0.5520540000000  0.5553010000000 1.0
C      1  0.4261090000000  0.5014510000000  0.5155670000000 1.0
C      1  0.4406620000000  0.5517360000000  0.4022490000000 1.0
C      1  0.4683810000000  0.4237100000000  0.4149500000000 1.0
C      1  0.5412040000000  0.5165120000000  0.4874670000000 1.0
C      1  0.5003030000000  0.5734700000000  0.5903430000000 1.0
C      1  0.5315740000000  0.5331570000000  0.5496830000000 1.0
C      1  0.5519170000000  0.5050850000000  0.4635660000000 1.0
C      1  0.3944880000000  0.5414710000000  0.4566820000000 1.0
C      1  0.5494540000000  0.4827340000000  0.5553650000000 1.0
C      1  0.4414510000000  0.5071830000000  0.4900500000000 1.0
C      1  0.5318670000000  0.6061790000000  0.4683210000000 1.0
C      1  0.4810180000000  0.5213680000000  0.5843650000000 1.0
C      1  0.4962130000000  0.5729570000000  0.5194560000000 1.0
C      1  0.4145790000000  0.5425540000000  0.4108010000000 1.0
C      1  0.4874910000000  0.4917190000000  0.3967290000000 1.0
C      1  0.4088860000000  0.4494580000000  0.5343530000000 1.0
C      1  0.5113850000000  0.4749920000000  0.3968760000000 1.0
C      1  0.4545060000000  0.5088470000000  0.5886930000000 1.0
C      1  0.5294510000000  0.5681240000000  0.5890780000000 1.0
C      1  0.4890980000000  0.6159260000000  0.4988260000000 1.0
C      1  0.5521180000000  0.5420990000000  0.5312430000000 1.0
C      1  0.4817170000000  0.5387390000000  0.3784190000000 1.0
C      1  0.4495080000000  0.4189900000000  0.5658120000000 1.0
C      1  0.4687640000000  0.5611040000000  0.5549610000000 1.0
C      1  0.4679530000000  0.4929790000000  0.4976730000000 1.0
C      1  0.5441470000000  0.3920280000000  0.4973420000000 1.0
C      1  0.4850120000000  0.5314660000000  0.4508910000000 1.0
C      1  0.4658890000000  0.4009080000000  0.4343220000000 1.0
C      1  0.6009600000000  0.5375540000000  0.4469960000000 1.0
C      1  0.5217310000000  0.3756910000000  0.5060170000000 1.0
C      1  0.4326610000000  0.5095800000000  0.5672760000000 1.0
C      1  0.5016490000000  0.6053470000000  0.4732230000000 1.0
C      1  0.4529930000000  0.4867780000000  0.6084860000000 1.0
C      1  0.4907790000000  0.5106110000000  0.5569230000000 1.0
C      1  0.5372660000000  0.4951050000000  0.5329670000000 1.0
C      1  0.5598720000000  0.5273400000000  0.5076240000000 1.0
C      1  0.4159520000000  0.4506260000000  0.4654040000000 1.0
C      1  0.5669380000000  0.4768510000000  0.5023000000000 1.0
C      1  0.4848350000000  0.4511410000000  0.5858200000000 1.0
C      1  0.5726040000000  0.5269660000000  0.5729670000000 1.0
C      1  0.4346800000000  0.4909440000000  0.4632680000000 1.0
C      1  0.4258170000000  0.4607620000000  0.4910940000000 1.0
C      1  0.4444910000000  0.5787290000000  0.4987780000000 1.0
C      1  0.4092820000000  0.5284610000000  0.4356870000000 1.0
C      1  0.4785050000000  0.5578100000000  0.4657260000000 1.0
C      1  0.4088460000000  0.4735340000000  0.5139780000000 1.0
C      1  0.5200220000000  0.4614510000000  0.5043840000000 1.0
C      1  0.4833650000000  0.4435590000000  0.4943880000000 1.0
C      1  0.4773470000000  0.4241840000000  0.5752100000000 1.0
C      1  0.4933690000000  0.4756490000000  0.4470330000000 1.0
C      1  0.4728420000000  0.4678270000000  0.4828100000000 1.0
C      1  0.5131730000000  0.4479590000000  0.4095620000000 1.0
C      1  0.5811710000000  0.4647970000000  0.4621810000000 1.0
C      1  0.4953090000000  0.4173210000000  0.3726190000000 1.0
C      1  0.5586460000000  0.4653770000000  0.5924210000000 1.0
C      1  0.6053150000000  0.5338690000000  0.4184870000000 1.0
C      1  0.5172470000000  0.5698070000000  0.5016830000000 1.0
C      1  0.5269000000000  0.4117520000000  0.5733110000000 1.0
C      1  0.5076560000000  0.4519510000000  0.4385590000000 1.0
C      1  0.5430370000000  0.5250230000000  0.5764080000000 1.0
C      1  0.4316390000000  0.4338650000000  0.4467320000000 1.0
C      1  0.5484290000000  0.5824440000000  0.4581790000000 1.0
C      1  0.3893160000000  0.5334100000000  0.5056790000000 1.0
C      1  0.4347450000000  0.5348530000000  0.4834480000000 1.0
C      1  0.4989230000000  0.4058120000000  0.5668950000000 1.0
C      1  0.4921010000000  0.4294430000000  0.3988440000000 1.0
C      1  0.5132760000000  0.4833110000000  0.5232070000000 1.0
C      1  0.4537800000000  0.5566630000000  0.4832420000000 1.0
C      1  0.4537110000000  0.4683890000000  0.4606410000000 1.0
C      1  0.4979690000000  0.3858430000000  0.5193280000000 1.0
C      1  0.5437080000000  0.5786580000000  0.5124830000000 1.0
END
