TITL C-862506-1665-840 73.21080726271 125000 -556.080449854827 0 0 96 (Ci) n - 1
REM
REM in /home/nfs/bkarasulu/CARBON/AIRSS/Generating-Clusters/TERSOFF/Higher-Symm/FIRE-HFTN
REM
REM
REM
REM
REM
REM ./C.cell (b20cbc046b6831c77cfcea5457e17084)
REM AIRSS Version 0.9.1 bugfix July 2018 build 013d7b7c2542+ Fri, 06 Jul 2018 19:26:36 +0100
REM compiler GCC version 9.2.1 20190827 (Red Hat 9.2.1-1)
REM options -cpp -mtune=generic -march=x86-64 -g -O0 -fpre-include=/usr/include/finclude/math-vector-fortran.h
REM seed 1468996016 -772653122 899695205 -650763469 2072684968 599093393 556143321 649667222 -247048350 -1694833834 -1652304786 -1656507557 -2036462326 1974949836 -1105741764 -472718296 110276202 -382253545 -461148958 580826347 -1139644713 999849954 -2113438402 167563231 1149238209 -11125672 963333571 -1625552320 -1064564687 -2040723264 1943667279 720822313 1947189294
REM
CELL 1.54180   50.00000   50.00000   50.00000   90.00000   90.00000   90.00000
LATT -1
SFAC C  
C      1  0.4289730000000  0.5548940000000  0.4986080000000 1.0
C      1  0.5710270000000  0.4451060000000  0.5013920000000 1.0
C      1  0.4355330000000  0.4404510000000  0.5306180000000 1.0
C      1  0.5644670000000  0.5595490000000  0.4693820000000 1.0
C      1  0.4615530000000  0.4539520000000  0.4470060000000 1.0
C      1  0.5384470000000  0.5460480000000  0.5529940000000 1.0
C      1  0.5787380000000  0.5346400000000  0.4612210000000 1.0
C      1  0.4212620000000  0.4653600000000  0.5387790000000 1.0
C      1  0.4927790000000  0.5397550000000  0.5619850000000 1.0
C      1  0.5072210000000  0.4602450000000  0.4380150000000 1.0
C      1  0.5332850000000  0.4685880000000  0.4482980000000 1.0
C      1  0.4667150000000  0.5314120000000  0.5517020000000 1.0
C      1  0.5033150000000  0.5197090000000  0.4701880000000 1.0
C      1  0.4966850000000  0.4802910000000  0.5298120000000 1.0
C      1  0.4858240000000  0.5690150000000  0.5622650000000 1.0
C      1  0.5141760000000  0.4309850000000  0.4377350000000 1.0
C      1  0.5508140000000  0.4727430000000  0.5461150000000 1.0
C      1  0.4491860000000  0.5272570000000  0.4538850000000 1.0
C      1  0.4016330000000  0.4793670000000  0.5205970000000 1.0
C      1  0.5983670000000  0.5206330000000  0.4794030000000 1.0
C      1  0.4583630000000  0.4287710000000  0.4634900000000 1.0
C      1  0.5416370000000  0.5712290000000  0.5365100000000 1.0
C      1  0.5867040000000  0.4821340000000  0.5134960000000 1.0
C      1  0.4132960000000  0.5178660000000  0.4865040000000 1.0
C      1  0.3952600000000  0.5094050000000  0.5272000000000 1.0
C      1  0.6047400000000  0.4905950000000  0.4728000000000 1.0
C      1  0.5089180000000  0.4171200000000  0.4623460000000 1.0
C      1  0.4910820000000  0.5828800000000  0.5376540000000 1.0
C      1  0.4809460000000  0.4120290000000  0.4721940000000 1.0
C      1  0.5190540000000  0.5879710000000  0.5278060000000 1.0
C      1  0.5481390000000  0.4992610000000  0.5327130000000 1.0
C      1  0.4518610000000  0.5007390000000  0.4672870000000 1.0
C      1  0.4433270000000  0.4769550000000  0.4511380000000 1.0
C      1  0.5566730000000  0.5230450000000  0.5488620000000 1.0
C      1  0.5144630000000  0.5968190000000  0.4995170000000 1.0
C      1  0.4855370000000  0.4031810000000  0.5004830000000 1.0
C      1  0.5653890000000  0.5018960000000  0.5086160000000 1.0
C      1  0.4346110000000  0.4981040000000  0.4913840000000 1.0
C      1  0.5089270000000  0.5492660000000  0.5150300000000 1.0
C      1  0.4910730000000  0.4507340000000  0.4849700000000 1.0
C      1  0.4477780000000  0.5021860000000  0.5188050000000 1.0
C      1  0.5522220000000  0.4978140000000  0.4811950000000 1.0
C      1  0.4873000000000  0.4663340000000  0.4605320000000 1.0
C      1  0.5127000000000  0.5336660000000  0.5394680000000 1.0
C      1  0.4960500000000  0.5806430000000  0.4430040000000 1.0
C      1  0.5039500000000  0.4193570000000  0.5569960000000 1.0
C      1  0.4420460000000  0.5745180000000  0.5179090000000 1.0
C      1  0.5579540000000  0.4254820000000  0.4820910000000 1.0
C      1  0.5957180000000  0.4650190000000  0.4912870000000 1.0
C      1  0.4042820000000  0.5349810000000  0.5087130000000 1.0
C      1  0.5643520000000  0.4213440000000  0.4306610000000 1.0
C      1  0.4356480000000  0.5786560000000  0.5693390000000 1.0
C      1  0.4780340000000  0.5899970000000  0.4634770000000 1.0
C      1  0.5219660000000  0.4100030000000  0.5365230000000 1.0
C      1  0.5608100000000  0.4477210000000  0.5307620000000 1.0
C      1  0.4391900000000  0.5522790000000  0.4692380000000 1.0
C      1  0.5049660000000  0.5001870000000  0.4057090000000 1.0
C      1  0.4950340000000  0.4998130000000  0.5942910000000 1.0
C      1  0.4139610000000  0.4763580000000  0.4939310000000 1.0
C      1  0.5860390000000  0.5236420000000  0.5060690000000 1.0
C      1  0.5113620000000  0.5316370000000  0.4431530000000 1.0
C      1  0.4886380000000  0.4683630000000  0.5568470000000 1.0
C      1  0.4419920000000  0.4851730000000  0.5428240000000 1.0
C      1  0.5580080000000  0.5148270000000  0.4571760000000 1.0
C      1  0.4653040000000  0.4954270000000  0.5891570000000 1.0
C      1  0.5346960000000  0.5045730000000  0.4108430000000 1.0
C      1  0.4857270000000  0.5942150000000  0.4908790000000 1.0
C      1  0.5142730000000  0.4057850000000  0.5091210000000 1.0
C      1  0.4818920000000  0.4958880000000  0.4701000000000 1.0
C      1  0.5181080000000  0.5041120000000  0.5299000000000 1.0
C      1  0.4650570000000  0.4477250000000  0.4182270000000 1.0
C      1  0.5349430000000  0.5522750000000  0.5817730000000 1.0
C      1  0.5307830000000  0.4563780000000  0.4973740000000 1.0
C      1  0.4692170000000  0.5436220000000  0.5026260000000 1.0
C      1  0.4816970000000  0.4586150000000  0.5111210000000 1.0
C      1  0.5183030000000  0.5413850000000  0.4888790000000 1.0
C      1  0.5082400000000  0.4764980000000  0.5777160000000 1.0
C      1  0.4917600000000  0.5235020000000  0.4222840000000 1.0
C      1  0.4832320000000  0.4391300000000  0.5526840000000 1.0
C      1  0.5167680000000  0.5608700000000  0.4473160000000 1.0
C      1  0.4633710000000  0.5780140000000  0.5783780000000 1.0
C      1  0.5366290000000  0.4219860000000  0.4216220000000 1.0
C      1  0.4983660000000  0.4727080000000  0.4127170000000 1.0
C      1  0.5016340000000  0.5272920000000  0.5872830000000 1.0
C      1  0.4271450000000  0.5831740000000  0.5416790000000 1.0
C      1  0.5728550000000  0.4168260000000  0.4583210000000 1.0
C      1  0.4611420000000  0.5260940000000  0.5241370000000 1.0
C      1  0.5388580000000  0.4739060000000  0.4758630000000 1.0
C      1  0.5375140000000  0.5191510000000  0.4362500000000 1.0
C      1  0.4624860000000  0.4808490000000  0.5637500000000 1.0
C      1  0.5372500000000  0.4709760000000  0.5729530000000 1.0
C      1  0.4627500000000  0.5290240000000  0.4270470000000 1.0
C      1  0.5347970000000  0.5612970000000  0.4718210000000 1.0
C      1  0.4652030000000  0.4387030000000  0.5281790000000 1.0
C      1  0.5291520000000  0.4163550000000  0.4847690000000 1.0
C      1  0.4708480000000  0.5836450000000  0.5152310000000 1.0
END
