TITL C-862505-1648-551 246708.592837923 125000 -676.207453654259 0 0 120 (C1) n - 1
REM
REM in /home/nfs/bkarasulu/CARBON/AIRSS/Generating-Clusters/TERSOFF/Higher-Symm/FIRE-HFTN
REM
REM
REM
REM
REM
REM ./C.cell (b20cbc046b6831c77cfcea5457e17084)
REM AIRSS Version 0.9.1 bugfix July 2018 build 013d7b7c2542+ Fri, 06 Jul 2018 19:26:36 +0100
REM compiler GCC version 9.2.1 20190827 (Red Hat 9.2.1-1)
REM options -cpp -mtune=generic -march=x86-64 -g -O0 -fpre-include=/usr/include/finclude/math-vector-fortran.h
REM seed -1633120948 -169838539 -407050816 -1567168242 1856908007 696292814 331282547 -1341508051 -901244838 849316558 -751785987 1186838848 -970303775 2102234436 -477016663 -814434171 -1501512598 -42721498 1297019730 1384107654 -432409239 635205000 943604937 -1889546849 1936447950 -2058002336 -358318924 1194077189 267697985 -528688506 -1831253191 -65253986 -445927834
REM
CELL 1.54180   50.00000   50.00000   50.00000   90.00000   90.00000   90.00000
LATT -1
SFAC C  
C      1  0.5407720000000  0.4138150000000  0.4258930000000 1.0
C      1  0.5378380000000  0.5880640000000  0.4265220000000 1.0
C      1  0.5284840000000  0.4296700000000  0.4050330000000 1.0
C      1  0.5275780000000  0.5696080000000  0.4066770000000 1.0
C      1  0.5273330000000  0.5134740000000  0.4903240000000 1.0
C      1  0.5282730000000  0.4849050000000  0.4902150000000 1.0
C      1  0.4593230000000  0.4228550000000  0.4715130000000 1.0
C      1  0.4571360000000  0.5789830000000  0.4720850000000 1.0
C      1  0.4433790000000  0.4854310000000  0.5341270000000 1.0
C      1  0.4432170000000  0.5149370000000  0.5343450000000 1.0
C      1  0.4801860000000  0.5368560000000  0.4503080000000 1.0
C      1  0.4819970000000  0.4654200000000  0.4482900000000 1.0
C      1  0.5524380000000  0.5419160000000  0.4414160000000 1.0
C      1  0.5549590000000  0.4554160000000  0.4425710000000 1.0
C      1  0.5942640000000  0.4277430000000  0.5123490000000 1.0
C      1  0.5936620000000  0.5716510000000  0.5102080000000 1.0
C      1  0.5813810000000  0.5302380000000  0.4461900000000 1.0
C      1  0.5836500000000  0.4675080000000  0.4471670000000 1.0
C      1  0.4859160000000  0.5147590000000  0.5556630000000 1.0
C      1  0.4859790000000  0.4854960000000  0.5556190000000 1.0
C      1  0.4354970000000  0.4209420000000  0.5601710000000 1.0
C      1  0.4353760000000  0.5791350000000  0.5611020000000 1.0
C      1  0.4016970000000  0.4832140000000  0.5058360000000 1.0
C      1  0.4011770000000  0.5170610000000  0.5063790000000 1.0
C      1  0.5158150000000  0.5522320000000  0.5417970000000 1.0
C      1  0.5160660000000  0.4479700000000  0.5420830000000 1.0
C      1  0.4811390000000  0.4343920000000  0.4558720000000 1.0
C      1  0.4789730000000  0.5674510000000  0.4565400000000 1.0
C      1  0.4487450000000  0.5220880000000  0.5061260000000 1.0
C      1  0.4492860000000  0.4786060000000  0.5058920000000 1.0
C      1  0.5067680000000  0.5766310000000  0.4638660000000 1.0
C      1  0.5089510000000  0.4254430000000  0.4636210000000 1.0
C      1  0.4474080000000  0.4716440000000  0.5802690000000 1.0
C      1  0.4473450000000  0.5282460000000  0.5805390000000 1.0
C      1  0.5662790000000  0.4330140000000  0.4636330000000 1.0
C      1  0.5639710000000  0.5648260000000  0.4624330000000 1.0
C      1  0.4603030000000  0.5547250000000  0.5377770000000 1.0
C      1  0.4606130000000  0.4456440000000  0.5373640000000 1.0
C      1  0.5040680000000  0.5113290000000  0.3753730000000 1.0
C      1  0.4866760000000  0.4867370000000  0.3726580000000 1.0
C      1  0.5517130000000  0.4233430000000  0.4879390000000 1.0
C      1  0.5502620000000  0.5756600000000  0.4869270000000 1.0
C      1  0.4157640000000  0.5269170000000  0.5316770000000 1.0
C      1  0.4160610000000  0.4733530000000  0.5311570000000 1.0
C      1  0.5979080000000  0.4521290000000  0.4966070000000 1.0
C      1  0.5967830000000  0.5468470000000  0.4950010000000 1.0
C      1  0.4604390000000  0.5284570000000  0.5537490000000 1.0
C      1  0.4605570000000  0.4717580000000  0.5535060000000 1.0
C      1  0.5267110000000  0.4747640000000  0.5833500000000 1.0
C      1  0.5266970000000  0.5256630000000  0.5831610000000 1.0
C      1  0.4015000000000  0.5350360000000  0.5702830000000 1.0
C      1  0.4016750000000  0.4647940000000  0.5696210000000 1.0
C      1  0.5152700000000  0.4014350000000  0.5077840000000 1.0
C      1  0.5151190000000  0.5990700000000  0.5078890000000 1.0
C      1  0.5530860000000  0.4851350000000  0.5745800000000 1.0
C      1  0.5530370000000  0.5151920000000  0.5743970000000 1.0
C      1  0.4562350000000  0.5184740000000  0.4494730000000 1.0
C      1  0.4573060000000  0.4840070000000  0.4478440000000 1.0
C      1  0.5940770000000  0.5517040000000  0.4656210000000 1.0
C      1  0.5963770000000  0.4465520000000  0.4672120000000 1.0
C      1  0.5034690000000  0.4453480000000  0.4081830000000 1.0
C      1  0.5023010000000  0.5544680000000  0.4091960000000 1.0
C      1  0.5024540000000  0.5326210000000  0.4316000000000 1.0
C      1  0.5063720000000  0.4678850000000  0.4299150000000 1.0
C      1  0.5982680000000  0.4845050000000  0.4285130000000 1.0
C      1  0.5962220000000  0.5137090000000  0.4272840000000 1.0
C      1  0.5521020000000  0.5832350000000  0.5363550000000 1.0
C      1  0.5519600000000  0.4164990000000  0.5373130000000 1.0
C      1  0.4350540000000  0.4387240000000  0.5170110000000 1.0
C      1  0.4344080000000  0.5619540000000  0.5180570000000 1.0
C      1  0.5153030000000  0.4859590000000  0.6076810000000 1.0
C      1  0.5153330000000  0.5146420000000  0.6075940000000 1.0
C      1  0.5627960000000  0.5303530000000  0.5509700000000 1.0
C      1  0.5629980000000  0.4696690000000  0.5513770000000 1.0
C      1  0.5674370000000  0.4163770000000  0.5123130000000 1.0
C      1  0.5668020000000  0.5829330000000  0.5107950000000 1.0
C      1  0.5197960000000  0.5748560000000  0.4904900000000 1.0
C      1  0.5211090000000  0.4257150000000  0.4907590000000 1.0
C      1  0.4702150000000  0.4201310000000  0.5518020000000 1.0
C      1  0.4702600000000  0.5801390000000  0.5522490000000 1.0
C      1  0.4555250000000  0.5787970000000  0.5012310000000 1.0
C      1  0.4575650000000  0.4234460000000  0.5005880000000 1.0
C      1  0.4181340000000  0.4332970000000  0.4899990000000 1.0
C      1  0.4164310000000  0.5667650000000  0.4917010000000 1.0
C      1  0.4207580000000  0.5156010000000  0.5824430000000 1.0
C      1  0.4207740000000  0.4841520000000  0.5822290000000 1.0
C      1  0.5750480000000  0.5281470000000  0.5023790000000 1.0
C      1  0.5761910000000  0.4712840000000  0.5028140000000 1.0
C      1  0.4912530000000  0.5119450000000  0.4153590000000 1.0
C      1  0.5043770000000  0.4885840000000  0.4106800000000 1.0
C      1  0.5745750000000  0.4848550000000  0.5285700000000 1.0
C      1  0.5743190000000  0.5149520000000  0.5283280000000 1.0
C      1  0.4603080000000  0.4597870000000  0.6034110000000 1.0
C      1  0.4602160000000  0.5400010000000  0.6037480000000 1.0
C      1  0.4320360000000  0.4727220000000  0.4608460000000 1.0
C      1  0.4307030000000  0.5285060000000  0.4617680000000 1.0
C      1  0.4826030000000  0.4300440000000  0.4248190000000 1.0
C      1  0.4807470000000  0.5704160000000  0.4250610000000 1.0
C      1  0.5129150000000  0.4491890000000  0.5106610000000 1.0
C      1  0.5115720000000  0.5513860000000  0.5104360000000 1.0
C      1  0.4941240000000  0.4579120000000  0.3807750000000 1.0
C      1  0.4940940000000  0.5390110000000  0.3833710000000 1.0
C      1  0.4281390000000  0.4852390000000  0.4863270000000 1.0
C      1  0.4273840000000  0.5152750000000  0.4868540000000 1.0
C      1  0.5307400000000  0.4703420000000  0.4463720000000 1.0
C      1  0.5280550000000  0.5267300000000  0.4448870000000 1.0
C      1  0.5025300000000  0.5788660000000  0.5512490000000 1.0
C      1  0.5023900000000  0.4213990000000  0.5511190000000 1.0
C      1  0.4226160000000  0.5561090000000  0.4651040000000 1.0
C      1  0.4244190000000  0.4448310000000  0.4636350000000 1.0
C      1  0.5228420000000  0.4028200000000  0.5361900000000 1.0
C      1  0.5231310000000  0.5972650000000  0.5360740000000 1.0
C      1  0.5454510000000  0.5553380000000  0.5453650000000 1.0
C      1  0.5456120000000  0.4445810000000  0.5461330000000 1.0
C      1  0.5502860000000  0.5304280000000  0.4870230000000 1.0
C      1  0.5522110000000  0.4694940000000  0.4861930000000 1.0
C      1  0.5091630000000  0.5304100000000  0.5601050000000 1.0
C      1  0.5092610000000  0.4698780000000  0.5602580000000 1.0
C      1  0.4129550000000  0.5570850000000  0.5469190000000 1.0
C      1  0.4133960000000  0.4430240000000  0.5458950000000 1.0
END
