TITL C-862127-1500-346 2.37932764011408e-06 125000 -26.7711942286535 0 0 8 (D(inf)h) n - 1
REM
REM in /home/nfs/bkarasulu/CARBON/AIRSS/Generating-Clusters/TERSOFF/Higher-Symm/FIRE-HFTN
REM
REM
REM
REM
REM
REM ./C.cell (b20cbc046b6831c77cfcea5457e17084)
REM AIRSS Version 0.9.1 bugfix July 2018 build 013d7b7c2542+ Fri, 06 Jul 2018 19:26:36 +0100
REM compiler GCC version 9.2.1 20190827 (Red Hat 9.2.1-1)
REM options -cpp -mtune=generic -march=x86-64 -g -O0 -fpre-include=/usr/include/finclude/math-vector-fortran.h
REM seed -420501109 -1361505850 -89919948 -92222068 144634911 231475243 -1339712191 -49211158 -1306916773 94125770 125077964 581127865 1268135613 1090558499 518122507 129987238 -1682790179 447270875 -662678812 -45615129 -1001908264 -1332782704 -1880645930 -17733456 134184398 359483729 -1260554688 1766933080 -76896888 956023150 -997744479 -359564562 680424778
REM
CELL 1.54180   50.00000   50.00000   50.00000   90.00000   90.00000   90.00000
LATT -1
SFAC C  
C      1  0.4845060000000  0.5002990000000  0.4996500000000 1.0
C      1  0.4225290000000  0.5002990000000  0.4996500000000 1.0
C      1  0.6074040000000  0.5002990000000  0.4996500000000 1.0
C      1  0.5464830000000  0.5002990000000  0.4996500000000 1.0
C      1  0.3925960000000  0.5002990000000  0.4996500000000 1.0
C      1  0.5774710000000  0.5002990000000  0.4996500000000 1.0
C      1  0.5154940000000  0.5002990000000  0.4996500000000 1.0
C      1  0.4535170000000  0.5002990000000  0.4996500000000 1.0
END
