TITL C-862132-7359-528 53.968875861513 125000 -927.383977243482 0 0 156 (C2) n - 1
REM
REM in /home/nfs/bkarasulu/CARBON/AIRSS/Generating-Clusters/TERSOFF/Higher-Symm/FIRE-HFTN
REM
REM
REM
REM
REM
REM ./C.cell (b20cbc046b6831c77cfcea5457e17084)
REM AIRSS Version 0.9.1 bugfix July 2018 build 013d7b7c2542+ Fri, 06 Jul 2018 19:26:36 +0100
REM compiler GCC version 9.2.1 20190827 (Red Hat 9.2.1-1)
REM options -cpp -mtune=generic -march=x86-64 -g -O0 -fpre-include=/usr/include/finclude/math-vector-fortran.h
REM seed -2090609421 967440588 -1849826060 141817280 -1444133863 727178023 773954970 1106807388 631739189 -219678816 144185396 -1094666216 1447242502 -72362534 1475548061 1487872209 216405037 653027164 -1039726366 1515045796 392050399 971969149 992327849 976673784 -1714077838 375842102 -1130045306 1117088465 615334852 -852223258 -444973798 1257665950 1785629409
REM
CELL 1.54180   50.00000   50.00000   50.00000   90.00000   90.00000   90.00000
LATT -1
SFAC C  
C      1  0.4935370000000  0.4807260000000  0.6110790000000 1.0
C      1  0.4935370000000  0.5192740000000  0.3889210000000 1.0
C      1  0.4492370000000  0.4151230000000  0.4502010000000 1.0
C      1  0.4492370000000  0.5848770000000  0.5497990000000 1.0
C      1  0.5405150000000  0.4976340000000  0.5381590000000 1.0
C      1  0.5405150000000  0.5023660000000  0.4618420000000 1.0
C      1  0.5071730000000  0.5064490000000  0.4869890000000 1.0
C      1  0.5071730000000  0.4935510000000  0.5130110000000 1.0
C      1  0.5625250000000  0.4697300000000  0.4989200000000 1.0
C      1  0.5625250000000  0.5302700000000  0.5010800000000 1.0
C      1  0.4498200000000  0.4184120000000  0.5837590000000 1.0
C      1  0.4498200000000  0.5815880000000  0.4162410000000 1.0
C      1  0.4574930000000  0.4464330000000  0.5906600000000 1.0
C      1  0.4574930000000  0.5535670000000  0.4093400000000 1.0
C      1  0.4264720000000  0.4075000000000  0.4664380000000 1.0
C      1  0.4264720000000  0.5924990000000  0.5335620000000 1.0
C      1  0.4230010000000  0.5545370000000  0.4585030000000 1.0
C      1  0.4230010000000  0.4454630000000  0.5414970000000 1.0
C      1  0.4797070000000  0.3968570000000  0.4852150000000 1.0
C      1  0.4797070000000  0.6031430000000  0.5147850000000 1.0
C      1  0.5687340000000  0.5114920000000  0.5978470000000 1.0
C      1  0.5687340000000  0.4885080000000  0.4021530000000 1.0
C      1  0.4491650000000  0.5557840000000  0.4763880000000 1.0
C      1  0.4491650000000  0.4442160000000  0.5236120000000 1.0
C      1  0.5096610000000  0.4007570000000  0.5236050000000 1.0
C      1  0.5096600000000  0.5992430000000  0.4763950000000 1.0
C      1  0.5717600000000  0.5406910000000  0.5544330000000 1.0
C      1  0.5717610000000  0.4593090000000  0.4455670000000 1.0
C      1  0.4613050000000  0.5844640000000  0.4684140000000 1.0
C      1  0.4613050000000  0.4155360000000  0.5315860000000 1.0
C      1  0.5797960000000  0.4081170000000  0.4745600000000 1.0
C      1  0.5797960000000  0.5918830000000  0.5254400000000 1.0
C      1  0.5566480000000  0.5961520000000  0.4826390000000 1.0
C      1  0.5566490000000  0.4038480000000  0.5173610000000 1.0
C      1  0.4753280000000  0.4930600000000  0.4225360000000 1.0
C      1  0.4753280000000  0.5069400000000  0.5774640000000 1.0
C      1  0.4494680000000  0.4953470000000  0.5879320000000 1.0
C      1  0.4494690000000  0.5046530000000  0.4120680000000 1.0
C      1  0.4378670000000  0.4768530000000  0.5178880000000 1.0
C      1  0.4378670000000  0.5231470000000  0.4821120000000 1.0
C      1  0.6143640000000  0.5645170000000  0.5742300000000 1.0
C      1  0.6143650000000  0.4354830000000  0.4257700000000 1.0
C      1  0.6235910000000  0.4324550000000  0.4746240000000 1.0
C      1  0.6235910000000  0.5675450000000  0.5253770000000 1.0
C      1  0.4142590000000  0.5143090000000  0.4971550000000 1.0
C      1  0.4142590000000  0.4856910000000  0.5028440000000 1.0
C      1  0.4236360000000  0.5217670000000  0.5615590000000 1.0
C      1  0.4236360000000  0.4782330000000  0.4384410000000 1.0
C      1  0.4405410000000  0.5412140000000  0.6038600000000 1.0
C      1  0.4405420000000  0.4587860000000  0.3961400000000 1.0
C      1  0.5385000000000  0.4235580000000  0.3899910000000 1.0
C      1  0.5384990000000  0.5764420000000  0.6100090000000 1.0
C      1  0.4749300000000  0.4041010000000  0.4566610000000 1.0
C      1  0.4749300000000  0.5958990000000  0.5433390000000 1.0
C      1  0.4732940000000  0.4819340000000  0.4508180000000 1.0
C      1  0.4732940000000  0.5180660000000  0.5491820000000 1.0
C      1  0.4976360000000  0.4114940000000  0.4386460000000 1.0
C      1  0.4976360000000  0.5885060000000  0.5613540000000 1.0
C      1  0.6330130000000  0.5665050000000  0.5523890000000 1.0
C      1  0.6330130000000  0.4334950000000  0.4476120000000 1.0
C      1  0.4925470000000  0.4294730000000  0.4139320000000 1.0
C      1  0.4925470000000  0.5705270000000  0.5860680000000 1.0
C      1  0.5318050000000  0.4312390000000  0.5948060000000 1.0
C      1  0.5318050000000  0.5687610000000  0.4051940000000 1.0
C      1  0.4814770000000  0.4692950000000  0.4064710000000 1.0
C      1  0.4814770000000  0.5307050000000  0.5935290000000 1.0
C      1  0.5539900000000  0.5702990000000  0.4707390000000 1.0
C      1  0.5539900000000  0.4297020000000  0.5292610000000 1.0
C      1  0.5245680000000  0.5939900000000  0.5510120000000 1.0
C      1  0.5245680000000  0.4060100000000  0.4489880000000 1.0
C      1  0.4411670000000  0.4684120000000  0.5820310000000 1.0
C      1  0.4411670000000  0.5315880000000  0.4179680000000 1.0
C      1  0.4569540000000  0.3994670000000  0.5053060000000 1.0
C      1  0.4569530000000  0.6005330000000  0.4946940000000 1.0
C      1  0.4303230000000  0.3988570000000  0.4935610000000 1.0
C      1  0.4303230000000  0.6011430000000  0.5064390000000 1.0
C      1  0.5146450000000  0.5603020000000  0.6028990000000 1.0
C      1  0.5146460000000  0.4396980000000  0.3971010000000 1.0
C      1  0.5804550000000  0.5416690000000  0.5240690000000 1.0
C      1  0.5804550000000  0.4583310000000  0.4759310000000 1.0
C      1  0.5855000000000  0.4377440000000  0.4293650000000 1.0
C      1  0.5855000000000  0.5622560000000  0.5706350000000 1.0
C      1  0.5428760000000  0.5474490000000  0.4877470000000 1.0
C      1  0.5428760000000  0.4525510000000  0.5122530000000 1.0
C      1  0.5517680000000  0.4699750000000  0.3867700000000 1.0
C      1  0.5517680000000  0.5300250000000  0.6132300000000 1.0
C      1  0.5321590000000  0.4937520000000  0.5791340000000 1.0
C      1  0.5321590000000  0.5062480000000  0.4208660000000 1.0
C      1  0.5205490000000  0.5286570000000  0.6103300000000 1.0
C      1  0.5205490000000  0.4713430000000  0.3896710000000 1.0
C      1  0.5119290000000  0.5020960000000  0.5977660000000 1.0
C      1  0.5119290000000  0.4979040000000  0.4022340000000 1.0
C      1  0.5297020000000  0.3981330000000  0.4768700000000 1.0
C      1  0.5297010000000  0.6018670000000  0.5231300000000 1.0
C      1  0.4976310000000  0.5284640000000  0.5342800000000 1.0
C      1  0.4976310000000  0.4715360000000  0.4657200000000 1.0
C      1  0.4929690000000  0.5453570000000  0.5110200000000 1.0
C      1  0.4929690000000  0.4546430000000  0.4889800000000 1.0
C      1  0.4998390000000  0.5635540000000  0.4424010000000 1.0
C      1  0.4998390000000  0.4364460000000  0.5575990000000 1.0
C      1  0.3813060000000  0.5054030000000  0.4540930000000 1.0
C      1  0.3813060000000  0.4945970000000  0.5459070000000 1.0
C      1  0.5501000000000  0.5529160000000  0.4219800000000 1.0
C      1  0.5501000000000  0.4470840000000  0.5780200000000 1.0
C      1  0.5259800000000  0.4767490000000  0.4570210000000 1.0
C      1  0.5259790000000  0.5232510000000  0.5429790000000 1.0
C      1  0.3875930000000  0.4775380000000  0.4601200000000 1.0
C      1  0.3875930000000  0.5224610000000  0.5398800000000 1.0
C      1  0.5067480000000  0.3956620000000  0.4952550000000 1.0
C      1  0.5067480000000  0.6043380000000  0.5047450000000 1.0
C      1  0.5765510000000  0.5153730000000  0.5698600000000 1.0
C      1  0.5765510000000  0.4846270000000  0.4301400000000 1.0
C      1  0.3940340000000  0.4787580000000  0.5668240000000 1.0
C      1  0.3940340000000  0.5212410000000  0.4331760000000 1.0
C      1  0.4767280000000  0.4624850000000  0.5113680000000 1.0
C      1  0.4767280000000  0.5375150000000  0.4886320000000 1.0
C      1  0.5035690000000  0.4330160000000  0.5869490000000 1.0
C      1  0.5035690000000  0.5669840000000  0.4130510000000 1.0
C      1  0.5562820000000  0.6002690000000  0.5108500000000 1.0
C      1  0.5562830000000  0.3997310000000  0.4891500000000 1.0
C      1  0.4452040000000  0.4077800000000  0.5562160000000 1.0
C      1  0.4452040000000  0.5922200000000  0.4437840000000 1.0
C      1  0.4904400000000  0.5838700000000  0.4607220000000 1.0
C      1  0.4904400000000  0.4161300000000  0.5392780000000 1.0
C      1  0.5951190000000  0.5672450000000  0.5198230000000 1.0
C      1  0.5951190000000  0.4327550000000  0.4801770000000 1.0
C      1  0.5423880000000  0.5441370000000  0.5535680000000 1.0
C      1  0.5423880000000  0.4558630000000  0.4464330000000 1.0
C      1  0.5174090000000  0.4659890000000  0.5211930000000 1.0
C      1  0.5174090000000  0.5340110000000  0.4788070000000 1.0
C      1  0.4643960000000  0.5091670000000  0.4886100000000 1.0
C      1  0.4643960000000  0.4908330000000  0.5113900000000 1.0
C      1  0.4290950000000  0.5168820000000  0.5905350000000 1.0
C      1  0.4290950000000  0.4831180000000  0.4094650000000 1.0
C      1  0.4849740000000  0.5478250000000  0.3997260000000 1.0
C      1  0.4849730000000  0.4521750000000  0.6002740000000 1.0
C      1  0.5647660000000  0.4341600000000  0.5564060000000 1.0
C      1  0.5647660000000  0.5658400000000  0.4435940000000 1.0
C      1  0.5602680000000  0.4418030000000  0.3828960000000 1.0
C      1  0.5602670000000  0.5581980000000  0.6171040000000 1.0
C      1  0.5632650000000  0.4925970000000  0.5196240000000 1.0
C      1  0.5632650000000  0.5074030000000  0.4803770000000 1.0
C      1  0.5134230000000  0.5400100000000  0.4511870000000 1.0
C      1  0.5134230000000  0.4599900000000  0.5488130000000 1.0
C      1  0.4190620000000  0.5361660000000  0.4363130000000 1.0
C      1  0.4190620000000  0.4638340000000  0.5636870000000 1.0
C      1  0.3998990000000  0.4683690000000  0.4847270000000 1.0
C      1  0.3998990000000  0.5316310000000  0.5152720000000 1.0
C      1  0.5334860000000  0.4683700000000  0.5673940000000 1.0
C      1  0.5334860000000  0.5316300000000  0.4326060000000 1.0
C      1  0.4644240000000  0.5568890000000  0.5899090000000 1.0
C      1  0.4644240000000  0.4431110000000  0.4100910000000 1.0
C      1  0.4469230000000  0.5342090000000  0.5479940000000 1.0
C      1  0.4469240000000  0.4657910000000  0.4520060000000 1.0
C      1  0.4507370000000  0.5595330000000  0.5628260000000 1.0
C      1  0.4507380000000  0.4404670000000  0.4371740000000 1.0
END
