TITL C-862127-1500-648 -0.00130891638189495 125000 -500.786178354748 0 0 87 (C2) n - 1
REM
REM in /home/nfs/bkarasulu/CARBON/AIRSS/Generating-Clusters/TERSOFF/Higher-Symm/FIRE-HFTN
REM
REM
REM
REM
REM
REM ./C.cell (b20cbc046b6831c77cfcea5457e17084)
REM AIRSS Version 0.9.1 bugfix July 2018 build 013d7b7c2542+ Fri, 06 Jul 2018 19:26:36 +0100
REM compiler GCC version 9.2.1 20190827 (Red Hat 9.2.1-1)
REM options -cpp -mtune=generic -march=x86-64 -g -O0 -fpre-include=/usr/include/finclude/math-vector-fortran.h
REM seed 803867315 -577563872 -264904005 528252399 -1733249519 -1258549055 -2060442687 1372519106 1964278568 -1432093833 740286923 -1773943317 761798336 -1051183292 -307259886 -1565294864 -85177497 1891581098 -1029703869 -635183619 -1586465262 -460481117 1564086141 2123460785 283339535 -116561588 -1878879636 968354015 1198512018 -1763662117 1451216545 2047520355 -134201509
REM
CELL 1.54180   50.00000   50.00000   50.00000   90.00000   90.00000   90.00000
LATT -1
SFAC C  
C      1  0.5662370000000  0.5288460000000  0.4786870000000 1.0
C      1  0.4333300000000  0.4711310000000  0.4786880000000 1.0
C      1  0.4709880000000  0.5053740000000  0.4344020000000 1.0
C      1  0.5285800000000  0.4945990000000  0.4344030000000 1.0
C      1  0.4908650000000  0.5341190000000  0.4726530000000 1.0
C      1  0.5087020000000  0.4658570000000  0.4726560000000 1.0
C      1  0.4821710000000  0.4671460000000  0.4599280000000 1.0
C      1  0.5173970000000  0.5328300000000  0.4599260000000 1.0
C      1  0.5228980000000  0.4671670000000  0.5815600000000 1.0
C      1  0.4766680000000  0.5328180000000  0.5815570000000 1.0
C      1  0.4191130000000  0.4521760000000  0.5218300000000 1.0
C      1  0.5804530000000  0.5478050000000  0.5218270000000 1.0
C      1  0.4915440000000  0.4352750000000  0.5486650000000 1.0
C      1  0.5080220000000  0.5647080000000  0.5486600000000 1.0
C      1  0.5362040000000  0.4526590000000  0.5249370000000 1.0
C      1  0.4633620000000  0.5473210000000  0.5249330000000 1.0
C      1  0.5649850000000  0.5592630000000  0.4791510000000 1.0
C      1  0.4345830000000  0.4407130000000  0.4791550000000 1.0
C      1  0.5156540000000  0.4244400000000  0.4480240000000 1.0
C      1  0.4839140000000  0.5755340000000  0.4480180000000 1.0
C      1  0.4681000000000  0.5067190000000  0.4947300000000 1.0
C      1  0.5314670000000  0.4932590000000  0.4947320000000 1.0
C      1  0.5145360000000  0.4985080000000  0.5182490000000 1.0
C      1  0.4850310000000  0.5014720000000  0.5182480000000 1.0
C      1  0.4613400000000  0.4838640000000  0.4755810000000 1.0
C      1  0.5382280000000  0.5161120000000  0.4755810000000 1.0
C      1  0.4873940000000  0.5530240000000  0.4281890000000 1.0
C      1  0.5121740000000  0.4469480000000  0.4281930000000 1.0
C      1  0.5400950000000  0.4680190000000  0.5557420000000 1.0
C      1  0.4594700000000  0.5319650000000  0.5557390000000 1.0
C      1  0.4748520000000  0.4385250000000  0.4566820000000 1.0
C      1  0.5247150000000  0.5614500000000  0.4566780000000 1.0
C      1  0.4801220000000  0.4671690000000  0.5611590000000 1.0
C      1  0.5194440000000  0.5328150000000  0.5611570000000 1.0
C      1  0.5518000000000  0.5377800000000  0.5640750000000 1.0
C      1  0.4477650000000  0.4622040000000  0.5640770000000 1.0
C      1  0.4306060000000  0.4888730000000  0.5574190000000 1.0
C      1  0.5689600000000  0.5111100000000  0.5574190000000 1.0
C      1  0.4800280000000  0.4564640000000  0.5143340000000 1.0
C      1  0.5195390000000  0.5435160000000  0.5143310000000 1.0
C      1  0.4487110000000  0.5310880000000  0.5010990000000 1.0
C      1  0.5508560000000  0.4688910000000  0.5011020000000 1.0
C      1  0.5285020000000  0.5212600000000  0.5303550000000 1.0
C      1  0.4710640000000  0.4787210000000  0.5303560000000 1.0
C      1  0.4741090000000  0.5724160000000  0.4765250000000 1.0
C      1  0.5254580000000  0.4275610000000  0.4765320000000 1.0
C      1  0.5765910000000  0.4857640000000  0.5054840000000 1.0
C      1  0.4229750000000  0.5142150000000  0.5054810000000 1.0
C      1  0.4599180000000  0.4252390000000  0.4767120000000 1.0
C      1  0.5396500000000  0.5747370000000  0.4767070000000 1.0
C      1  0.5316630000000  0.4736240000000  0.4541210000000 1.0
C      1  0.4679040000000  0.5263510000000  0.4541190000000 1.0
C      1  0.5766930000000  0.5187450000000  0.5054830000000 1.0
C      1  0.4228730000000  0.4812340000000  0.5054830000000 1.0
C      1  0.5014540000000  0.5161850000000  0.5820150000000 1.0
C      1  0.4981110000000  0.4838010000000  0.5820160000000 1.0
C      1  0.4422890000000  0.4861780000000  0.5300690000000 1.0
C      1  0.5572770000000  0.5138030000000  0.5300690000000 1.0
C      1  0.4915420000000  0.5405620000000  0.5028110000000 1.0
C      1  0.5080240000000  0.4594170000000  0.5028150000000 1.0
C      1  0.4408400000000  0.5376870000000  0.4571950000000 1.0
C      1  0.5587270000000  0.4622880000000  0.4571990000000 1.0
C      1  0.4407860000000  0.4423350000000  0.5404210000000 1.0
C      1  0.5587800000000  0.5576470000000  0.5404170000000 1.0
C      1  0.5507600000000  0.4457540000000  0.4806310000000 1.0
C      1  0.4488070000000  0.5542230000000  0.4806250000000 1.0
C      1  0.4843430000000  0.5162460000000  0.5437470000000 1.0
C      1  0.5152230000000  0.4837360000000  0.5437490000000 1.0
C      1  0.5510480000000  0.5134870000000  0.4324960000000 1.0
C      1  0.4485200000000  0.4864860000000  0.4324960000000 1.0
C      1  0.5053130000000  0.5295000000000  0.4324760000000 1.0
C      1  0.4942550000000  0.4704730000000  0.4324790000000 1.0
C      1  0.5322540000000  0.5697200000000  0.5278150000000 1.0
C      1  0.4673120000000  0.4302610000000  0.5278200000000 1.0
C      1  0.5163060000000  0.4280580000000  0.5293960000000 1.0
C      1  0.4832610000000  0.5719230000000  0.5293900000000 1.0
C      1  0.5798730000000  0.4832150000000  0.4573810000000 1.0
C      1  0.4196940000000  0.5167600000000  0.4573780000000 1.0
C      1  0.5077150000000  0.4174990000000  0.5011590000000 1.0
C      1  0.4918520000000  0.5824800000000  0.5011520000000 1.0
C      1  0.5731660000000  0.5120750000000  0.4526500000000 1.0
C      1  0.4264010000000  0.4879000000000  0.4526490000000 1.0
C      1  0.5647100000000  0.4826360000000  0.5632230000000 1.0
C      1  0.4348560000000  0.5173480000000  0.5632210000000 1.0
C      1  0.5238840000000  0.5830070000000  0.5007140000000 1.0
C      1  0.4756830000000  0.4169720000000  0.5007200000000 1.0
C      1  0.4997840000000  0.4999860000000  0.4216170000000 1.0
END
