TITL C-862132-7359-351 688205.984605257 125000 -693.397152290576 0 0 121 (C1) n - 1
REM
REM in /home/nfs/bkarasulu/CARBON/AIRSS/Generating-Clusters/TERSOFF/Higher-Symm/FIRE-HFTN
REM
REM
REM
REM
REM
REM ./C.cell (b20cbc046b6831c77cfcea5457e17084)
REM AIRSS Version 0.9.1 bugfix July 2018 build 013d7b7c2542+ Fri, 06 Jul 2018 19:26:36 +0100
REM compiler GCC version 9.2.1 20190827 (Red Hat 9.2.1-1)
REM options -cpp -mtune=generic -march=x86-64 -g -O0 -fpre-include=/usr/include/finclude/math-vector-fortran.h
REM seed 176074108 -799305110 -807029383 1746418514 927215422 -1582488210 -274287263 598135221 -1073327581 1269925819 -1829381860 -1324176449 -502142189 -1038570499 -1076117483 -187909523 876097808 726407138 1891777157 -1653394487 2061773914 -186905687 1460723674 1742145205 -754698664 1622759836 1152816817 125198504 -1257191692 808063348 -2124128403 2117136494 62866028
REM
CELL 1.54180   50.00000   50.00000   50.00000   90.00000   90.00000   90.00000
LATT -1
SFAC C  
C      1  0.4862890000000  0.5329700000000  0.4866320000000 1.0
C      1  0.4876970000000  0.4868900000000  0.4990940000000 1.0
C      1  0.4954980000000  0.5064980000000  0.4763390000000 1.0
C      1  0.4898980000000  0.5325570000000  0.5154330000000 1.0
C      1  0.5482310000000  0.4170510000000  0.4647610000000 1.0
C      1  0.5589440000000  0.5761980000000  0.5518100000000 1.0
C      1  0.5547140000000  0.5759730000000  0.4505260000000 1.0
C      1  0.5446450000000  0.4191230000000  0.5371350000000 1.0
C      1  0.4674130000000  0.4762810000000  0.5510210000000 1.0
C      1  0.4533010000000  0.5301640000000  0.4518010000000 1.0
C      1  0.4570490000000  0.5318780000000  0.5544260000000 1.0
C      1  0.4740380000000  0.4767610000000  0.4380850000000 1.0
C      1  0.4903820000000  0.4364380000000  0.4459410000000 1.0
C      1  0.4933430000000  0.5725490000000  0.5527610000000 1.0
C      1  0.4882050000000  0.5639070000000  0.4502630000000 1.0
C      1  0.4861140000000  0.4375680000000  0.5502430000000 1.0
C      1  0.5069400000000  0.5939960000000  0.4837920000000 1.0
C      1  0.4643930000000  0.4538250000000  0.5103520000000 1.0
C      1  0.4657700000000  0.4551160000000  0.4826260000000 1.0
C      1  0.5046040000000  0.5961900000000  0.5114150000000 1.0
C      1  0.4848430000000  0.5223950000000  0.3818310000000 1.0
C      1  0.5014350000000  0.4567000000000  0.6246720000000 1.0
C      1  0.5146330000000  0.4505600000000  0.3737280000000 1.0
C      1  0.4848790000000  0.5314590000000  0.6218530000000 1.0
C      1  0.5386030000000  0.5262650000000  0.4297880000000 1.0
C      1  0.5450070000000  0.4762700000000  0.5753970000000 1.0
C      1  0.5510140000000  0.4733040000000  0.4252790000000 1.0
C      1  0.5372790000000  0.5294860000000  0.5725880000000 1.0
C      1  0.5036540000000  0.5956370000000  0.5670460000000 1.0
C      1  0.4957480000000  0.4082520000000  0.4462940000000 1.0
C      1  0.4912800000000  0.4094100000000  0.5530330000000 1.0
C      1  0.4945980000000  0.5887660000000  0.4358420000000 1.0
C      1  0.4750160000000  0.4947110000000  0.5258480000000 1.0
C      1  0.4595170000000  0.5402160000000  0.4789450000000 1.0
C      1  0.4640550000000  0.5237610000000  0.5271480000000 1.0
C      1  0.4912840000000  0.4985350000000  0.4474210000000 1.0
C      1  0.4673050000000  0.3491290000000  0.5110770000000 1.0
C      1  0.4862250000000  0.6299930000000  0.4900330000000 1.0
C      1  0.4769170000000  0.6271870000000  0.5174650000000 1.0
C      1  0.4537480000000  0.3582020000000  0.4871720000000 1.0
C      1  0.4872300000000  0.3900340000000  0.4671050000000 1.0
C      1  0.4928160000000  0.6225280000000  0.5654890000000 1.0
C      1  0.4842150000000  0.6153810000000  0.4415290000000 1.0
C      1  0.4749470000000  0.3884150000000  0.5416360000000 1.0
C      1  0.4316190000000  0.4552380000000  0.4581800000000 1.0
C      1  0.4073560000000  0.5216410000000  0.5509470000000 1.0
C      1  0.4134820000000  0.5077150000000  0.4738530000000 1.0
C      1  0.4201870000000  0.4710400000000  0.5355620000000 1.0
C      1  0.5090350000000  0.4646870000000  0.3988700000000 1.0
C      1  0.4922730000000  0.5257930000000  0.5936880000000 1.0
C      1  0.4926470000000  0.5177970000000  0.4101280000000 1.0
C      1  0.5010670000000  0.4702180000000  0.5985350000000 1.0
C      1  0.4388260000000  0.4839060000000  0.5548210000000 1.0
C      1  0.4347310000000  0.5057530000000  0.4526940000000 1.0
C      1  0.4335800000000  0.5131300000000  0.5616290000000 1.0
C      1  0.4455560000000  0.4785660000000  0.4467390000000 1.0
C      1  0.5380150000000  0.4118970000000  0.5649140000000 1.0
C      1  0.5417710000000  0.5711740000000  0.4234150000000 1.0
C      1  0.5464060000000  0.5719870000000  0.5790730000000 1.0
C      1  0.5427720000000  0.4093660000000  0.4367660000000 1.0
C      1  0.5542240000000  0.4789470000000  0.4534860000000 1.0
C      1  0.5413080000000  0.5232040000000  0.5450060000000 1.0
C      1  0.5464160000000  0.5200740000000  0.4567130000000 1.0
C      1  0.5483370000000  0.4818820000000  0.5472640000000 1.0
C      1  0.5161100000000  0.4023790000000  0.4263130000000 1.0
C      1  0.5208280000000  0.5849780000000  0.5886970000000 1.0
C      1  0.5142170000000  0.5806300000000  0.4146480000000 1.0
C      1  0.5109230000000  0.4055590000000  0.5743860000000 1.0
C      1  0.4899600000000  0.5601890000000  0.6254570000000 1.0
C      1  0.5109570000000  0.4220040000000  0.3777320000000 1.0
C      1  0.4992990000000  0.4279470000000  0.6207080000000 1.0
C      1  0.4873380000000  0.5514120000000  0.3775440000000 1.0
C      1  0.5460190000000  0.4444570000000  0.4759780000000 1.0
C      1  0.5550510000000  0.5587600000000  0.5274490000000 1.0
C      1  0.5535800000000  0.5574410000000  0.4744220000000 1.0
C      1  0.5430090000000  0.4463450000000  0.5255440000000 1.0
C      1  0.5678880000000  0.4611830000000  0.5164010000000 1.0
C      1  0.5773750000000  0.5405060000000  0.4846280000000 1.0
C      1  0.5777410000000  0.5400960000000  0.5154380000000 1.0
C      1  0.5705340000000  0.4595700000000  0.4869510000000 1.0
C      1  0.5056440000000  0.5716970000000  0.5263290000000 1.0
C      1  0.4908380000000  0.4514190000000  0.4696440000000 1.0
C      1  0.4883130000000  0.4501160000000  0.5255120000000 1.0
C      1  0.5063920000000  0.5673070000000  0.4733400000000 1.0
C      1  0.5230860000000  0.4870250000000  0.5910190000000 1.0
C      1  0.5203830000000  0.5098280000000  0.4146870000000 1.0
C      1  0.5186930000000  0.5150350000000  0.5888570000000 1.0
C      1  0.5283510000000  0.4829420000000  0.4098420000000 1.0
C      1  0.5678140000000  0.5170470000000  0.5335220000000 1.0
C      1  0.5816060000000  0.4839860000000  0.4681160000000 1.0
C      1  0.5761610000000  0.4865410000000  0.5334530000000 1.0
C      1  0.5748380000000  0.5155910000000  0.4658650000000 1.0
C      1  0.4669820000000  0.3694180000000  0.4638400000000 1.0
C      1  0.4904940000000  0.6382040000000  0.5408820000000 1.0
C      1  0.4706200000000  0.6230890000000  0.4663200000000 1.0
C      1  0.4852430000000  0.3653990000000  0.5271610000000 1.0
C      1  0.4185900000000  0.5197100000000  0.5003560000000 1.0
C      1  0.4214190000000  0.4742920000000  0.5061060000000 1.0
C      1  0.4240780000000  0.4522200000000  0.4867700000000 1.0
C      1  0.3996800000000  0.5190440000000  0.5227380000000 1.0
C      1  0.5248490000000  0.4868170000000  0.5300110000000 1.0
C      1  0.5247870000000  0.5144030000000  0.4782470000000 1.0
C      1  0.5166700000000  0.5196780000000  0.5260490000000 1.0
C      1  0.5314520000000  0.4835280000000  0.4709560000000 1.0
C      1  0.4805300000000  0.5471880000000  0.5715290000000 1.0
C      1  0.4875630000000  0.4510880000000  0.4186280000000 1.0
C      1  0.4841100000000  0.4556940000000  0.5754510000000 1.0
C      1  0.4785250000000  0.5382080000000  0.4315500000000 1.0
C      1  0.5272130000000  0.5515900000000  0.5174760000000 1.0
C      1  0.5171200000000  0.4590780000000  0.4835390000000 1.0
C      1  0.5153090000000  0.4598080000000  0.5152920000000 1.0
C      1  0.5267860000000  0.5477810000000  0.4852010000000 1.0
C      1  0.5017500000000  0.6649970000000  0.5397000000000 1.0
C      1  0.4599450000000  0.3600430000000  0.4372290000000 1.0
C      1  0.5134860000000  0.3586710000000  0.5287510000000 1.0
C      1  0.4415770000000  0.6249500000000  0.4670220000000 1.0
C      1  0.4920070000000  0.5595650000000  0.4058110000000 1.0
C      1  0.4956320000000  0.4258370000000  0.5914550000000 1.0
C      1  0.5020940000000  0.4206010000000  0.4059170000000 1.0
C      1  0.4959090000000  0.5674740000000  0.5971970000000 1.0
C      1  0.4446760000000  0.5316560000000  0.5036400000000 1.0
END
