TITL C-862505-1648-55 -0.000284893250546791 125000 -698.415986196227 0 0 120 (D2h) n - 1
REM
REM in /home/nfs/bkarasulu/CARBON/AIRSS/Generating-Clusters/TERSOFF/Higher-Symm/FIRE-HFTN
REM
REM
REM
REM
REM
REM ./C.cell (b20cbc046b6831c77cfcea5457e17084)
REM AIRSS Version 0.9.1 bugfix July 2018 build 013d7b7c2542+ Fri, 06 Jul 2018 19:26:36 +0100
REM compiler GCC version 9.2.1 20190827 (Red Hat 9.2.1-1)
REM options -cpp -mtune=generic -march=x86-64 -g -O0 -fpre-include=/usr/include/finclude/math-vector-fortran.h
REM seed -381352369 1436748918 -404177876 -174751966 850853832 -471805576 1816495693 -2110606382 514773975 -1262855626 41055872 -482917535 -1026125486 327798731 -1474643264 305506105 1351264282 900302813 2082258614 75376500 1986570060 191959488 -2064368242 773276808 333416207 -973805652 -129918019 1094859140 -922368783 -1384145212 -1178563004 524570048 1256822033
REM
CELL 1.54180   50.00000   50.00000   50.00000   90.00000   90.00000   90.00000
LATT -1
SFAC C  
C      1  0.5147460000000  0.5222180000000  0.5523790000000 1.0
C      1  0.5147460000000  0.4777820000000  0.4476210000000 1.0
C      1  0.4852540000000  0.5222180000000  0.5523790000000 1.0
C      1  0.4852540000000  0.4777820000000  0.4476210000000 1.0
C      1  0.5147460000000  0.5222180000000  0.4476210000000 1.0
C      1  0.5147460000000  0.4777820000000  0.5523790000000 1.0
C      1  0.4852540000000  0.5222180000000  0.4476210000000 1.0
C      1  0.4852540000000  0.4777820000000  0.5523790000000 1.0
C      1  0.3918020000000  0.5164240000000  0.4837490000000 1.0
C      1  0.3918020000000  0.4835760000000  0.5162510000000 1.0
C      1  0.6081980000000  0.5164240000000  0.4837490000000 1.0
C      1  0.6081980000000  0.4835760000000  0.5162510000000 1.0
C      1  0.3918020000000  0.5164240000000  0.5162510000000 1.0
C      1  0.3918020000000  0.4835760000000  0.4837490000000 1.0
C      1  0.6081980000000  0.5164240000000  0.5162510000000 1.0
C      1  0.6081980000000  0.4835760000000  0.4837490000000 1.0
C      1  0.4733460000000  0.4852320000000  0.5784470000000 1.0
C      1  0.4733460000000  0.5147680000000  0.4215530000000 1.0
C      1  0.5266540000000  0.4852320000000  0.5784470000000 1.0
C      1  0.5266540000000  0.5147680000000  0.4215530000000 1.0
C      1  0.4733460000000  0.4852320000000  0.4215530000000 1.0
C      1  0.4733460000000  0.5147680000000  0.5784470000000 1.0
C      1  0.5266540000000  0.4852320000000  0.4215530000000 1.0
C      1  0.5266540000000  0.5147680000000  0.5784470000000 1.0
C      1  0.5249630000000  0.4080580000000  0.5144380000000 1.0
C      1  0.5249630000000  0.5919420000000  0.4855620000000 1.0
C      1  0.4750370000000  0.4080580000000  0.5144380000000 1.0
C      1  0.4750370000000  0.5919420000000  0.4855620000000 1.0
C      1  0.5249630000000  0.4080580000000  0.4855620000000 1.0
C      1  0.5249630000000  0.5919420000000  0.5144380000000 1.0
C      1  0.4750370000000  0.4080580000000  0.4855620000000 1.0
C      1  0.4750370000000  0.5919420000000  0.5144380000000 1.0
C      1  0.5729610000000  0.5473830000000  0.4471090000000 1.0
C      1  0.5729610000000  0.4526170000000  0.5528910000000 1.0
C      1  0.4270390000000  0.5473830000000  0.4471090000000 1.0
C      1  0.4270390000000  0.4526170000000  0.5528910000000 1.0
C      1  0.5729610000000  0.5473830000000  0.5528910000000 1.0
C      1  0.5729610000000  0.4526170000000  0.4471090000000 1.0
C      1  0.4270390000000  0.5473830000000  0.5528910000000 1.0
C      1  0.4270390000000  0.4526170000000  0.4471090000000 1.0
C      1  0.4698440000000  0.4435460000000  0.4179330000000 1.0
C      1  0.4698440000000  0.5564540000000  0.5820670000000 1.0
C      1  0.5301560000000  0.4435460000000  0.4179330000000 1.0
C      1  0.5301560000000  0.5564540000000  0.5820670000000 1.0
C      1  0.4698440000000  0.4435460000000  0.5820670000000 1.0
C      1  0.4698440000000  0.5564540000000  0.4179330000000 1.0
C      1  0.5301560000000  0.4435460000000  0.5820670000000 1.0
C      1  0.5301560000000  0.5564540000000  0.4179330000000 1.0
C      1  0.5293940000000  0.5158030000000  0.4738920000000 1.0
C      1  0.5293940000000  0.4841970000000  0.5261080000000 1.0
C      1  0.4706060000000  0.5158030000000  0.4738920000000 1.0
C      1  0.4706060000000  0.4841970000000  0.5261080000000 1.0
C      1  0.5293940000000  0.5158030000000  0.5261080000000 1.0
C      1  0.5293940000000  0.4841970000000  0.4738920000000 1.0
C      1  0.4706060000000  0.5158030000000  0.5261080000000 1.0
C      1  0.4706060000000  0.4841970000000  0.4738920000000 1.0
C      1  0.4433130000000  0.4725610000000  0.5151920000000 1.0
C      1  0.4433130000000  0.5274390000000  0.4848080000000 1.0
C      1  0.5566870000000  0.4725610000000  0.5151920000000 1.0
C      1  0.5566870000000  0.5274390000000  0.4848080000000 1.0
C      1  0.4433130000000  0.4725610000000  0.4848080000000 1.0
C      1  0.4433130000000  0.5274390000000  0.5151920000000 1.0
C      1  0.5566870000000  0.4725610000000  0.4848080000000 1.0
C      1  0.5566870000000  0.5274390000000  0.5151920000000 1.0
C      1  0.4849770000000  0.4651260000000  0.4013600000000 1.0
C      1  0.4849770000000  0.5348740000000  0.5986400000000 1.0
C      1  0.5150230000000  0.4651260000000  0.4013600000000 1.0
C      1  0.5150230000000  0.5348740000000  0.5986400000000 1.0
C      1  0.4849770000000  0.4651260000000  0.5986400000000 1.0
C      1  0.4849770000000  0.5348740000000  0.4013600000000 1.0
C      1  0.5150230000000  0.4651260000000  0.5986400000000 1.0
C      1  0.5150230000000  0.5348740000000  0.4013600000000 1.0
C      1  0.5558910000000  0.4446060000000  0.5285690000000 1.0
C      1  0.5558910000000  0.5553940000000  0.4714310000000 1.0
C      1  0.4441090000000  0.4446060000000  0.5285690000000 1.0
C      1  0.4441090000000  0.5553940000000  0.4714310000000 1.0
C      1  0.5558910000000  0.4446060000000  0.4714310000000 1.0
C      1  0.5558910000000  0.5553940000000  0.5285690000000 1.0
C      1  0.4441090000000  0.4446060000000  0.4714310000000 1.0
C      1  0.4441090000000  0.5553940000000  0.5285690000000 1.0
C      1  0.4186750000000  0.5175620000000  0.5343120000000 1.0
C      1  0.4186750000000  0.4824380000000  0.4656880000000 1.0
C      1  0.5813250000000  0.5175620000000  0.5343120000000 1.0
C      1  0.5813250000000  0.4824380000000  0.4656880000000 1.0
C      1  0.4186750000000  0.5175620000000  0.4656880000000 1.0
C      1  0.4186750000000  0.4824380000000  0.5343120000000 1.0
C      1  0.5813250000000  0.5175620000000  0.4656880000000 1.0
C      1  0.5813250000000  0.4824380000000  0.5343120000000 1.0
C      1  0.5594450000000  0.5516640000000  0.5788590000000 1.0
C      1  0.5594450000000  0.4483360000000  0.4211410000000 1.0
C      1  0.4405550000000  0.5516640000000  0.5788590000000 1.0
C      1  0.4405550000000  0.4483360000000  0.4211410000000 1.0
C      1  0.5594450000000  0.5516640000000  0.4211410000000 1.0
C      1  0.5594450000000  0.4483360000000  0.5788590000000 1.0
C      1  0.4405550000000  0.5516640000000  0.4211410000000 1.0
C      1  0.4405550000000  0.4483360000000  0.5788590000000 1.0
C      1  0.5279230000000  0.4325410000000  0.5307610000000 1.0
C      1  0.5279230000000  0.5674590000000  0.4692390000000 1.0
C      1  0.4720770000000  0.4325410000000  0.5307610000000 1.0
C      1  0.4720770000000  0.5674590000000  0.4692390000000 1.0
C      1  0.5279230000000  0.4325410000000  0.4692390000000 1.0
C      1  0.5279230000000  0.5674590000000  0.5307610000000 1.0
C      1  0.4720770000000  0.4325410000000  0.4692390000000 1.0
C      1  0.4720770000000  0.5674590000000  0.5307610000000 1.0
C      1  0.5150780000000  0.5680100000000  0.5586570000000 1.0
C      1  0.5150780000000  0.4319900000000  0.4413430000000 1.0
C      1  0.4849220000000  0.5680100000000  0.5586570000000 1.0
C      1  0.4849220000000  0.4319900000000  0.4413430000000 1.0
C      1  0.5150780000000  0.5680100000000  0.4413430000000 1.0
C      1  0.5150780000000  0.4319900000000  0.5586570000000 1.0
C      1  0.4849220000000  0.5680100000000  0.4413430000000 1.0
C      1  0.4849220000000  0.4319900000000  0.5586570000000 1.0
C      1  0.5155690000000  0.5426660000000  0.4842890000000 1.0
C      1  0.5155690000000  0.4573340000000  0.5157110000000 1.0
C      1  0.4844310000000  0.5426660000000  0.4842890000000 1.0
C      1  0.4844310000000  0.4573340000000  0.5157110000000 1.0
C      1  0.5155690000000  0.5426660000000  0.5157110000000 1.0
C      1  0.5155690000000  0.4573340000000  0.4842890000000 1.0
C      1  0.4844310000000  0.5426660000000  0.5157110000000 1.0
C      1  0.4844310000000  0.4573340000000  0.4842890000000 1.0
END
