TITL C-862134-6730-1103 -0.000189370085366565 125000 -336.554762040249 0 0 62 (C3) n - 1
REM
REM in /home/nfs/bkarasulu/CARBON/AIRSS/Generating-Clusters/TERSOFF/Higher-Symm/FIRE-HFTN
REM
REM
REM
REM
REM
REM ./C.cell (b20cbc046b6831c77cfcea5457e17084)
REM AIRSS Version 0.9.1 bugfix July 2018 build 013d7b7c2542+ Fri, 06 Jul 2018 19:26:36 +0100
REM compiler GCC version 9.2.1 20190827 (Red Hat 9.2.1-1)
REM options -cpp -mtune=generic -march=x86-64 -g -O0 -fpre-include=/usr/include/finclude/math-vector-fortran.h
REM seed 2039345780 -501400020 1792262644 -782727195 -1142901882 270948786 3717262 -166816735 -699665321 -2027804075 325326347 1765531137 1002927000 -1179120363 -1207891975 -894872658 1590483311 1330602756 2021934721 449851759 804960469 631714353 1557427607 -1674041368 1346381472 -1270733054 -1616791760 292385256 -219445746 -1516448013 891258356 1070576898 -537918019
REM
CELL 1.54180   50.00000   50.00000   50.00000   90.00000   90.00000   90.00000
LATT -1
SFAC C  
C      1  0.5313000000000  0.4683940000000  0.5464360000000 1.0
C      1  0.4578130000000  0.4890490000000  0.5464360000000 1.0
C      1  0.5124440000000  0.5423630000000  0.5464360000000 1.0
C      1  0.4835230000000  0.5573140000000  0.5071570000000 1.0
C      1  0.5587080000000  0.4859650000000  0.5071570000000 1.0
C      1  0.4593260000000  0.4565270000000  0.5071570000000 1.0
C      1  0.5391470000000  0.5615130000000  0.4801210000000 1.0
C      1  0.5345330000000  0.4356930000000  0.4801210000000 1.0
C      1  0.4278770000000  0.5025990000000  0.4801210000000 1.0
C      1  0.5085180000000  0.4290560000000  0.5530990000000 1.0
C      1  0.4351360000000  0.5284480000000  0.5530990000000 1.0
C      1  0.5579040000000  0.5423020000000  0.5530990000000 1.0
C      1  0.4792730000000  0.5435110000000  0.4391280000000 1.0
C      1  0.5488800000000  0.4965480000000  0.4391280000000 1.0
C      1  0.4734050000000  0.4597480000000  0.4391280000000 1.0
C      1  0.4472290000000  0.5464810000000  0.4726350000000 1.0
C      1  0.5674740000000  0.5228130000000  0.4726350000000 1.0
C      1  0.4868550000000  0.4305120000000  0.4726350000000 1.0
C      1  0.4670490000000  0.5630100000000  0.4603110000000 1.0
C      1  0.5718780000000  0.4973840000000  0.4603110000000 1.0
C      1  0.4626300000000  0.4394120000000  0.4603110000000 1.0
C      1  0.5498480000000  0.5356990000000  0.5251940000000 1.0
C      1  0.5068270000000  0.4393330000000  0.5251940000000 1.0
C      1  0.4448820000000  0.5247730000000  0.5251940000000 1.0
C      1  0.5405290000000  0.5337710000000  0.4702520000000 1.0
C      1  0.5098170000000  0.4483680000000  0.4702520000000 1.0
C      1  0.4512120000000  0.5176670000000  0.4702520000000 1.0
C      1  0.5308910000000  0.4299780000000  0.5087760000000 1.0
C      1  0.4247490000000  0.5086120000000  0.5087760000000 1.0
C      1  0.5459190000000  0.5612160000000  0.5087760000000 1.0
C      1  0.5075630000000  0.4715770000000  0.5247710000000 1.0
C      1  0.4724380000000  0.5080150000000  0.5247720000000 1.0
C      1  0.5215570000000  0.5202150000000  0.5247720000000 1.0
C      1  0.5137130000000  0.5676630000000  0.4657380000000 1.0
C      1  0.5525760000000  0.4546450000000  0.4657380000000 1.0
C      1  0.4352680000000  0.4774980000000  0.4657380000000 1.0
C      1  0.4638070000000  0.5139860000000  0.4398970000000 1.0
C      1  0.5310440000000  0.5247040000000  0.4398970000000 1.0
C      1  0.5067070000000  0.4611160000000  0.4398970000000 1.0
C      1  0.5136810000000  0.5202730000000  0.4806060000000 1.0
C      1  0.5115520000000  0.4783680000000  0.4806060000000 1.0
C      1  0.4763250000000  0.5011650000000  0.4806060000000 1.0
C      1  0.4722370000000  0.4883360000000  0.5720570000000 1.0
C      1  0.5046150000000  0.5302280000000  0.5720570000000 1.0
C      1  0.5247060000000  0.4812420000000  0.5720570000000 1.0
C      1  0.4460360000000  0.4655300000000  0.5330670000000 1.0
C      1  0.4979650000000  0.5643220000000  0.5330670000000 1.0
C      1  0.5575570000000  0.4699550000000  0.5330670000000 1.0
C      1  0.4791700000000  0.4343430000000  0.5137220000000 1.0
C      1  0.4543900000000  0.5512210000000  0.5137220000000 1.0
C      1  0.5679980000000  0.5142420000000  0.5137220000000 1.0
C      1  0.4447520000000  0.4531580000000  0.4803480000000 1.0
C      1  0.4878930000000  0.5716200000000  0.4803480000000 1.0
C      1  0.5689130000000  0.4750280000000  0.4803480000000 1.0
C      1  0.4960450000000  0.5282510000000  0.5059190000000 1.0
C      1  0.5272790000000  0.4896520000000  0.5059190000000 1.0
C      1  0.4782340000000  0.4819030000000  0.5059190000000 1.0
C      1  0.5090920000000  0.5478680000000  0.4424490000000 1.0
C      1  0.5377440000000  0.4685450000000  0.4424490000000 1.0
C      1  0.4547220000000  0.4833930000000  0.4424490000000 1.0
C      1  0.5005190000000  0.4999350000000  0.5725400000000 1.0
C      1  0.5005190000000  0.4999350000000  0.5407330000000 1.0
END
