TITL C-862128-1543-544 4.49309443859501e-06 125000 -582.362348397553 0 0 114 (C3i) n - 1
REM
REM in /home/nfs/bkarasulu/CARBON/AIRSS/Generating-Clusters/TERSOFF/Higher-Symm/FIRE-HFTN
REM
REM
REM
REM
REM
REM ./C.cell (b20cbc046b6831c77cfcea5457e17084)
REM AIRSS Version 0.9.1 bugfix July 2018 build 013d7b7c2542+ Fri, 06 Jul 2018 19:26:36 +0100
REM compiler GCC version 9.2.1 20190827 (Red Hat 9.2.1-1)
REM options -cpp -mtune=generic -march=x86-64 -g -O0 -fpre-include=/usr/include/finclude/math-vector-fortran.h
REM seed 1215988532 66778887 -224131788 -79447033 1130971350 -1591235242 422037047 1976714033 1181901150 1686530288 -1066277154 1811199320 -1077458577 855210281 110949952 -1153642841 1477386073 -281675406 1904775434 -1968383246 -1343026941 2088060691 2142188635 930855030 316526044 -509296735 1770045077 -436223314 -1849238211 1625795061 528369430 -981035934 -1362845949
REM
CELL 1.54180   50.00000   50.00000   50.00000   90.00000   90.00000   90.00000
LATT -1
SFAC C  
C      1  0.5346680000000  0.5247430000000  0.4126740000000 1.0
C      1  0.5929600000000  0.4752560000000  0.4863600000000 1.0
C      1  0.5582920000000  0.5247430000000  0.5736860000000 1.0
C      1  0.4653320000000  0.4752570000000  0.5873260000000 1.0
C      1  0.4070400000000  0.5247440000000  0.5136400000000 1.0
C      1  0.4417080000000  0.4752570000000  0.4263140000000 1.0
C      1  0.5247570000000  0.5010630000000  0.5574870000000 1.0
C      1  0.4625930000000  0.4989370000000  0.5501840000000 1.0
C      1  0.4378360000000  0.5010630000000  0.4926970000000 1.0
C      1  0.4752430000000  0.4989370000000  0.4425130000000 1.0
C      1  0.5374070000000  0.5010630000000  0.4498160000000 1.0
C      1  0.5621640000000  0.4989370000000  0.5073030000000 1.0
C      1  0.5709880000000  0.4698330000000  0.5587210000000 1.0
C      1  0.4846410000000  0.5301670000000  0.5908380000000 1.0
C      1  0.4136520000000  0.4698330000000  0.5321170000000 1.0
C      1  0.4290120000000  0.5301670000000  0.4412790000000 1.0
C      1  0.5153590000000  0.4698330000000  0.4091620000000 1.0
C      1  0.5863480000000  0.5301670000000  0.4678830000000 1.0
C      1  0.4937190000000  0.4940660000000  0.5540580000000 1.0
C      1  0.4500430000000  0.5059340000000  0.5215900000000 1.0
C      1  0.4563250000000  0.4940660000000  0.4675310000000 1.0
C      1  0.5062810000000  0.5059340000000  0.4459420000000 1.0
C      1  0.5499570000000  0.4940660000000  0.4784100000000 1.0
C      1  0.5436750000000  0.5059340000000  0.5324690000000 1.0
C      1  0.4193630000000  0.4393210000000  0.5226730000000 1.0
C      1  0.4400470000000  0.5606790000000  0.4415030000000 1.0
C      1  0.5206830000000  0.4393210000000  0.4188300000000 1.0
C      1  0.5806370000000  0.5606790000000  0.4773270000000 1.0
C      1  0.5599530000000  0.4393210000000  0.5584970000000 1.0
C      1  0.4793170000000  0.5606790000000  0.5811700000000 1.0
C      1  0.5499440000000  0.5566180000000  0.5303490000000 1.0
C      1  0.4986890000000  0.4433820000000  0.5584270000000 1.0
C      1  0.4487460000000  0.5566180000000  0.5280780000000 1.0
C      1  0.4500560000000  0.4433820000000  0.4696510000000 1.0
C      1  0.5013110000000  0.5566180000000  0.4415730000000 1.0
C      1  0.5512540000000  0.4433820000000  0.4719220000000 1.0
C      1  0.5188330000000  0.4783950000000  0.5923140000000 1.0
C      1  0.4294710000000  0.5216050000000  0.5624670000000 1.0
C      1  0.4106370000000  0.4783950000000  0.4701530000000 1.0
C      1  0.4811670000000  0.5216050000000  0.4076860000000 1.0
C      1  0.5705290000000  0.4783950000000  0.4375330000000 1.0
C      1  0.5893630000000  0.5216050000000  0.5298470000000 1.0
C      1  0.4820500000000  0.4178620000000  0.4939540000000 1.0
C      1  0.4962610000000  0.5821380000000  0.4814320000000 1.0
C      1  0.5142110000000  0.4178620000000  0.4874780000000 1.0
C      1  0.5179500000000  0.5821380000000  0.5060460000000 1.0
C      1  0.5037390000000  0.4178620000000  0.5185680000000 1.0
C      1  0.4857890000000  0.5821380000000  0.5125220000000 1.0
C      1  0.4756230000000  0.5375150000000  0.4853140000000 1.0
C      1  0.5005290000000  0.4624850000000  0.4715460000000 1.0
C      1  0.5249070000000  0.5375150000000  0.4862310000000 1.0
C      1  0.5243770000000  0.4624850000000  0.5146860000000 1.0
C      1  0.4994710000000  0.5375150000000  0.5284540000000 1.0
C      1  0.4750930000000  0.4624850000000  0.5137690000000 1.0
C      1  0.5047260000000  0.4154360000000  0.4586870000000 1.0
C      1  0.5381420000000  0.5845640000000  0.4834370000000 1.0
C      1  0.5334140000000  0.4154350000000  0.5247500000000 1.0
C      1  0.4952740000000  0.5845640000000  0.5413130000000 1.0
C      1  0.4618580000000  0.4154360000000  0.5165630000000 1.0
C      1  0.4665860000000  0.5845650000000  0.4752500000000 1.0
C      1  0.5469460000000  0.4724540000000  0.5360300000000 1.0
C      1  0.4922700000000  0.5275460000000  0.5586720000000 1.0
C      1  0.4453240000000  0.4724550000000  0.5226410000000 1.0
C      1  0.4530540000000  0.5275460000000  0.4639700000000 1.0
C      1  0.5077300000000  0.4724540000000  0.4413280000000 1.0
C      1  0.5546760000000  0.5275450000000  0.4773590000000 1.0
C      1  0.4320710000000  0.5300870000000  0.5326770000000 1.0
C      1  0.4377360000000  0.4699130000000  0.4575110000000 1.0
C      1  0.5056650000000  0.5300870000000  0.4248340000000 1.0
C      1  0.5679290000000  0.4699130000000  0.4673230000000 1.0
C      1  0.5622640000000  0.5300870000000  0.5424890000000 1.0
C      1  0.4943350000000  0.4699130000000  0.5751660000000 1.0
C      1  0.5234750000000  0.4895420000000  0.4939460000000 1.0
C      1  0.5169800000000  0.5104580000000  0.5173030000000 1.0
C      1  0.4935060000000  0.4895420000000  0.5233570000000 1.0
C      1  0.4765250000000  0.5104580000000  0.5060540000000 1.0
C      1  0.4830200000000  0.4895420000000  0.4826970000000 1.0
C      1  0.5064940000000  0.5104580000000  0.4766430000000 1.0
C      1  0.4687790000000  0.4272870000000  0.5462130000000 1.0
C      1  0.4443680000000  0.5727130000000  0.4960690000000 1.0
C      1  0.4755880000000  0.4272870000000  0.4498560000000 1.0
C      1  0.5312210000000  0.5727130000000  0.4537870000000 1.0
C      1  0.5556320000000  0.4272870000000  0.5039310000000 1.0
C      1  0.5244120000000  0.5727130000000  0.5501440000000 1.0
C      1  0.5944990000000  0.4761820000000  0.5407220000000 1.0
C      1  0.5119840000000  0.5238180000000  0.6022000000000 1.0
C      1  0.4174840000000  0.4761820000000  0.5614780000000 1.0
C      1  0.4055010000000  0.5238180000000  0.4592780000000 1.0
C      1  0.4880160000000  0.4761820000000  0.3978000000000 1.0
C      1  0.5825160000000  0.5238180000000  0.4385220000000 1.0
C      1  0.4999390000000  0.4480230000000  0.5272510000000 1.0
C      1  0.4763700000000  0.5519770000000  0.5135730000000 1.0
C      1  0.4764300000000  0.4480230000000  0.4863220000000 1.0
C      1  0.5000610000000  0.5519770000000  0.4727490000000 1.0
C      1  0.5236300000000  0.4480230000000  0.4864270000000 1.0
C      1  0.5235700000000  0.5519770000000  0.5136780000000 1.0
C      1  0.4383410000000  0.4282950000000  0.5002810000000 1.0
C      1  0.4689270000000  0.5717050000000  0.4467420000000 1.0
C      1  0.5305860000000  0.4282950000000  0.4464610000000 1.0
C      1  0.5616590000000  0.5717050000000  0.4997190000000 1.0
C      1  0.5310730000000  0.4282950000000  0.5532580000000 1.0
C      1  0.4694140000000  0.5717050000000  0.5535390000000 1.0
C      1  0.4331950000000  0.5547020000000  0.4750020000000 1.0
C      1  0.4882460000000  0.4452980000000  0.4296460000000 1.0
C      1  0.5550520000000  0.5547020000000  0.4546440000000 1.0
C      1  0.5668050000000  0.4452980000000  0.5249980000000 1.0
C      1  0.5117540000000  0.5547020000000  0.5703540000000 1.0
C      1  0.4449480000000  0.4452980000000  0.5453560000000 1.0
C      1  0.4415140000000  0.4922090000000  0.5722610000000 1.0
C      1  0.4081770000000  0.5077920000000  0.4854800000000 1.0
C      1  0.4666630000000  0.4922090000000  0.4132190000000 1.0
C      1  0.5584860000000  0.5077910000000  0.4277390000000 1.0
C      1  0.5918230000000  0.4922080000000  0.5145200000000 1.0
C      1  0.5333370000000  0.5077910000000  0.5867810000000 1.0
END
