TITL C-862502-1143-444 -0.0131771332191158 125000 -587.673332670174 0 0 106 (C2) n - 1
REM
REM in /home/nfs/bkarasulu/CARBON/AIRSS/Generating-Clusters/TERSOFF/Higher-Symm/FIRE-HFTN
REM
REM
REM
REM
REM
REM ./C.cell (b20cbc046b6831c77cfcea5457e17084)
REM AIRSS Version 0.9.1 bugfix July 2018 build 013d7b7c2542+ Fri, 06 Jul 2018 19:26:36 +0100
REM compiler GCC version 9.2.1 20190827 (Red Hat 9.2.1-1)
REM options -cpp -mtune=generic -march=x86-64 -g -O0 -fpre-include=/usr/include/finclude/math-vector-fortran.h
REM seed -1296773454 -1478908050 1774596955 1777252330 1073365493 310349402 297277118 -1868904018 84538540 -1711338296 -1167834761 -943963246 787591093 1449903961 -1490545124 911680007 -582837503 -2145718296 -387159035 24184320 369896687 2090202675 -344751107 859724396 492138396 -1085993244 442743876 625093062 1891884927 -1994672962 -70989659 -558333288 1167686472
REM
CELL 1.54180   50.00000   50.00000   50.00000   90.00000   90.00000   90.00000
LATT -1
SFAC C  
C      1  0.5888270000000  0.4916550000000  0.4593640000000 1.0
C      1  0.5292890000000  0.5152180000000  0.5780700000000 1.0
C      1  0.4109280000000  0.4916680000000  0.5403890000000 1.0
C      1  0.4704690000000  0.5152170000000  0.4216820000000 1.0
C      1  0.5396630000000  0.4339070000000  0.5567320000000 1.0
C      1  0.4474040000000  0.5671050000000  0.5453910000000 1.0
C      1  0.4600850000000  0.4339090000000  0.4430240000000 1.0
C      1  0.5523600000000  0.5670970000000  0.4543580000000 1.0
C      1  0.4473830000000  0.5066610000000  0.4376750000000 1.0
C      1  0.5652910000000  0.4947740000000  0.4416530000000 1.0
C      1  0.5523740000000  0.5066590000000  0.5620770000000 1.0
C      1  0.4344650000000  0.4947850000000  0.5581000000000 1.0
C      1  0.5116460000000  0.5323150000000  0.5415520000000 1.0
C      1  0.4482040000000  0.4665410000000  0.5053430000000 1.0
C      1  0.4881140000000  0.5323140000000  0.4581990000000 1.0
C      1  0.5515480000000  0.4665350000000  0.4944120000000 1.0
C      1  0.4311460000000  0.5462450000000  0.4885710000000 1.0
C      1  0.5190580000000  0.4559740000000  0.4352850000000 1.0
C      1  0.5686160000000  0.5462370000000  0.5111790000000 1.0
C      1  0.4806930000000  0.4559800000000  0.5644700000000 1.0
C      1  0.4251230000000  0.4652480000000  0.4590730000000 1.0
C      1  0.5306020000000  0.5313810000000  0.4280510000000 1.0
C      1  0.5746290000000  0.4652420000000  0.5406820000000 1.0
C      1  0.4691580000000  0.5313880000000  0.5717000000000 1.0
C      1  0.4565310000000  0.4728070000000  0.5535050000000 1.0
C      1  0.4383840000000  0.5263650000000  0.4637450000000 1.0
C      1  0.5432220000000  0.4727990000000  0.4462490000000 1.0
C      1  0.5613750000000  0.5263600000000  0.5360060000000 1.0
C      1  0.4985600000000  0.5595080000000  0.4223780000000 1.0
C      1  0.5800260000000  0.4357950000000  0.5083300000000 1.0
C      1  0.5012030000000  0.5595120000000  0.5773710000000 1.0
C      1  0.4197220000000  0.4358040000000  0.4914260000000 1.0
C      1  0.5636350000000  0.4506400000000  0.4549360000000 1.0
C      1  0.5514060000000  0.5483680000000  0.5573210000000 1.0
C      1  0.4361160000000  0.4506500000000  0.5448200000000 1.0
C      1  0.4483550000000  0.5483710000000  0.4424290000000 1.0
C      1  0.4742330000000  0.5235680000000  0.5997970000000 1.0
C      1  0.3962240000000  0.4681840000000  0.4535050000000 1.0
C      1  0.5255260000000  0.5235590000000  0.3999550000000 1.0
C      1  0.6035280000000  0.4681750000000  0.5462500000000 1.0
C      1  0.5182320000000  0.5813760000000  0.5419600000000 1.0
C      1  0.4547190000000  0.4174550000000  0.5130910000000 1.0
C      1  0.4815340000000  0.5813760000000  0.4577880000000 1.0
C      1  0.5450270000000  0.4174490000000  0.4866670000000 1.0
C      1  0.5373300000000  0.5904520000000  0.5202550000000 1.0
C      1  0.4755070000000  0.4101990000000  0.5343330000000 1.0
C      1  0.4624370000000  0.5904560000000  0.4794930000000 1.0
C      1  0.5242380000000  0.4101940000000  0.4654250000000 1.0
C      1  0.5225220000000  0.5561480000000  0.5563160000000 1.0
C      1  0.4368690000000  0.4405860000000  0.5162800000000 1.0
C      1  0.4772410000000  0.5561480000000  0.4434340000000 1.0
C      1  0.5628800000000  0.4405780000000  0.4834760000000 1.0
C      1  0.4775480000000  0.4255790000000  0.5611800000000 1.0
C      1  0.4354640000000  0.5763080000000  0.4839720000000 1.0
C      1  0.5221990000000  0.4255730000000  0.4385770000000 1.0
C      1  0.5643010000000  0.5763010000000  0.5157760000000 1.0
C      1  0.4833850000000  0.4241410000000  0.4544930000000 1.0
C      1  0.5435750000000  0.5759760000000  0.4792680000000 1.0
C      1  0.5163620000000  0.4241410000000  0.5452640000000 1.0
C      1  0.4561900000000  0.5759820000000  0.5204810000000 1.0
C      1  0.4821400000000  0.5710590000000  0.5111030000000 1.0
C      1  0.4901020000000  0.4288150000000  0.4812940000000 1.0
C      1  0.5176240000000  0.5710560000000  0.4886460000000 1.0
C      1  0.5096460000000  0.4288150000000  0.5184630000000 1.0
C      1  0.5281490000000  0.3878940000000  0.5276520000000 1.0
C      1  0.4757250000000  0.6115820000000  0.5311690000000 1.0
C      1  0.4715940000000  0.3878960000000  0.4721070000000 1.0
C      1  0.5240440000000  0.6115770000000  0.4685780000000 1.0
C      1  0.4065450000000  0.5093100000000  0.5176550000000 1.0
C      1  0.4930440000000  0.4977480000000  0.4165550000000 1.0
C      1  0.5932120000000  0.5092980000000  0.4820980000000 1.0
C      1  0.5067120000000  0.4977520000000  0.5831980000000 1.0
C      1  0.5680850000000  0.5432040000000  0.4568440000000 1.0
C      1  0.5352800000000  0.4593240000000  0.5696680000000 1.0
C      1  0.4316760000000  0.5432150000000  0.5429060000000 1.0
C      1  0.4644710000000  0.4593240000000  0.4300870000000 1.0
C      1  0.5323640000000  0.5182720000000  0.5270320000000 1.0
C      1  0.4633020000000  0.4811960000000  0.5250310000000 1.0
C      1  0.4673940000000  0.5182740000000  0.4727200000000 1.0
C      1  0.5364520000000  0.4811910000000  0.4747230000000 1.0
C      1  0.4342970000000  0.4792720000000  0.4837690000000 1.0
C      1  0.5113980000000  0.5191130000000  0.4477090000000 1.0
C      1  0.5654560000000  0.4792650000000  0.5159850000000 1.0
C      1  0.4883610000000  0.5191180000000  0.5520420000000 1.0
C      1  0.4973270000000  0.3893570000000  0.5258850000000 1.0
C      1  0.4737700000000  0.6107740000000  0.5003180000000 1.0
C      1  0.5024160000000  0.3893550000000  0.4738740000000 1.0
C      1  0.5260000000000  0.6107710000000  0.4994290000000 1.0
C      1  0.5789620000000  0.5348270000000  0.4839890000000 1.0
C      1  0.5068360000000  0.4697030000000  0.5748620000000 1.0
C      1  0.4207990000000  0.5348370000000  0.5157610000000 1.0
C      1  0.4929170000000  0.4697000000000  0.4248920000000 1.0
C      1  0.5576780000000  0.5230100000000  0.4382940000000 1.0
C      1  0.5568330000000  0.4776410000000  0.5615000000000 1.0
C      1  0.4420810000000  0.5230200000000  0.5614570000000 1.0
C      1  0.4429200000000  0.4776440000000  0.4382540000000 1.0
C      1  0.5463670000000  0.4085560000000  0.5163080000000 1.0
C      1  0.4893350000000  0.5907440000000  0.5474930000000 1.0
C      1  0.4533780000000  0.4085600000000  0.4834500000000 1.0
C      1  0.5104320000000  0.5907410000000  0.4522550000000 1.0
C      1  0.4345000000000  0.4310570000000  0.4625270000000 1.0
C      1  0.5288130000000  0.5671000000000  0.4322690000000 1.0
C      1  0.5652480000000  0.4310510000000  0.5372300000000 1.0
C      1  0.4709520000000  0.5671070000000  0.5674800000000 1.0
C      1  0.4998840000000  0.5927550000000  0.4998740000000 1.0
C      1  0.4998730000000  0.4071830000000  0.4998790000000 1.0
END
