TITL C-862501-1041-202 6.29737860409037e-06 125000 -543.561332437316 0 0 98 (D2d) n - 1
REM
REM in /home/nfs/bkarasulu/CARBON/AIRSS/Generating-Clusters/TERSOFF/Higher-Symm/FIRE-HFTN
REM
REM
REM
REM
REM
REM ./C.cell (b20cbc046b6831c77cfcea5457e17084)
REM AIRSS Version 0.9.1 bugfix July 2018 build 013d7b7c2542+ Fri, 06 Jul 2018 19:26:36 +0100
REM compiler GCC version 9.2.1 20190827 (Red Hat 9.2.1-1)
REM options -cpp -mtune=generic -march=x86-64 -g -O0 -fpre-include=/usr/include/finclude/math-vector-fortran.h
REM seed 1078893181 1567460172 1934084044 155395872 1955448754 1420811247 -2123585982 1915369775 -1757806851 -1727351332 1603621433 266490357 535052309 -42823369 -467808180 533405918 270252764 -1112237012 -1663213981 2068995305 636013856 -775625153 -775786899 1476075075 1854105802 1511695385 -1720889994 1837064348 -836056104 1007164801 -67926812 -39218291 652499379
REM
CELL 1.54180   50.00000   50.00000   50.00000   90.00000   90.00000   90.00000
LATT -1
SFAC C  
C      1  0.4769590000000  0.4294000000000  0.5450430000000 1.0
C      1  0.5230410000000  0.5706000000000  0.5450430000000 1.0
C      1  0.5230410000000  0.4294000000000  0.4530170000000 1.0
C      1  0.4769590000000  0.5706000000000  0.4530170000000 1.0
C      1  0.4294000000000  0.4769590000000  0.5450430000000 1.0
C      1  0.5706000000000  0.5230410000000  0.5450430000000 1.0
C      1  0.4294000000000  0.5230410000000  0.4530170000000 1.0
C      1  0.5706000000000  0.4769590000000  0.4530170000000 1.0
C      1  0.4520340000000  0.4742980000000  0.5649940000000 1.0
C      1  0.5479660000000  0.5257020000000  0.5649940000000 1.0
C      1  0.5479660000000  0.4742980000000  0.4330660000000 1.0
C      1  0.4520340000000  0.5257020000000  0.4330660000000 1.0
C      1  0.4742980000000  0.4520340000000  0.5649940000000 1.0
C      1  0.5257020000000  0.5479660000000  0.5649940000000 1.0
C      1  0.4742980000000  0.5479660000000  0.4330660000000 1.0
C      1  0.5257020000000  0.4520340000000  0.4330660000000 1.0
C      1  0.5003250000000  0.5325390000000  0.5622440000000 1.0
C      1  0.4996750000000  0.4674610000000  0.5622440000000 1.0
C      1  0.4996750000000  0.5325390000000  0.4358160000000 1.0
C      1  0.5003250000000  0.4674610000000  0.4358160000000 1.0
C      1  0.5325390000000  0.5003250000000  0.5622440000000 1.0
C      1  0.4674610000000  0.4996750000000  0.5622440000000 1.0
C      1  0.5325390000000  0.4996750000000  0.4358160000000 1.0
C      1  0.4674610000000  0.5003250000000  0.4358160000000 1.0
C      1  0.5895540000000  0.4620070000000  0.4966040000000 1.0
C      1  0.4104460000000  0.5379930000000  0.4966040000000 1.0
C      1  0.4104460000000  0.4620070000000  0.5014560000000 1.0
C      1  0.5895540000000  0.5379930000000  0.5014560000000 1.0
C      1  0.4620070000000  0.5895540000000  0.4966040000000 1.0
C      1  0.5379930000000  0.4104460000000  0.4966040000000 1.0
C      1  0.4620070000000  0.4104460000000  0.5014560000000 1.0
C      1  0.5379930000000  0.5895540000000  0.5014560000000 1.0
C      1  0.5443120000000  0.4762460000000  0.4882690000000 1.0
C      1  0.4556880000000  0.5237540000000  0.4882690000000 1.0
C      1  0.4556880000000  0.4762460000000  0.5097910000000 1.0
C      1  0.5443120000000  0.5237540000000  0.5097910000000 1.0
C      1  0.4762460000000  0.5443120000000  0.4882690000000 1.0
C      1  0.5237540000000  0.4556880000000  0.4882690000000 1.0
C      1  0.4762460000000  0.4556880000000  0.5097910000000 1.0
C      1  0.5237540000000  0.5443120000000  0.5097910000000 1.0
C      1  0.5174440000000  0.5471000000000  0.4811520000000 1.0
C      1  0.4825560000000  0.4529000000000  0.4811520000000 1.0
C      1  0.4825560000000  0.5471000000000  0.5169080000000 1.0
C      1  0.5174440000000  0.4529000000000  0.5169080000000 1.0
C      1  0.5471000000000  0.5174440000000  0.4811520000000 1.0
C      1  0.4529000000000  0.4825560000000  0.4811520000000 1.0
C      1  0.5471000000000  0.4825560000000  0.5169080000000 1.0
C      1  0.4529000000000  0.5174440000000  0.5169080000000 1.0
C      1  0.5820910000000  0.5064100000000  0.4608200000000 1.0
C      1  0.4179090000000  0.4935900000000  0.4608200000000 1.0
C      1  0.4179090000000  0.5064100000000  0.5372400000000 1.0
C      1  0.5820910000000  0.4935900000000  0.5372400000000 1.0
C      1  0.5064100000000  0.5820910000000  0.4608200000000 1.0
C      1  0.4935900000000  0.4179090000000  0.4608200000000 1.0
C      1  0.5064100000000  0.4179090000000  0.5372400000000 1.0
C      1  0.4935900000000  0.5820910000000  0.5372400000000 1.0
C      1  0.4755210000000  0.4550620000000  0.4248060000000 1.0
C      1  0.5244790000000  0.5449380000000  0.4248060000000 1.0
C      1  0.5244790000000  0.4550620000000  0.5732540000000 1.0
C      1  0.4755210000000  0.5449380000000  0.5732540000000 1.0
C      1  0.4550620000000  0.4755210000000  0.4248060000000 1.0
C      1  0.5449380000000  0.5244790000000  0.4248060000000 1.0
C      1  0.4550620000000  0.5244790000000  0.5732540000000 1.0
C      1  0.5449380000000  0.4755210000000  0.5732540000000 1.0
C      1  0.4323690000000  0.5420170000000  0.4767070000000 1.0
C      1  0.5676310000000  0.4579830000000  0.4767070000000 1.0
C      1  0.5676310000000  0.5420170000000  0.5213530000000 1.0
C      1  0.4323690000000  0.4579830000000  0.5213530000000 1.0
C      1  0.5420170000000  0.4323690000000  0.4767070000000 1.0
C      1  0.4579830000000  0.5676310000000  0.4767070000000 1.0
C      1  0.5420170000000  0.5676310000000  0.5213530000000 1.0
C      1  0.4579830000000  0.4323690000000  0.5213530000000 1.0
C      1  0.4997440000000  0.4744860000000  0.5299980000000 1.0
C      1  0.5002560000000  0.5255140000000  0.5299980000000 1.0
C      1  0.5002560000000  0.4744860000000  0.4680620000000 1.0
C      1  0.4997440000000  0.5255140000000  0.4680620000000 1.0
C      1  0.4744860000000  0.4997440000000  0.5299980000000 1.0
C      1  0.5255140000000  0.5002560000000  0.5299980000000 1.0
C      1  0.4744860000000  0.5002560000000  0.4680620000000 1.0
C      1  0.5255140000000  0.4997440000000  0.4680620000000 1.0
C      1  0.5362170000000  0.4382690000000  0.5367830000000 1.0
C      1  0.4637830000000  0.5617310000000  0.5367830000000 1.0
C      1  0.4637830000000  0.4382690000000  0.4612770000000 1.0
C      1  0.5362170000000  0.5617310000000  0.4612770000000 1.0
C      1  0.4382690000000  0.5362170000000  0.5367830000000 1.0
C      1  0.5617310000000  0.4637830000000  0.5367830000000 1.0
C      1  0.4382690000000  0.4637830000000  0.4612770000000 1.0
C      1  0.5617310000000  0.5362170000000  0.4612770000000 1.0
C      1  0.5114210000000  0.5942860000000  0.4894040000000 1.0
C      1  0.4885790000000  0.4057140000000  0.4894040000000 1.0
C      1  0.4885790000000  0.5942860000000  0.5086560000000 1.0
C      1  0.5114210000000  0.4057140000000  0.5086560000000 1.0
C      1  0.5942860000000  0.5114210000000  0.4894040000000 1.0
C      1  0.4057140000000  0.4885790000000  0.4894040000000 1.0
C      1  0.5942860000000  0.4885790000000  0.5086560000000 1.0
C      1  0.4057140000000  0.5114210000000  0.5086560000000 1.0
C      1  0.5000000000000  0.5000000000000  0.4257820000000 1.0
C      1  0.5000000000000  0.5000000000000  0.5722780000000 1.0
END
