TITL C-862130-1496-1030 1387.29770751306 125000 -760.381706245247 0 0 140 (C1) n - 1
REM
REM in /home/nfs/bkarasulu/CARBON/AIRSS/Generating-Clusters/TERSOFF/Higher-Symm/FIRE-HFTN
REM
REM
REM
REM
REM
REM ./C.cell (b20cbc046b6831c77cfcea5457e17084)
REM AIRSS Version 0.9.1 bugfix July 2018 build 013d7b7c2542+ Fri, 06 Jul 2018 19:26:36 +0100
REM compiler GCC version 9.2.1 20190827 (Red Hat 9.2.1-1)
REM options -cpp -mtune=generic -march=x86-64 -g -O0 -fpre-include=/usr/include/finclude/math-vector-fortran.h
REM seed 920945502 -976672995 -341656602 895179206 432402463 1204580152 -1852491478 327618209 -172968565 -176449900 2025333008 1399473641 -46265511 953808133 421401012 -1031975312 -2070803511 1993642363 -1541383826 2073266853 -636423855 -1512626579 2103034253 809634452 2117315975 -1033162421 2112114281 1124261359 -1774147746 1319829707 -1929546616 -2022216972 -2128596679
REM
CELL 1.54180   50.00000   50.00000   50.00000   90.00000   90.00000   90.00000
LATT -1
SFAC C  
C      1  0.5227010000000  0.4421020000000  0.4555180000000 1.0
C      1  0.4739150000000  0.4353510000000  0.5509110000000 1.0
C      1  0.4722900000000  0.4235290000000  0.4498820000000 1.0
C      1  0.5254190000000  0.4413080000000  0.5463530000000 1.0
C      1  0.5558450000000  0.5349260000000  0.5251930000000 1.0
C      1  0.4465390000000  0.5345000000000  0.4744910000000 1.0
C      1  0.4469000000000  0.5334400000000  0.5250220000000 1.0
C      1  0.5551240000000  0.5345600000000  0.4752050000000 1.0
C      1  0.5517300000000  0.4503230000000  0.5543750000000 1.0
C      1  0.4524540000000  0.4451580000000  0.4482620000000 1.0
C      1  0.4476070000000  0.4484940000000  0.5575840000000 1.0
C      1  0.5512970000000  0.4507280000000  0.4474650000000 1.0
C      1  0.5895920000000  0.4895510000000  0.4443180000000 1.0
C      1  0.4118310000000  0.4888250000000  0.5574080000000 1.0
C      1  0.4148230000000  0.4862430000000  0.4448360000000 1.0
C      1  0.5909510000000  0.4904330000000  0.5568850000000 1.0
C      1  0.4867410000000  0.5559760000000  0.5256690000000 1.0
C      1  0.5147460000000  0.5589420000000  0.4773760000000 1.0
C      1  0.5148720000000  0.5563580000000  0.5255220000000 1.0
C      1  0.4864360000000  0.5602130000000  0.4763210000000 1.0
C      1  0.4728710000000  0.5811580000000  0.4556250000000 1.0
C      1  0.5293660000000  0.5780190000000  0.5457840000000 1.0
C      1  0.5291910000000  0.5784850000000  0.4556080000000 1.0
C      1  0.4715490000000  0.5772320000000  0.5459580000000 1.0
C      1  0.5355260000000  0.4121370000000  0.4525320000000 1.0
C      1  0.4590040000000  0.4085440000000  0.5514440000000 1.0
C      1  0.4631650000000  0.3968430000000  0.4554530000000 1.0
C      1  0.5250740000000  0.4114350000000  0.5382460000000 1.0
C      1  0.5509220000000  0.4641090000000  0.4220270000000 1.0
C      1  0.4505870000000  0.4656090000000  0.5809350000000 1.0
C      1  0.4556890000000  0.4625740000000  0.4250410000000 1.0
C      1  0.5507360000000  0.4660530000000  0.5789360000000 1.0
C      1  0.4422450000000  0.5163260000000  0.5483690000000 1.0
C      1  0.5591840000000  0.5174840000000  0.4519310000000 1.0
C      1  0.5605620000000  0.5180440000000  0.5481860000000 1.0
C      1  0.4430400000000  0.5166810000000  0.4516260000000 1.0
C      1  0.5166130000000  0.5004330000000  0.5275470000000 1.0
C      1  0.4899180000000  0.5115730000000  0.4612340000000 1.0
C      1  0.4872840000000  0.5038550000000  0.5381980000000 1.0
C      1  0.5139910000000  0.5024130000000  0.4762780000000 1.0
C      1  0.5666300000000  0.4901590000000  0.5788970000000 1.0
C      1  0.4387900000000  0.4856450000000  0.4237630000000 1.0
C      1  0.4351700000000  0.4897750000000  0.5800400000000 1.0
C      1  0.5659770000000  0.4888240000000  0.4220570000000 1.0
C      1  0.5282670000000  0.4579650000000  0.4032010000000 1.0
C      1  0.4750080000000  0.4621940000000  0.5988580000000 1.0
C      1  0.4772440000000  0.4571990000000  0.4049640000000 1.0
C      1  0.5272100000000  0.4623530000000  0.5975780000000 1.0
C      1  0.5746140000000  0.4530060000000  0.4673450000000 1.0
C      1  0.4250390000000  0.4504210000000  0.5364410000000 1.0
C      1  0.4274410000000  0.4475720000000  0.4670550000000 1.0
C      1  0.5747450000000  0.4521610000000  0.5341480000000 1.0
C      1  0.4048650000000  0.5301370000000  0.4729710000000 1.0
C      1  0.5977270000000  0.5339330000000  0.5270640000000 1.0
C      1  0.5969690000000  0.5335000000000  0.4724770000000 1.0
C      1  0.4051010000000  0.5306230000000  0.5268200000000 1.0
C      1  0.5134200000000  0.4766590000000  0.4510170000000 1.0
C      1  0.4784100000000  0.4687490000000  0.5375700000000 1.0
C      1  0.4842270000000  0.4897080000000  0.4396480000000 1.0
C      1  0.5099160000000  0.4685040000000  0.5372090000000 1.0
C      1  0.4747230000000  0.5164570000000  0.3950660000000 1.0
C      1  0.5273730000000  0.5222700000000  0.6039720000000 1.0
C      1  0.5273810000000  0.5184090000000  0.3958920000000 1.0
C      1  0.4740480000000  0.5216870000000  0.6048710000000 1.0
C      1  0.4729190000000  0.5385940000000  0.5664540000000 1.0
C      1  0.5284490000000  0.5386560000000  0.4326700000000 1.0
C      1  0.5289140000000  0.5394080000000  0.5656680000000 1.0
C      1  0.4723010000000  0.5384170000000  0.4307670000000 1.0
C      1  0.4483980000000  0.5108320000000  0.4099990000000 1.0
C      1  0.5544120000000  0.5162330000000  0.5896820000000 1.0
C      1  0.5541410000000  0.5140150000000  0.4103840000000 1.0
C      1  0.4469970000000  0.5158860000000  0.5904500000000 1.0
C      1  0.4451290000000  0.5665900000000  0.4728090000000 1.0
C      1  0.5555450000000  0.5664170000000  0.5274710000000 1.0
C      1  0.5557950000000  0.5663570000000  0.4730310000000 1.0
C      1  0.4458230000000  0.5649740000000  0.5275770000000 1.0
C      1  0.5861500000000  0.5511380000000  0.5517680000000 1.0
C      1  0.4158480000000  0.5485310000000  0.4487230000000 1.0
C      1  0.4155270000000  0.5485570000000  0.5515090000000 1.0
C      1  0.5851990000000  0.5501860000000  0.4478240000000 1.0
C      1  0.5447100000000  0.3989020000000  0.5218850000000 1.0
C      1  0.4509200000000  0.3906250000000  0.4801700000000 1.0
C      1  0.4454110000000  0.3989380000000  0.5285980000000 1.0
C      1  0.5515030000000  0.3996470000000  0.4728860000000 1.0
C      1  0.5566330000000  0.5549280000000  0.5678250000000 1.0
C      1  0.4449280000000  0.5541230000000  0.4327420000000 1.0
C      1  0.4448410000000  0.5533870000000  0.5678990000000 1.0
C      1  0.5557690000000  0.5546520000000  0.4327270000000 1.0
C      1  0.4108610000000  0.5002240000000  0.4729450000000 1.0
C      1  0.5944190000000  0.5040060000000  0.5277760000000 1.0
C      1  0.5929220000000  0.5036740000000  0.4727200000000 1.0
C      1  0.4088900000000  0.5009980000000  0.5280700000000 1.0
C      1  0.4751950000000  0.5290250000000  0.5256380000000 1.0
C      1  0.5268320000000  0.5312780000000  0.4783630000000 1.0
C      1  0.5277980000000  0.5298830000000  0.5247260000000 1.0
C      1  0.4750130000000  0.5342220000000  0.4724590000000 1.0
C      1  0.5019250000000  0.4390450000000  0.5927670000000 1.0
C      1  0.5014360000000  0.4350460000000  0.4105640000000 1.0
C      1  0.5489650000000  0.4407480000000  0.4982400000000 1.0
C      1  0.4544830000000  0.4381740000000  0.4977430000000 1.0
C      1  0.4459000000000  0.5814510000000  0.5008420000000 1.0
C      1  0.5550090000000  0.5822470000000  0.5004470000000 1.0
C      1  0.4761000000000  0.4514000000000  0.4840870000000 1.0
C      1  0.5252410000000  0.4486420000000  0.4840200000000 1.0
C      1  0.4366330000000  0.5243590000000  0.4998000000000 1.0
C      1  0.5664850000000  0.5257130000000  0.5002510000000 1.0
C      1  0.4993700000000  0.4285690000000  0.4388800000000 1.0
C      1  0.5007830000000  0.4336280000000  0.5643490000000 1.0
C      1  0.5021000000000  0.4755810000000  0.3998370000000 1.0
C      1  0.5009860000000  0.4806190000000  0.5980410000000 1.0
C      1  0.6027480000000  0.5468900000000  0.4995750000000 1.0
C      1  0.3986560000000  0.5429340000000  0.4998910000000 1.0
C      1  0.5007780000000  0.5521460000000  0.5699010000000 1.0
C      1  0.5003410000000  0.5515040000000  0.4289520000000 1.0
C      1  0.5014620000000  0.5037080000000  0.3997580000000 1.0
C      1  0.5008320000000  0.5085690000000  0.5998030000000 1.0
C      1  0.5006890000000  0.5783440000000  0.4400740000000 1.0
C      1  0.5004300000000  0.5805540000000  0.5612000000000 1.0
C      1  0.4774230000000  0.5749140000000  0.5017740000000 1.0
C      1  0.5235330000000  0.5755270000000  0.5018540000000 1.0
C      1  0.5727080000000  0.4611300000000  0.5018690000000 1.0
C      1  0.4278430000000  0.4551080000000  0.5023770000000 1.0
C      1  0.5545180000000  0.4120740000000  0.4986990000000 1.0
C      1  0.4563560000000  0.4074470000000  0.5031660000000 1.0
C      1  0.4157710000000  0.4854840000000  0.5010560000000 1.0
C      1  0.5873820000000  0.4892970000000  0.5007560000000 1.0
C      1  0.4360100000000  0.6089120000000  0.5018550000000 1.0
C      1  0.5647260000000  0.6097720000000  0.5005460000000 1.0
C      1  0.5018740000000  0.4580190000000  0.4973980000000 1.0
C      1  0.5147790000000  0.6440730000000  0.5158270000000 1.0
C      1  0.5044510000000  0.6671350000000  0.5017110000000 1.0
C      1  0.4727740000000  0.4962140000000  0.4995370000000 1.0
C      1  0.5002800000000  0.5964890000000  0.5032960000000 1.0
C      1  0.4973490000000  0.4344510000000  0.5161040000000 1.0
C      1  0.5032410000000  0.3342840000000  0.5033690000000 1.0
C      1  0.4999870000000  0.6196630000000  0.5206340000000 1.0
C      1  0.4942660000000  0.3601840000000  0.4940760000000 1.0
C      1  0.5031170000000  0.3855620000000  0.5048190000000 1.0
C      1  0.4862410000000  0.4089640000000  0.5080790000000 1.0
C      1  0.5022870000000  0.4890920000000  0.5012100000000 1.0
END
