TITL C-862501-1041-1486 1.68151553493604 125000 -785.833578941487 0 0 138 (Ci) n - 1
REM
REM in /home/nfs/bkarasulu/CARBON/AIRSS/Generating-Clusters/TERSOFF/Higher-Symm/FIRE-HFTN
REM
REM
REM
REM
REM
REM ./C.cell (b20cbc046b6831c77cfcea5457e17084)
REM AIRSS Version 0.9.1 bugfix July 2018 build 013d7b7c2542+ Fri, 06 Jul 2018 19:26:36 +0100
REM compiler GCC version 9.2.1 20190827 (Red Hat 9.2.1-1)
REM options -cpp -mtune=generic -march=x86-64 -g -O0 -fpre-include=/usr/include/finclude/math-vector-fortran.h
REM seed 574984776 1031752909 1909993244 830115617 -295946894 376105278 -1062371530 304717513 1172695544 -294820291 1759200305 1454641625 -1229611993 -1578801730 1072036593 -1490460836 -803184564 -632048278 -878029525 1664479482 2081961357 56504362 -1553515331 -1024134486 -1415007827 -912456648 -1301836333 1336768024 2087473797 690549073 -1447380535 1731152553 -2123889258
REM
CELL 1.54180   50.00000   50.00000   50.00000   90.00000   90.00000   90.00000
LATT -1
SFAC C  
C      1  0.4182090000000  0.5091820000000  0.4896890000000 1.0
C      1  0.5817910000000  0.4908180000000  0.5103110000000 1.0
C      1  0.4651190000000  0.4779470000000  0.5130540000000 1.0
C      1  0.5348810000000  0.5220530000000  0.4869460000000 1.0
C      1  0.4988830000000  0.5718220000000  0.4324550000000 1.0
C      1  0.5011170000000  0.4281780000000  0.5675450000000 1.0
C      1  0.4548130000000  0.4399760000000  0.4779220000000 1.0
C      1  0.5451870000000  0.5600240000000  0.5220780000000 1.0
C      1  0.6081670000000  0.4773900000000  0.5195730000000 1.0
C      1  0.3918330000000  0.5226100000000  0.4804270000000 1.0
C      1  0.5799870000000  0.5161320000000  0.5437640000000 1.0
C      1  0.4200130000000  0.4838680000000  0.4562360000000 1.0
C      1  0.4888790000000  0.5439000000000  0.6031960000000 1.0
C      1  0.5111210000000  0.4561000000000  0.3968040000000 1.0
C      1  0.4719500000000  0.4909820000000  0.4044280000000 1.0
C      1  0.5280500000000  0.5090180000000  0.5955720000000 1.0
C      1  0.4354880000000  0.4240660000000  0.4921750000000 1.0
C      1  0.5645120000000  0.5759340000000  0.5078250000000 1.0
C      1  0.4777050000000  0.5873500000000  0.5116100000000 1.0
C      1  0.5222950000000  0.4126500000000  0.4883900000000 1.0
C      1  0.4237570000000  0.5496280000000  0.4995050000000 1.0
C      1  0.5762430000000  0.4503720000000  0.5004950000000 1.0
C      1  0.5999880000000  0.5339670000000  0.5310180000000 1.0
C      1  0.4000120000000  0.4660330000000  0.4689820000000 1.0
C      1  0.5497630000000  0.5618560000000  0.5513340000000 1.0
C      1  0.4502370000000  0.4381440000000  0.4486660000000 1.0
C      1  0.4506230000000  0.5468410000000  0.4256810000000 1.0
C      1  0.5493770000000  0.4531590000000  0.5743190000000 1.0
C      1  0.5419500000000  0.5005650000000  0.4514270000000 1.0
C      1  0.4580500000000  0.4994350000000  0.5485730000000 1.0
C      1  0.4516020000000  0.5381710000000  0.5014860000000 1.0
C      1  0.5483980000000  0.4618290000000  0.4985140000000 1.0
C      1  0.4465160000000  0.5437730000000  0.5758720000000 1.0
C      1  0.5534840000000  0.4562270000000  0.4241280000000 1.0
C      1  0.5633430000000  0.4272310000000  0.5689180000000 1.0
C      1  0.4366570000000  0.5727690000000  0.4310820000000 1.0
C      1  0.5956370000000  0.4639400000000  0.4732320000000 1.0
C      1  0.4043630000000  0.5360600000000  0.5267680000000 1.0
C      1  0.5218180000000  0.4236620000000  0.4368040000000 1.0
C      1  0.4781820000000  0.5763380000000  0.5631960000000 1.0
C      1  0.5418310000000  0.5352910000000  0.5931470000000 1.0
C      1  0.4581690000000  0.4647090000000  0.4068530000000 1.0
C      1  0.4700520000000  0.5871620000000  0.4815190000000 1.0
C      1  0.5299480000000  0.4128380000000  0.5184810000000 1.0
C      1  0.4823910000000  0.5471480000000  0.4252940000000 1.0
C      1  0.5176090000000  0.4528520000000  0.5747060000000 1.0
C      1  0.4402900000000  0.5424210000000  0.5479180000000 1.0
C      1  0.5597100000000  0.4575790000000  0.4520820000000 1.0
C      1  0.4038890000000  0.5229890000000  0.5557300000000 1.0
C      1  0.5961110000000  0.4770110000000  0.4442700000000 1.0
C      1  0.4566070000000  0.4701100000000  0.5419500000000 1.0
C      1  0.5433930000000  0.5298900000000  0.4580500000000 1.0
C      1  0.5299130000000  0.4426140000000  0.4151270000000 1.0
C      1  0.4700870000000  0.5573860000000  0.5848730000000 1.0
C      1  0.4975200000000  0.5154460000000  0.6008310000000 1.0
C      1  0.5024800000000  0.4845540000000  0.3991690000000 1.0
C      1  0.4814750000000  0.4990890000000  0.4373350000000 1.0
C      1  0.5185250000000  0.5009110000000  0.5626650000000 1.0
C      1  0.5541250000000  0.5134690000000  0.5321350000000 1.0
C      1  0.4458750000000  0.4865310000000  0.4678650000000 1.0
C      1  0.5019740000000  0.4567920000000  0.4676570000000 1.0
C      1  0.4980260000000  0.5432080000000  0.5323430000000 1.0
C      1  0.4121950000000  0.4738080000000  0.5437790000000 1.0
C      1  0.5878050000000  0.5261920000000  0.4562210000000 1.0
C      1  0.5875150000000  0.4496250000000  0.5296920000000 1.0
C      1  0.4124850000000  0.5503750000000  0.4703080000000 1.0
C      1  0.4501230000000  0.5017390000000  0.5778550000000 1.0
C      1  0.5498770000000  0.4982610000000  0.4221450000000 1.0
C      1  0.5146150000000  0.5923020000000  0.5360090000000 1.0
C      1  0.4853850000000  0.4076980000000  0.4639910000000 1.0
C      1  0.4968830000000  0.5438260000000  0.4754040000000 1.0
C      1  0.5031170000000  0.4561740000000  0.5245960000000 1.0
C      1  0.5740190000000  0.4669460000000  0.5546870000000 1.0
C      1  0.4259810000000  0.5330540000000  0.4453130000000 1.0
C      1  0.5303250000000  0.5700850000000  0.4275990000000 1.0
C      1  0.4696750000000  0.4299150000000  0.5724010000000 1.0
C      1  0.5092280000000  0.5672110000000  0.4909040000000 1.0
C      1  0.4907720000000  0.4327890000000  0.5090960000000 1.0
C      1  0.5455290000000  0.5779420000000  0.4537400000000 1.0
C      1  0.4544710000000  0.4220580000000  0.5462600000000 1.0
C      1  0.5813290000000  0.5023060000000  0.4369960000000 1.0
C      1  0.4186710000000  0.4976940000000  0.5630040000000 1.0
C      1  0.5458840000000  0.5316900000000  0.5127520000000 1.0
C      1  0.4541160000000  0.4683100000000  0.4872480000000 1.0
C      1  0.4982930000000  0.4064210000000  0.4377420000000 1.0
C      1  0.5017070000000  0.5935790000000  0.5622580000000 1.0
C      1  0.4231650000000  0.5119450000000  0.5179510000000 1.0
C      1  0.5768350000000  0.4880550000000  0.4820490000000 1.0
C      1  0.5459570000000  0.5438610000000  0.4292430000000 1.0
C      1  0.4540430000000  0.4561390000000  0.5707570000000 1.0
C      1  0.4837710000000  0.4333840000000  0.4806290000000 1.0
C      1  0.5162290000000  0.5666160000000  0.5193710000000 1.0
C      1  0.4931600000000  0.5891210000000  0.4589310000000 1.0
C      1  0.5068400000000  0.4108790000000  0.5410690000000 1.0
C      1  0.5832580000000  0.5633780000000  0.4905800000000 1.0
C      1  0.4167420000000  0.4366220000000  0.5094200000000 1.0
C      1  0.5228820000000  0.4336550000000  0.4653560000000 1.0
C      1  0.4771180000000  0.5663450000000  0.5346440000000 1.0
C      1  0.3996920000000  0.4587690000000  0.4980080000000 1.0
C      1  0.6003080000000  0.5412310000000  0.5019920000000 1.0
C      1  0.5496780000000  0.4791410000000  0.4710610000000 1.0
C      1  0.4503220000000  0.5208590000000  0.5289390000000 1.0
C      1  0.5003010000000  0.5215500000000  0.4299730000000 1.0
C      1  0.4996990000000  0.4784500000000  0.5700270000000 1.0
C      1  0.4260900000000  0.5767240000000  0.4577510000000 1.0
C      1  0.5739100000000  0.4232760000000  0.5422490000000 1.0
C      1  0.5862000000000  0.4931680000000  0.5602340000000 1.0
C      1  0.4138000000000  0.5068320000000  0.4397660000000 1.0
C      1  0.5700410000000  0.3817350000000  0.5138350000000 1.0
C      1  0.4299590000000  0.6182650000000  0.4861650000000 1.0
C      1  0.4794280000000  0.4941190000000  0.5889360000000 1.0
C      1  0.5205720000000  0.5058810000000  0.4110640000000 1.0
C      1  0.5113540000000  0.5046800000000  0.4829760000000 1.0
C      1  0.4886460000000  0.4953200000000  0.5170240000000 1.0
C      1  0.5320290000000  0.5492550000000  0.5698840000000 1.0
C      1  0.4679710000000  0.4507450000000  0.4301160000000 1.0
C      1  0.5108310000000  0.4764640000000  0.4867740000000 1.0
C      1  0.4891690000000  0.5235360000000  0.5132260000000 1.0
C      1  0.4690430000000  0.5319740000000  0.4774350000000 1.0
C      1  0.5309570000000  0.4680260000000  0.5225650000000 1.0
C      1  0.4890740000000  0.4674810000000  0.4426200000000 1.0
C      1  0.5109260000000  0.5325190000000  0.5573800000000 1.0
C      1  0.4418160000000  0.5941260000000  0.4751100000000 1.0
C      1  0.5581840000000  0.4058740000000  0.5248900000000 1.0
C      1  0.4870560000000  0.4655980000000  0.5466330000000 1.0
C      1  0.5129440000000  0.5344020000000  0.4533670000000 1.0
C      1  0.4266260000000  0.4412760000000  0.5377690000000 1.0
C      1  0.5733740000000  0.5587240000000  0.4622310000000 1.0
C      1  0.3810400000000  0.5057750000000  0.5088740000000 1.0
C      1  0.6189600000000  0.4942250000000  0.4911260000000 1.0
C      1  0.4591980000000  0.5117370000000  0.3882690000000 1.0
C      1  0.5408020000000  0.4882630000000  0.6117310000000 1.0
C      1  0.6062230000000  0.5205370000000  0.4818960000000 1.0
C      1  0.3937770000000  0.4794630000000  0.5181040000000 1.0
C      1  0.4774250000000  0.4126460000000  0.5275610000000 1.0
C      1  0.5225750000000  0.5873540000000  0.4724390000000 1.0
C      1  0.4631840000000  0.5076580000000  0.4594430000000 1.0
C      1  0.5368160000000  0.4923420000000  0.5405570000000 1.0
END
