TITL C-862501-1041-109 48.2093265585786 125000 -718.164402666238 0 0 125 (C1) n - 1
REM
REM in /home/nfs/bkarasulu/CARBON/AIRSS/Generating-Clusters/TERSOFF/Higher-Symm/FIRE-HFTN
REM
REM
REM
REM
REM
REM ./C.cell (b20cbc046b6831c77cfcea5457e17084)
REM AIRSS Version 0.9.1 bugfix July 2018 build 013d7b7c2542+ Fri, 06 Jul 2018 19:26:36 +0100
REM compiler GCC version 9.2.1 20190827 (Red Hat 9.2.1-1)
REM options -cpp -mtune=generic -march=x86-64 -g -O0 -fpre-include=/usr/include/finclude/math-vector-fortran.h
REM seed -194791266 -441152032 -123790914 -1895444177 -1745669851 2040059992 -1519314624 1732587864 -432247650 479634487 -1025396866 950802221 -1870579436 1573925132 349890526 249578035 1428413415 2068854856 -401943528 -2044829358 -1261092310 -1698054694 -1345991574 1725405928 -1948397253 -1690242544 1217051484 644771046 -17506831 1877497188 -1696606940 1356634938 1574430617
REM
CELL 1.54180   50.00000   50.00000   50.00000   90.00000   90.00000   90.00000
LATT -1
SFAC C  
C      1  0.4385460000000  0.4481090000000  0.5440170000000 1.0
C      1  0.4861390000000  0.5769710000000  0.5429200000000 1.0
C      1  0.5744080000000  0.4716440000000  0.5434870000000 1.0
C      1  0.4390630000000  0.4495620000000  0.4592950000000 1.0
C      1  0.4857710000000  0.5790860000000  0.4581320000000 1.0
C      1  0.5753840000000  0.4723040000000  0.4585810000000 1.0
C      1  0.5262400000000  0.4277930000000  0.5174650000000 1.0
C      1  0.4251020000000  0.5125950000000  0.5168290000000 1.0
C      1  0.5500180000000  0.5586050000000  0.5133560000000 1.0
C      1  0.5259840000000  0.4281160000000  0.4879980000000 1.0
C      1  0.4254370000000  0.5129810000000  0.4873330000000 1.0
C      1  0.5496440000000  0.5595960000000  0.4838470000000 1.0
C      1  0.5011130000000  0.4715650000000  0.4880350000000 1.0
C      1  0.4754140000000  0.5141130000000  0.4872020000000 1.0
C      1  0.5235590000000  0.5165130000000  0.4818300000000 1.0
C      1  0.5017490000000  0.4714970000000  0.5188800000000 1.0
C      1  0.4753040000000  0.5115120000000  0.5184710000000 1.0
C      1  0.5256670000000  0.5149850000000  0.5125100000000 1.0
C      1  0.5745520000000  0.5012980000000  0.4640940000000 1.0
C      1  0.4643960000000  0.4358220000000  0.4647700000000 1.0
C      1  0.4615410000000  0.5635090000000  0.4640230000000 1.0
C      1  0.5732620000000  0.5002530000000  0.5375530000000 1.0
C      1  0.4641740000000  0.4347250000000  0.5382980000000 1.0
C      1  0.4614420000000  0.5619920000000  0.5373390000000 1.0
C      1  0.5242830000000  0.5424120000000  0.5547990000000 1.0
C      1  0.5259670000000  0.4559140000000  0.5603030000000 1.0
C      1  0.4485010000000  0.4982100000000  0.5600410000000 1.0
C      1  0.5250970000000  0.5463440000000  0.4407620000000 1.0
C      1  0.5261720000000  0.4579470000000  0.4463280000000 1.0
C      1  0.4507720000000  0.4998810000000  0.4447330000000 1.0
C      1  0.4928890000000  0.4041660000000  0.5361150000000 1.0
C      1  0.4203800000000  0.5533610000000  0.5356100000000 1.0
C      1  0.5865550000000  0.5400780000000  0.5369270000000 1.0
C      1  0.4931040000000  0.4052010000000  0.4657490000000 1.0
C      1  0.4205900000000  0.5543370000000  0.4655230000000 1.0
C      1  0.5861030000000  0.5415830000000  0.4666980000000 1.0
C      1  0.4767720000000  0.4878850000000  0.4351680000000 1.0
C      1  0.5030770000000  0.5285800000000  0.4300290000000 1.0
C      1  0.5243940000000  0.4875280000000  0.4433800000000 1.0
C      1  0.4742590000000  0.4880170000000  0.5719370000000 1.0
C      1  0.5001600000000  0.5251360000000  0.5555920000000 1.0
C      1  0.5226390000000  0.4843550000000  0.5701570000000 1.0
C      1  0.5920140000000  0.4545970000000  0.5270550000000 1.0
C      1  0.4151680000000  0.4421680000000  0.5268960000000 1.0
C      1  0.4923340000000  0.6008510000000  0.5265870000000 1.0
C      1  0.5921200000000  0.4548680000000  0.4757180000000 1.0
C      1  0.4154380000000  0.4427830000000  0.4756200000000 1.0
C      1  0.4919930000000  0.6022880000000  0.4753200000000 1.0
C      1  0.4904970000000  0.5392830000000  0.5172460000000 1.0
C      1  0.5406400000000  0.4868060000000  0.5147760000000 1.0
C      1  0.4699980000000  0.4699430000000  0.5161900000000 1.0
C      1  0.4907030000000  0.5423570000000  0.4855990000000 1.0
C      1  0.5391060000000  0.4886430000000  0.4827010000000 1.0
C      1  0.4693980000000  0.4726470000000  0.4843150000000 1.0
C      1  0.4955660000000  0.5650750000000  0.5911040000000 1.0
C      1  0.5623650000000  0.4727120000000  0.5924550000000 1.0
C      1  0.4442290000000  0.4586580000000  0.5929940000000 1.0
C      1  0.4909800000000  0.5688690000000  0.4089300000000 1.0
C      1  0.5606770000000  0.4705420000000  0.4104030000000 1.0
C      1  0.4455760000000  0.4615770000000  0.4108390000000 1.0
C      1  0.5436280000000  0.4902630000000  0.3967100000000 1.0
C      1  0.4708280000000  0.4678250000000  0.3970190000000 1.0
C      1  0.4835970000000  0.5439480000000  0.3950680000000 1.0
C      1  0.5443280000000  0.4914530000000  0.6062980000000 1.0
C      1  0.4694930000000  0.4641460000000  0.6071040000000 1.0
C      1  0.4863710000000  0.5406940000000  0.6047800000000 1.0
C      1  0.4505730000000  0.5084950000000  0.4731660000000 1.0
C      1  0.5324770000000  0.5409990000000  0.4690070000000 1.0
C      1  0.5182380000000  0.4525940000000  0.4743140000000 1.0
C      1  0.4496920000000  0.5067410000000  0.5315330000000 1.0
C      1  0.5335930000000  0.5388040000000  0.5268680000000 1.0
C      1  0.5183490000000  0.4519250000000  0.5320810000000 1.0
C      1  0.4690990000000  0.4120250000000  0.5159040000000 1.0
C      1  0.4392200000000  0.5699960000000  0.5155580000000 1.0
C      1  0.5920110000000  0.5158430000000  0.5163120000000 1.0
C      1  0.4688560000000  0.4121420000000  0.4860960000000 1.0
C      1  0.4390400000000  0.5711630000000  0.4858510000000 1.0
C      1  0.5914970000000  0.5168090000000  0.4865440000000 1.0
C      1  0.4422520000000  0.5502400000000  0.4421080000000 1.0
C      1  0.5730710000000  0.5253160000000  0.4418680000000 1.0
C      1  0.4858170000000  0.4267460000000  0.4426010000000 1.0
C      1  0.4414900000000  0.5495190000000  0.5596850000000 1.0
C      1  0.5709300000000  0.5232860000000  0.5595410000000 1.0
C      1  0.4853430000000  0.4239550000000  0.5605000000000 1.0
C      1  0.5919960000000  0.4257610000000  0.5302110000000 1.0
C      1  0.3902810000000  0.4569530000000  0.5299650000000 1.0
C      1  0.5174300000000  0.6151830000000  0.5299400000000 1.0
C      1  0.5914590000000  0.4259000000000  0.4726960000000 1.0
C      1  0.3905710000000  0.4574500000000  0.4725280000000 1.0
C      1  0.5168530000000  0.6169920000000  0.4722360000000 1.0
C      1  0.4464450000000  0.5249880000000  0.5752320000000 1.0
C      1  0.5460050000000  0.5311640000000  0.5724590000000 1.0
C      1  0.5040600000000  0.4408250000000  0.5757890000000 1.0
C      1  0.4478300000000  0.5252280000000  0.4280680000000 1.0
C      1  0.5492510000000  0.5330330000000  0.4260430000000 1.0
C      1  0.5047580000000  0.4447570000000  0.4293070000000 1.0
C      1  0.4951950000000  0.4505830000000  0.6019800000000 1.0
C      1  0.4600400000000  0.5280300000000  0.6010340000000 1.0
C      1  0.5396220000000  0.5196150000000  0.5986210000000 1.0
C      1  0.4972110000000  0.4560960000000  0.4033400000000 1.0
C      1  0.4603320000000  0.5270060000000  0.4016220000000 1.0
C      1  0.5450930000000  0.5195040000000  0.4003320000000 1.0
C      1  0.3994240000000  0.5048940000000  0.5279230000000 1.0
C      1  0.5551220000000  0.5842730000000  0.5258320000000 1.0
C      1  0.5460260000000  0.4096630000000  0.5285430000000 1.0
C      1  0.4001640000000  0.5052020000000  0.4753670000000 1.0
C      1  0.5547240000000  0.5861680000000  0.4733100000000 1.0
C      1  0.5452640000000  0.4101640000000  0.4759210000000 1.0
C      1  0.5415630000000  0.6092250000000  0.4854210000000 1.0
C      1  0.5723440000000  0.4088550000000  0.4865960000000 1.0
C      1  0.3853370000000  0.4825150000000  0.4862300000000 1.0
C      1  0.5418100000000  0.6081380000000  0.5156830000000 1.0
C      1  0.5727870000000  0.4085720000000  0.5168790000000 1.0
C      1  0.3850660000000  0.4822400000000  0.5164990000000 1.0
C      1  0.4385090000000  0.4708030000000  0.4380070000000 1.0
C      1  0.5037220000000  0.5702020000000  0.4355610000000 1.0
C      1  0.5566070000000  0.4611120000000  0.4380680000000 1.0
C      1  0.4375310000000  0.4685490000000  0.5659760000000 1.0
C      1  0.5052920000000  0.5661040000000  0.5632900000000 1.0
C      1  0.5572150000000  0.4609060000000  0.5658650000000 1.0
C      1  0.4786830000000  0.6042880000000  0.5011290000000 1.0
C      1  0.4196280000000  0.4294010000000  0.5011280000000 1.0
C      1  0.6012250000000  0.4650090000000  0.5014430000000 1.0
C      1  0.4991910000000  0.4995950000000  0.5672230000000 1.0
C      1  0.5014690000000  0.5011730000000  0.4351730000000 1.0
END
