TITL C-862131-2149-502 -0.000118738639306329 125000 -800.377106333357 0 0 138 (S4) n - 1
REM
REM in /home/nfs/bkarasulu/CARBON/AIRSS/Generating-Clusters/TERSOFF/Higher-Symm/FIRE-HFTN
REM
REM
REM
REM
REM
REM ./C.cell (b20cbc046b6831c77cfcea5457e17084)
REM AIRSS Version 0.9.1 bugfix July 2018 build 013d7b7c2542+ Fri, 06 Jul 2018 19:26:36 +0100
REM compiler GCC version 9.2.1 20190827 (Red Hat 9.2.1-1)
REM options -cpp -mtune=generic -march=x86-64 -g -O0 -fpre-include=/usr/include/finclude/math-vector-fortran.h
REM seed 393091181 -395256858 -1970039752 -162003221 255204026 514006441 -1546801493 269284126 346581870 -1275678333 1761184383 229953449 -1466900341 -654762719 -1391687599 383767379 272961405 -125710198 -348964491 1279423945 1954875679 -1458230204 -1508745276 -1422532047 -1747136075 1869135571 -1296333651 -1885497887 -537810422 526571691 668323510 31755338 -197573261
REM
CELL 1.54180   50.00000   50.00000   50.00000   90.00000   90.00000   90.00000
LATT -1
SFAC C  
C      1  0.4866110000000  0.5179280000000  0.4997080000000 1.0
C      1  0.4819630000000  0.4863010000000  0.5002920000000 1.0
C      1  0.5135900000000  0.4816530000000  0.4997080000000 1.0
C      1  0.5182380000000  0.5132800000000  0.5002920000000 1.0
C      1  0.3942400000000  0.4766720000000  0.5046090000000 1.0
C      1  0.5232190000000  0.3939310000000  0.4953910000000 1.0
C      1  0.6059600000000  0.5229100000000  0.5046090000000 1.0
C      1  0.4769810000000  0.6056510000000  0.4953920000000 1.0
C      1  0.4441470000000  0.5497370000000  0.5562810000000 1.0
C      1  0.4501540000000  0.4438380000000  0.4437180000000 1.0
C      1  0.5560530000000  0.4498440000000  0.5562810000000 1.0
C      1  0.5500470000000  0.5557440000000  0.4437190000000 1.0
C      1  0.5328190000000  0.4614000000000  0.5095670000000 1.0
C      1  0.5384910000000  0.5325090000000  0.4904330000000 1.0
C      1  0.4673820000000  0.5381810000000  0.5095670000000 1.0
C      1  0.4617090000000  0.4670720000000  0.4904330000000 1.0
C      1  0.4206920000000  0.5498660000000  0.5100870000000 1.0
C      1  0.4500250000000  0.4203820000000  0.4899130000000 1.0
C      1  0.5795090000000  0.4497160000000  0.5100870000000 1.0
C      1  0.5501750000000  0.5791990000000  0.4899130000000 1.0
C      1  0.5786970000000  0.5067300000000  0.4339550000000 1.0
C      1  0.4931610000000  0.5783870000000  0.5660450000000 1.0
C      1  0.4215040000000  0.4928510000000  0.4339550000000 1.0
C      1  0.5070400000000  0.4211940000000  0.5660450000000 1.0
C      1  0.5521210000000  0.4062460000000  0.4903380000000 1.0
C      1  0.5936450000000  0.5518120000000  0.5096620000000 1.0
C      1  0.4480790000000  0.5933360000000  0.4903380000000 1.0
C      1  0.4065550000000  0.4477700000000  0.5096620000000 1.0
C      1  0.5335050000000  0.6014770000000  0.4759090000000 1.0
C      1  0.3984140000000  0.5331950000000  0.5240910000000 1.0
C      1  0.4666960000000  0.3981050000000  0.4759090000000 1.0
C      1  0.6017860000000  0.4663860000000  0.5240910000000 1.0
C      1  0.4855000000000  0.4020850000000  0.5338090000000 1.0
C      1  0.5978060000000  0.4851900000000  0.4661910000000 1.0
C      1  0.5147010000000  0.5974960000000  0.5338090000000 1.0
C      1  0.4023950000000  0.5143910000000  0.4661910000000 1.0
C      1  0.5513870000000  0.4987090000000  0.3917560000000 1.0
C      1  0.5011820000000  0.5510770000000  0.6082440000000 1.0
C      1  0.4488140000000  0.5008730000000  0.3917560000000 1.0
C      1  0.4990180000000  0.4485040000000  0.6082440000000 1.0
C      1  0.4918740000000  0.5676510000000  0.4623830000000 1.0
C      1  0.4322400000000  0.4915650000000  0.5376170000000 1.0
C      1  0.5083260000000  0.4319300000000  0.4623830000000 1.0
C      1  0.5679610000000  0.5080160000000  0.5376170000000 1.0
C      1  0.5438640000000  0.4857040000000  0.5789580000000 1.0
C      1  0.5141860000000  0.5435550000000  0.4210420000000 1.0
C      1  0.4563360000000  0.5138760000000  0.5789580000000 1.0
C      1  0.4860140000000  0.4560270000000  0.4210420000000 1.0
C      1  0.4451800000000  0.4837760000000  0.4145180000000 1.0
C      1  0.5161140000000  0.4448700000000  0.5854810000000 1.0
C      1  0.5550210000000  0.5158050000000  0.4145190000000 1.0
C      1  0.4840860000000  0.5547110000000  0.5854820000000 1.0
C      1  0.4217100000000  0.5240750000000  0.4424800000000 1.0
C      1  0.4758150000000  0.4214000000000  0.5575200000000 1.0
C      1  0.5784910000000  0.4755060000000  0.4424800000000 1.0
C      1  0.5243850000000  0.5781810000000  0.5575200000000 1.0
C      1  0.5259510000000  0.4212350000000  0.5438370000000 1.0
C      1  0.5786560000000  0.5256420000000  0.4561630000000 1.0
C      1  0.4742490000000  0.5783460000000  0.5438380000000 1.0
C      1  0.4215450000000  0.4739400000000  0.4561620000000 1.0
C      1  0.5562180000000  0.4153760000000  0.4630280000000 1.0
C      1  0.5845150000000  0.5559080000000  0.5369720000000 1.0
C      1  0.4439830000000  0.5842060000000  0.4630280000000 1.0
C      1  0.4156850000000  0.4436730000000  0.5369720000000 1.0
C      1  0.5039220000000  0.4791830000000  0.4589460000000 1.0
C      1  0.5207080000000  0.5036120000000  0.5410540000000 1.0
C      1  0.4962790000000  0.5203990000000  0.4589460000000 1.0
C      1  0.4794920000000  0.4959690000000  0.5410540000000 1.0
C      1  0.5344370000000  0.5503540000000  0.5467440000000 1.0
C      1  0.4495370000000  0.5341280000000  0.4532560000000 1.0
C      1  0.4657630000000  0.4492270000000  0.5467440000000 1.0
C      1  0.5506640000000  0.4654540000000  0.4532560000000 1.0
C      1  0.5040210000000  0.5655480000000  0.4950400000000 1.0
C      1  0.4343430000000  0.5037120000000  0.5049610000000 1.0
C      1  0.4961790000000  0.4340340000000  0.4950390000000 1.0
C      1  0.5658570000000  0.4958690000000  0.5049610000000 1.0
C      1  0.5317840000000  0.5586050000000  0.4976130000000 1.0
C      1  0.4412860000000  0.5314740000000  0.5023880000000 1.0
C      1  0.4684170000000  0.4409770000000  0.4976120000000 1.0
C      1  0.5589140000000  0.4681070000000  0.5023880000000 1.0
C      1  0.5382160000000  0.5122660000000  0.4435780000000 1.0
C      1  0.4876250000000  0.5379060000000  0.5564220000000 1.0
C      1  0.4619850000000  0.4873150000000  0.4435780000000 1.0
C      1  0.5125760000000  0.4616750000000  0.5564220000000 1.0
C      1  0.4298120000000  0.5795620000000  0.5114180000000 1.0
C      1  0.4203280000000  0.4295020000000  0.4885820000000 1.0
C      1  0.5703890000000  0.4200190000000  0.5114180000000 1.0
C      1  0.5798720000000  0.5700790000000  0.4885820000000 1.0
C      1  0.4546330000000  0.5430180000000  0.5840170000000 1.0
C      1  0.4568730000000  0.4543240000000  0.4159820000000 1.0
C      1  0.5455670000000  0.4565630000000  0.5840170000000 1.0
C      1  0.5433280000000  0.5452580000000  0.4159830000000 1.0
C      1  0.5293550000000  0.5555830000000  0.6045650000000 1.0
C      1  0.4443080000000  0.5290450000000  0.3954350000000 1.0
C      1  0.4708460000000  0.4439980000000  0.6045650000000 1.0
C      1  0.5558930000000  0.4705360000000  0.3954350000000 1.0
C      1  0.4005140000000  0.5019420000000  0.5297020000000 1.0
C      1  0.4979490000000  0.4002040000000  0.4702980000000 1.0
C      1  0.5996870000000  0.4976390000000  0.5297020000000 1.0
C      1  0.5022520000000  0.5993770000000  0.4702980000000 1.0
C      1  0.5890980000000  0.5023540000000  0.4893480000000 1.0
C      1  0.4975370000000  0.5887880000000  0.5106520000000 1.0
C      1  0.4111030000000  0.4972270000000  0.4893480000000 1.0
C      1  0.5026640000000  0.4107930000000  0.5106520000000 1.0
C      1  0.5670700000000  0.5350660000000  0.5798920000000 1.0
C      1  0.4648250000000  0.5667610000000  0.4201080000000 1.0
C      1  0.4331300000000  0.4645150000000  0.5798920000000 1.0
C      1  0.5353760000000  0.4328200000000  0.4201080000000 1.0
C      1  0.4934670000000  0.4548320000000  0.4493820000000 1.0
C      1  0.5450580000000  0.4931570000000  0.5506180000000 1.0
C      1  0.5067330000000  0.5447490000000  0.4493830000000 1.0
C      1  0.4551420000000  0.5064230000000  0.5506170000000 1.0
C      1  0.5309230000000  0.4863790000000  0.4538270000000 1.0
C      1  0.5135120000000  0.5306130000000  0.5461730000000 1.0
C      1  0.4692780000000  0.5132030000000  0.4538270000000 1.0
C      1  0.4866880000000  0.4689680000000  0.5461730000000 1.0
C      1  0.4559080000000  0.4681910000000  0.5982500000000 1.0
C      1  0.5317000000000  0.4555990000000  0.4017500000000 1.0
C      1  0.5442920000000  0.5313900000000  0.5982500000000 1.0
C      1  0.4685010000000  0.5439830000000  0.4017500000000 1.0
C      1  0.4609690000000  0.5639100000000  0.4501660000000 1.0
C      1  0.4359810000000  0.4606590000000  0.5498340000000 1.0
C      1  0.5392320000000  0.4356720000000  0.4501650000000 1.0
C      1  0.5642190000000  0.5389220000000  0.5498350000000 1.0
C      1  0.4678180000000  0.5496890000000  0.5365000000000 1.0
C      1  0.4502010000000  0.4675080000000  0.4635000000000 1.0
C      1  0.5323830000000  0.4498920000000  0.5365000000000 1.0
C      1  0.5499990000000  0.5320730000000  0.4635000000000 1.0
C      1  0.4952170000000  0.5296710000000  0.4028470000000 1.0
C      1  0.4702200000000  0.4949070000000  0.5971530000000 1.0
C      1  0.5049840000000  0.4699110000000  0.4028470000000 1.0
C      1  0.5299800000000  0.5046740000000  0.5971530000000 1.0
C      1  0.5790110000000  0.4648780000000  0.4135020000000 1.0
C      1  0.5350130000000  0.5787010000000  0.5864980000000 1.0
C      1  0.4211890000000  0.5347040000000  0.4135020000000 1.0
C      1  0.4651870000000  0.4208790000000  0.5864970000000 1.0
C      1  0.5001000000000  0.4997910000000  0.3916740000000 1.0
C      1  0.5001000000000  0.4997900000000  0.6083260000000 1.0
END
