TITL C-862130-1496-556 0.0024959666207205 125000 -763.809410921558 0 0 130 (C5) n - 1
REM
REM in /home/nfs/bkarasulu/CARBON/AIRSS/Generating-Clusters/TERSOFF/Higher-Symm/FIRE-HFTN
REM
REM
REM
REM
REM
REM ./C.cell (b20cbc046b6831c77cfcea5457e17084)
REM AIRSS Version 0.9.1 bugfix July 2018 build 013d7b7c2542+ Fri, 06 Jul 2018 19:26:36 +0100
REM compiler GCC version 9.2.1 20190827 (Red Hat 9.2.1-1)
REM options -cpp -mtune=generic -march=x86-64 -g -O0 -fpre-include=/usr/include/finclude/math-vector-fortran.h
REM seed -1862622126 340402576 1952026644 -494474349 -78324592 -1607602738 -656924780 -1247588400 -1888120282 -780822441 -1066578710 1310606336 440261004 -2104088662 -889861637 -130775057 125838908 -1853960256 1703965635 -533917274 434884571 -1566914582 908571819 1502022904 -767912825 147595015 -2014526112 1433035618 -1410937129 -1526315600 -151020649 -874243808 314519809
REM
CELL 1.54180   50.00000   50.00000   50.00000   90.00000   90.00000   90.00000
LATT -1
SFAC C  
C      1  0.4376820000000  0.4535560000000  0.4609890000000 1.0
C      1  0.4376820000000  0.5227500000000  0.4437740000000 1.0
C      1  0.4376820000000  0.5605040000000  0.5042620000000 1.0
C      1  0.4376830000000  0.5146440000000  0.5588600000000 1.0
C      1  0.4376820000000  0.4485460000000  0.5321160000000 1.0
C      1  0.5445250000000  0.4578740000000  0.4289200000000 1.0
C      1  0.5445260000000  0.5545840000000  0.4379710000000 1.0
C      1  0.5445260000000  0.5758600000000  0.5327440000000 1.0
C      1  0.5445260000000  0.4923000000000  0.5822660000000 1.0
C      1  0.5445260000000  0.4193810000000  0.5180990000000 1.0
C      1  0.4696110000000  0.5860500000000  0.5281830000000 1.0
C      1  0.4696110000000  0.4997870000000  0.5905470000000 1.0
C      1  0.4696110000000  0.4138190000000  0.5277780000000 1.0
C      1  0.4696110000000  0.4469500000000  0.4266210000000 1.0
C      1  0.4696110000000  0.5533950000000  0.4268710000000 1.0
C      1  0.4058530000000  0.4437960000000  0.4951770000000 1.0
C      1  0.4058530000000  0.4872200000000  0.4450570000000 1.0
C      1  0.4058530000000  0.5483050000000  0.4708670000000 1.0
C      1  0.4058530000000  0.5426350000000  0.5369380000000 1.0
C      1  0.4058530000000  0.4780450000000  0.5519630000000 1.0
C      1  0.4577060000000  0.5251970000000  0.5775040000000 1.0
C      1  0.4577060000000  0.4340760000000  0.5479140000000 1.0
C      1  0.4577060000000  0.4340600000000  0.4521080000000 1.0
C      1  0.4577060000000  0.5251710000000  0.4224880000000 1.0
C      1  0.4577060000000  0.5814970000000  0.4999860000000 1.0
C      1  0.4135200000000  0.5302710000000  0.5607240000000 1.0
C      1  0.4135200000000  0.4516030000000  0.5475540000000 1.0
C      1  0.4135190000000  0.4398180000000  0.4686670000000 1.0
C      1  0.4135190000000  0.5112030000000  0.4330810000000 1.0
C      1  0.4135200000000  0.5671060000000  0.4899750000000 1.0
C      1  0.5720530000000  0.4326950000000  0.5071210000000 1.0
C      1  0.5720530000000  0.4724290000000  0.4381890000000 1.0
C      1  0.5720530000000  0.5502660000000  0.4546780000000 1.0
C      1  0.5720530000000  0.5586370000000  0.5338000000000 1.0
C      1  0.5720530000000  0.4859740000000  0.5662110000000 1.0
C      1  0.5772280000000  0.4113420000000  0.4612800000000 1.0
C      1  0.5772280000000  0.5094270000000  0.4037160000000 1.0
C      1  0.5772280000000  0.5944850000000  0.4792130000000 1.0
C      1  0.5772280000000  0.5489670000000  0.5834370000000 1.0
C      1  0.5772280000000  0.4357790000000  0.5723540000000 1.0
C      1  0.4858220000000  0.5275390000000  0.5055880000000 1.0
C      1  0.4858220000000  0.5031960000000  0.5279180000000 1.0
C      1  0.4858220000000  0.4744360000000  0.5116670000000 1.0
C      1  0.4858220000000  0.4810050000000  0.4792920000000 1.0
C      1  0.4858220000000  0.5138240000000  0.4755350000000 1.0
C      1  0.5471040000000  0.5033480000000  0.4750630000000 1.0
C      1  0.5471040000000  0.5247510000000  0.4954790000000 1.0
C      1  0.5471040000000  0.5119480000000  0.5221420000000 1.0
C      1  0.5471040000000  0.4826340000000  0.5182060000000 1.0
C      1  0.5471040000000  0.4773190000000  0.4891100000000 1.0
C      1  0.4532290000000  0.4722470000000  0.4180690000000 1.0
C      1  0.4532290000000  0.5693460000000  0.4482880000000 1.0
C      1  0.4532290000000  0.5706100000000  0.5499720000000 1.0
C      1  0.4532290000000  0.4742940000000  0.5825970000000 1.0
C      1  0.4532290000000  0.4135020000000  0.5010760000000 1.0
C      1  0.5011520000000  0.5825010000000  0.4681200000000 1.0
C      1  0.5011520000000  0.5558140000000  0.5686120000000 1.0
C      1  0.5011520000000  0.4519940000000  0.5742840000000 1.0
C      1  0.5011520000000  0.4145170000000  0.4772990000000 1.0
C      1  0.5011520000000  0.4951740000000  0.4116850000000 1.0
C      1  0.5867150000000  0.5231270000000  0.4526360000000 1.0
C      1  0.5867150000000  0.5521920000000  0.5073590000000 1.0
C      1  0.5867150000000  0.5091290000000  0.5519120000000 1.0
C      1  0.5867150000000  0.4534500000000  0.5247240000000 1.0
C      1  0.5867150000000  0.4621010000000  0.4633680000000 1.0
C      1  0.5308570000000  0.5157090000000  0.5680300000000 1.0
C      1  0.5308570000000  0.4401540000000  0.5359630000000 1.0
C      1  0.5308570000000  0.4473040000000  0.4541960000000 1.0
C      1  0.5308570000000  0.5272780000000  0.4357290000000 1.0
C      1  0.5308570000000  0.5695550000000  0.5060820000000 1.0
C      1  0.5168880000000  0.4744420000000  0.5940710000000 1.0
C      1  0.5168880000000  0.4026350000000  0.5047620000000 1.0
C      1  0.5168880000000  0.4653830000000  0.4088720000000 1.0
C      1  0.5168880000000  0.5759710000000  0.4389180000000 1.0
C      1  0.5168880000000  0.5815690000000  0.5533770000000 1.0
C      1  0.5098740000000  0.4413480000000  0.4900700000000 1.0
C      1  0.5098740000000  0.4913190000000  0.4411500000000 1.0
C      1  0.5098740000000  0.5532870000000  0.4735590000000 1.0
C      1  0.5098740000000  0.5416140000000  0.5425080000000 1.0
C      1  0.5098740000000  0.4724310000000  0.5527130000000 1.0
C      1  0.5994220000000  0.5043250000000  0.5255430000000 1.0
C      1  0.5994220000000  0.4770440000000  0.5120070000000 1.0
C      1  0.5994220000000  0.4814870000000  0.4818780000000 1.0
C      1  0.5994220000000  0.5115140000000  0.4767930000000 1.0
C      1  0.5994220000000  0.5256290000000  0.5037790000000 1.0
C      1  0.5045480000000  0.4668200000000  0.4572000000000 1.0
C      1  0.5045480000000  0.5304520000000  0.4552180000000 1.0
C      1  0.5045480000000  0.5520000000000  0.5151230000000 1.0
C      1  0.5045480000000  0.5016860000000  0.5541290000000 1.0
C      1  0.5045480000000  0.4490420000000  0.5183300000000 1.0
C      1  0.4699940000000  0.5821100000000  0.4716470000000 1.0
C      1  0.4699940000000  0.5523390000000  0.5693300000000 1.0
C      1  0.4699940000000  0.4502370000000  0.5712010000000 1.0
C      1  0.4699940000000  0.4169060000000  0.4746750000000 1.0
C      1  0.4699940000000  0.4984080000000  0.4131470000000 1.0
C      1  0.4291950000000  0.4319470000000  0.5101740000000 1.0
C      1  0.4291950000000  0.4692950000000  0.4384210000000 1.0
C      1  0.4291950000000  0.5490760000000  0.4517690000000 1.0
C      1  0.4291950000000  0.5610360000000  0.5317700000000 1.0
C      1  0.4291950000000  0.4886460000000  0.5678660000000 1.0
C      1  0.5744750000000  0.5653760000000  0.4812250000000 1.0
C      1  0.5744750000000  0.5380580000000  0.5563750000000 1.0
C      1  0.5744750000000  0.4581450000000  0.5536160000000 1.0
C      1  0.5744750000000  0.4360740000000  0.4767620000000 1.0
C      1  0.5744750000000  0.5023470000000  0.4320220000000 1.0
C      1  0.5482190000000  0.5252990000000  0.5475960000000 1.0
C      1  0.5482190000000  0.4625510000000  0.5387690000000 1.0
C      1  0.5482190000000  0.4515560000000  0.4763640000000 1.0
C      1  0.5482190000000  0.5075090000000  0.4466230000000 1.0
C      1  0.5482190000000  0.5530850000000  0.4906470000000 1.0
C      1  0.4970810000000  0.4969510000000  0.5843200000000 1.0
C      1  0.4970810000000  0.4188650000000  0.5231560000000 1.0
C      1  0.4970810000000  0.4529050000000  0.4299920000000 1.0
C      1  0.4970810000000  0.5520290000000  0.4335760000000 1.0
C      1  0.4970810000000  0.5792510000000  0.5289560000000 1.0
C      1  0.5189830000000  0.5191620000000  0.4097750000000 1.0
C      1  0.5189830000000  0.5917300000000  0.4903430000000 1.0
C      1  0.5189830000000  0.5375300000000  0.5842570000000 1.0
C      1  0.5189830000000  0.4314650000000  0.5617300000000 1.0
C      1  0.5189830000000  0.4201130000000  0.4538950000000 1.0
C      1  0.4509090000000  0.4741400000000  0.5165740000000 1.0
C      1  0.4509090000000  0.4762460000000  0.4805270000000 1.0
C      1  0.4509090000000  0.5111800000000  0.4713910000000 1.0
C      1  0.4509090000000  0.5306630000000  0.5017920000000 1.0
C      1  0.4509090000000  0.5077710000000  0.5297160000000 1.0
C      1  0.3973540000000  0.4934500000000  0.4741260000000 1.0
C      1  0.3973540000000  0.5225840000000  0.4857750000000 1.0
C      1  0.3973540000000  0.5205070000000  0.5170830000000 1.0
C      1  0.3973540000000  0.4900910000000  0.5247830000000 1.0
C      1  0.3973540000000  0.4733680000000  0.4982340000000 1.0
END
