TITL C-862128-1543-661 2.55398764495721 125000 -368.527286853676 0 0 67 (C1) n - 1
REM
REM in /home/nfs/bkarasulu/CARBON/AIRSS/Generating-Clusters/TERSOFF/Higher-Symm/FIRE-HFTN
REM
REM
REM
REM
REM
REM ./C.cell (b20cbc046b6831c77cfcea5457e17084)
REM AIRSS Version 0.9.1 bugfix July 2018 build 013d7b7c2542+ Fri, 06 Jul 2018 19:26:36 +0100
REM compiler GCC version 9.2.1 20190827 (Red Hat 9.2.1-1)
REM options -cpp -mtune=generic -march=x86-64 -g -O0 -fpre-include=/usr/include/finclude/math-vector-fortran.h
REM seed -1251499713 -1306148467 1662936744 1971069929 1580167045 -751867646 1195056537 -1317956298 170051793 2046113160 -1847728263 -1834540705 -283009259 -962911592 1669731584 -1190645406 -2116436106 -1404398779 -2002497940 1104530695 -657593637 167508964 -1310524510 112279946 1602162678 1855918691 -1135086119 -1165729281 136108925 -403224979 1314746710 1582384376 -2049211179
REM
CELL 1.54180   50.00000   50.00000   50.00000   90.00000   90.00000   90.00000
LATT -1
SFAC C  
C      1  0.4478810000000  0.4606980000000  0.5539020000000 1.0
C      1  0.4727020000000  0.4784410000000  0.5909930000000 1.0
C      1  0.4781990000000  0.4646170000000  0.4255490000000 1.0
C      1  0.4995990000000  0.4569020000000  0.5560810000000 1.0
C      1  0.4859980000000  0.4734020000000  0.5061830000000 1.0
C      1  0.5072640000000  0.4768880000000  0.4261830000000 1.0
C      1  0.5637970000000  0.5225270000000  0.4941520000000 1.0
C      1  0.5111850000000  0.5142850000000  0.5395220000000 1.0
C      1  0.5269380000000  0.4956310000000  0.5223400000000 1.0
C      1  0.5515330000000  0.4531500000000  0.4909580000000 1.0
C      1  0.4362910000000  0.5083800000000  0.5522340000000 1.0
C      1  0.5040600000000  0.5356210000000  0.4258830000000 1.0
C      1  0.5537070000000  0.4279890000000  0.4489510000000 1.0
C      1  0.5341040000000  0.4848440000000  0.4111580000000 1.0
C      1  0.5035080000000  0.5422530000000  0.5698940000000 1.0
C      1  0.5144420000000  0.4745560000000  0.5087320000000 1.0
C      1  0.4728480000000  0.5679880000000  0.5135860000000 1.0
C      1  0.5336800000000  0.5614260000000  0.4992400000000 1.0
C      1  0.5265130000000  0.5578560000000  0.4673710000000 1.0
C      1  0.4597750000000  0.5178020000000  0.4470060000000 1.0
C      1  0.5268810000000  0.5535490000000  0.5564870000000 1.0
C      1  0.5319240000000  0.5451530000000  0.4398530000000 1.0
C      1  0.5511430000000  0.5065520000000  0.5548340000000 1.0
C      1  0.4751060000000  0.5252640000000  0.4951760000000 1.0
C      1  0.4307360000000  0.5443960000000  0.4787260000000 1.0
C      1  0.4502920000000  0.4581710000000  0.5249680000000 1.0
C      1  0.5068030000000  0.5095970000000  0.5715370000000 1.0
C      1  0.5120060000000  0.4271740000000  0.4928680000000 1.0
C      1  0.4474030000000  0.4582240000000  0.4760140000000 1.0
C      1  0.5393150000000  0.4557080000000  0.5424840000000 1.0
C      1  0.5257630000000  0.4812160000000  0.5617630000000 1.0
C      1  0.4789090000000  0.5048110000000  0.5823270000000 1.0
C      1  0.4630570000000  0.4355750000000  0.4875750000000 1.0
C      1  0.5473990000000  0.4550480000000  0.4604740000000 1.0
C      1  0.5558660000000  0.5241430000000  0.4402740000000 1.0
C      1  0.5037980000000  0.5604410000000  0.5108250000000 1.0
C      1  0.4572780000000  0.5539430000000  0.4888650000000 1.0
C      1  0.5110460000000  0.5088650000000  0.4367010000000 1.0
C      1  0.4299350000000  0.4818080000000  0.5621980000000 1.0
C      1  0.5040770000000  0.4356760000000  0.4662960000000 1.0
C      1  0.4630870000000  0.5667610000000  0.5413470000000 1.0
C      1  0.4691050000000  0.4952520000000  0.4911060000000 1.0
C      1  0.5519610000000  0.5428940000000  0.5122160000000 1.0
C      1  0.5196630000000  0.5095190000000  0.4670260000000 1.0
C      1  0.4964600000000  0.5368230000000  0.5289070000000 1.0
C      1  0.4726740000000  0.5475210000000  0.5618120000000 1.0
C      1  0.4743900000000  0.4451710000000  0.5135290000000 1.0
C      1  0.5564380000000  0.4953520000000  0.4278860000000 1.0
C      1  0.5166200000000  0.4601590000000  0.4548680000000 1.0
C      1  0.4761690000000  0.5608050000000  0.4622840000000 1.0
C      1  0.5750920000000  0.5007140000000  0.5089510000000 1.0
C      1  0.5489060000000  0.5158160000000  0.4691060000000 1.0
C      1  0.4730740000000  0.4588120000000  0.5702110000000 1.0
C      1  0.5003770000000  0.4415830000000  0.5305630000000 1.0
C      1  0.5283200000000  0.4466410000000  0.5123950000000 1.0
C      1  0.4717150000000  0.4924030000000  0.4604400000000 1.0
C      1  0.5466320000000  0.5365870000000  0.5425680000000 1.0
C      1  0.4415760000000  0.4815870000000  0.5033660000000 1.0
C      1  0.5032410000000  0.4839440000000  0.4694160000000 1.0
C      1  0.5566410000000  0.4913660000000  0.5286310000000 1.0
C      1  0.4353650000000  0.5080780000000  0.5219600000000 1.0
C      1  0.5654300000000  0.4751970000000  0.4472830000000 1.0
C      1  0.4981680000000  0.5489540000000  0.4806830000000 1.0
C      1  0.4772570000000  0.5409900000000  0.4395310000000 1.0
C      1  0.4328530000000  0.5256630000000  0.4565540000000 1.0
C      1  0.4577600000000  0.4689580000000  0.4486500000000 1.0
C      1  0.4582650000000  0.5218820000000  0.5685480000000 1.0
END
