TITL C-862134-6730-64 0.000801159171052192 125000 -547.589146478934 0 0 102 (C2v) n - 1
REM
REM in /home/nfs/bkarasulu/CARBON/AIRSS/Generating-Clusters/TERSOFF/Higher-Symm/FIRE-HFTN
REM
REM
REM
REM
REM
REM ./C.cell (b20cbc046b6831c77cfcea5457e17084)
REM AIRSS Version 0.9.1 bugfix July 2018 build 013d7b7c2542+ Fri, 06 Jul 2018 19:26:36 +0100
REM compiler GCC version 9.2.1 20190827 (Red Hat 9.2.1-1)
REM options -cpp -mtune=generic -march=x86-64 -g -O0 -fpre-include=/usr/include/finclude/math-vector-fortran.h
REM seed 850670005 -1393577177 -1437523317 -1022619702 1916758842 183224210 26317888 -759620418 114549764 212324020 -691309648 1074681178 -1593775161 345173685 -824504685 22707489 -1947213586 167269058 -641302272 1964156418 -803042563 -2104742316 1821423456 -342766549 670001904 -1945670173 -575601899 1062903373 -1652007157 901376008 -65306911 -42461675 -1762574164
REM
CELL 1.54180   50.00000   50.00000   50.00000   90.00000   90.00000   90.00000
LATT -1
SFAC C  
C      1  0.4167170000000  0.5248180000000  0.4609270000000 1.0
C      1  0.5832830000000  0.4751820000000  0.4609270000000 1.0
C      1  0.4167170000000  0.4751820000000  0.4609270000000 1.0
C      1  0.5832830000000  0.5248180000000  0.4609270000000 1.0
C      1  0.5585580000000  0.5648060000000  0.4676550000000 1.0
C      1  0.4414420000000  0.4351940000000  0.4676550000000 1.0
C      1  0.5585580000000  0.4351940000000  0.4676550000000 1.0
C      1  0.4414420000000  0.5648060000000  0.4676550000000 1.0
C      1  0.5718020000000  0.4292860000000  0.4957980000000 1.0
C      1  0.4281980000000  0.5707140000000  0.4957980000000 1.0
C      1  0.5718020000000  0.5707140000000  0.4957980000000 1.0
C      1  0.4281980000000  0.4292860000000  0.4957980000000 1.0
C      1  0.5641140000000  0.5417670000000  0.4456790000000 1.0
C      1  0.4358860000000  0.4582330000000  0.4456790000000 1.0
C      1  0.5641140000000  0.4582330000000  0.4456790000000 1.0
C      1  0.4358860000000  0.5417670000000  0.4456790000000 1.0
C      1  0.4842720000000  0.5349790000000  0.5701030000000 1.0
C      1  0.5157280000000  0.4650210000000  0.5701030000000 1.0
C      1  0.4842720000000  0.4650210000000  0.5701030000000 1.0
C      1  0.5157280000000  0.5349790000000  0.5701030000000 1.0
C      1  0.5155530000000  0.4176220000000  0.4854040000000 1.0
C      1  0.4844470000000  0.5823780000000  0.4854040000000 1.0
C      1  0.5155530000000  0.5823780000000  0.4854040000000 1.0
C      1  0.4844470000000  0.4176220000000  0.4854040000000 1.0
C      1  0.5169240000000  0.5949910000000  0.5163560000000 1.0
C      1  0.4830760000000  0.4050090000000  0.5163560000000 1.0
C      1  0.5169240000000  0.4050090000000  0.5163560000000 1.0
C      1  0.4830760000000  0.5949910000000  0.5163560000000 1.0
C      1  0.5259420000000  0.5145110000000  0.5100990000000 1.0
C      1  0.4740580000000  0.4854890000000  0.5100990000000 1.0
C      1  0.5259420000000  0.4854890000000  0.5100990000000 1.0
C      1  0.4740580000000  0.5145110000000  0.5100990000000 1.0
C      1  0.5208910000000  0.4463030000000  0.4958650000000 1.0
C      1  0.4791090000000  0.5536970000000  0.4958650000000 1.0
C      1  0.5208910000000  0.5536970000000  0.4958650000000 1.0
C      1  0.4791090000000  0.4463030000000  0.4958650000000 1.0
C      1  0.5169200000000  0.4320380000000  0.5647170000000 1.0
C      1  0.4830800000000  0.5679620000000  0.5647170000000 1.0
C      1  0.5169200000000  0.5679620000000  0.5647170000000 1.0
C      1  0.4830800000000  0.4320380000000  0.5647170000000 1.0
C      1  0.4842800000000  0.5520390000000  0.5258980000000 1.0
C      1  0.5157200000000  0.4479610000000  0.5258980000000 1.0
C      1  0.4842800000000  0.4479610000000  0.5258980000000 1.0
C      1  0.5157200000000  0.5520390000000  0.5258980000000 1.0
C      1  0.5782810000000  0.5143940000000  0.4883880000000 1.0
C      1  0.4217190000000  0.4856060000000  0.4883880000000 1.0
C      1  0.5782810000000  0.4856060000000  0.4883880000000 1.0
C      1  0.4217190000000  0.5143940000000  0.4883880000000 1.0
C      1  0.5312530000000  0.5321570000000  0.4378100000000 1.0
C      1  0.4687470000000  0.4678430000000  0.4378100000000 1.0
C      1  0.5312530000000  0.4678430000000  0.4378100000000 1.0
C      1  0.4687470000000  0.5321570000000  0.4378100000000 1.0
C      1  0.5570320000000  0.5285380000000  0.5052600000000 1.0
C      1  0.4429680000000  0.4714620000000  0.5052600000000 1.0
C      1  0.5570320000000  0.4714620000000  0.5052600000000 1.0
C      1  0.4429680000000  0.5285380000000  0.5052600000000 1.0
C      1  0.5216190000000  0.4384670000000  0.4394830000000 1.0
C      1  0.4783810000000  0.5615330000000  0.4394830000000 1.0
C      1  0.5216190000000  0.5615330000000  0.4394830000000 1.0
C      1  0.4783810000000  0.4384670000000  0.4394830000000 1.0
C      1  0.5326920000000  0.4201820000000  0.4602930000000 1.0
C      1  0.4673080000000  0.5798180000000  0.4602930000000 1.0
C      1  0.5326920000000  0.5798180000000  0.4602930000000 1.0
C      1  0.4673080000000  0.4201820000000  0.4602930000000 1.0
C      1  0.4834420000000  0.4838700000000  0.4164750000000 1.0
C      1  0.5165580000000  0.5161300000000  0.4164750000000 1.0
C      1  0.4834420000000  0.5161300000000  0.4164750000000 1.0
C      1  0.5165580000000  0.4838700000000  0.4164750000000 1.0
C      1  0.5320830000000  0.5760600000000  0.5368840000000 1.0
C      1  0.4679170000000  0.4239400000000  0.5368840000000 1.0
C      1  0.5320830000000  0.4239400000000  0.5368840000000 1.0
C      1  0.4679170000000  0.5760600000000  0.5368840000000 1.0
C      1  0.5431050000000  0.4595110000000  0.4819670000000 1.0
C      1  0.4568950000000  0.5404890000000  0.4819670000000 1.0
C      1  0.5431050000000  0.5404890000000  0.4819670000000 1.0
C      1  0.4568950000000  0.4595110000000  0.4819670000000 1.0
C      1  0.4391840000000  0.4411140000000  0.5234860000000 1.0
C      1  0.5608160000000  0.5588860000000  0.5234860000000 1.0
C      1  0.4391840000000  0.5588860000000  0.5234860000000 1.0
C      1  0.5608160000000  0.4411140000000  0.5234860000000 1.0
C      1  0.5379940000000  0.5163970000000  0.5843050000000 1.0
C      1  0.4620060000000  0.4836030000000  0.5843050000000 1.0
C      1  0.5379940000000  0.4836030000000  0.5843050000000 1.0
C      1  0.4620060000000  0.5163970000000  0.5843050000000 1.0
C      1  0.5245060000000  0.5256440000000  0.5398740000000 1.0
C      1  0.4754940000000  0.4743560000000  0.5398740000000 1.0
C      1  0.5245060000000  0.4743560000000  0.5398740000000 1.0
C      1  0.4754940000000  0.5256440000000  0.5398740000000 1.0
C      1  0.5263390000000  0.5167640000000  0.4655480000000 1.0
C      1  0.4736610000000  0.4832360000000  0.4655480000000 1.0
C      1  0.5263390000000  0.4832360000000  0.4655480000000 1.0
C      1  0.4736610000000  0.5167640000000  0.4655480000000 1.0
C      1  0.4473500000000  0.4835200000000  0.5537490000000 1.0
C      1  0.5526500000000  0.5164800000000  0.5537490000000 1.0
C      1  0.4473500000000  0.5164800000000  0.5537490000000 1.0
C      1  0.5526500000000  0.4835200000000  0.5537490000000 1.0
C      1  0.4283420000000  0.5371930000000  0.5436680000000 1.0
C      1  0.5716580000000  0.4628070000000  0.5436680000000 1.0
C      1  0.4283420000000  0.4628070000000  0.5436680000000 1.0
C      1  0.5716580000000  0.5371930000000  0.5436680000000 1.0
C      1  0.5000000000000  0.5271790000000  0.4881840000000 1.0
C      1  0.5000000000000  0.4728210000000  0.4881840000000 1.0
END
