TITL C-862505-1648-13 0.0485884765990652 125000 -137.031304793698 0 0 28 (S4) n - 1
REM
REM in /home/nfs/bkarasulu/CARBON/AIRSS/Generating-Clusters/TERSOFF/Higher-Symm/FIRE-HFTN
REM
REM
REM
REM
REM
REM ./C.cell (b20cbc046b6831c77cfcea5457e17084)
REM AIRSS Version 0.9.1 bugfix July 2018 build 013d7b7c2542+ Fri, 06 Jul 2018 19:26:36 +0100
REM compiler GCC version 9.2.1 20190827 (Red Hat 9.2.1-1)
REM options -cpp -mtune=generic -march=x86-64 -g -O0 -fpre-include=/usr/include/finclude/math-vector-fortran.h
REM seed -19886186 -1328476617 -961487628 -635600145 518549779 -561667188 1583562370 -810918853 -828076585 1039726408 885614936 -1666588339 -433473918 -703469502 -795081828 -377943472 1487958245 -1511384598 -899274791 3191898 1838732272 -282165775 -2033873375 2060821017 852570883 766821343 75491558 -313441643 -1459655078 -1146545673 1318846971 -1507668879 1478231787
REM
CELL 1.54180   50.00000   50.00000   50.00000   90.00000   90.00000   90.00000
LATT -1
SFAC C  
C      1  0.5000280000000  0.4500520000000  0.5139550000000 1.0
C      1  0.5000270000000  0.5499480000000  0.4860450000000 1.0
C      1  0.5000280000000  0.5495520000000  0.5151640000000 1.0
C      1  0.5000270000000  0.4504480000000  0.4848360000000 1.0
C      1  0.4999720000000  0.5151640000000  0.4504480000000 1.0
C      1  0.4999730000000  0.4848360000000  0.5495520000000 1.0
C      1  0.4999730000000  0.5139550000000  0.5499480000000 1.0
C      1  0.4999720000000  0.4860450000000  0.4500520000000 1.0
C      1  0.4452580000000  0.4797260000000  0.5468690000000 1.0
C      1  0.4452570000000  0.5202740000000  0.4531320000000 1.0
C      1  0.5537850000000  0.5248290000000  0.5426040000000 1.0
C      1  0.5537850000000  0.4751710000000  0.4573960000000 1.0
C      1  0.4462150000000  0.5426040000000  0.4751710000000 1.0
C      1  0.4462150000000  0.4573960000000  0.5248300000000 1.0
C      1  0.5547430000000  0.5468690000000  0.5202740000000 1.0
C      1  0.5547430000000  0.4531310000000  0.4797260000000 1.0
C      1  0.5252000000000  0.4700410000000  0.4445110000000 1.0
C      1  0.5252000000000  0.5299590000000  0.5554880000000 1.0
C      1  0.4746940000000  0.5312730000000  0.4464730000000 1.0
C      1  0.4746950000000  0.4687270000000  0.5535270000000 1.0
C      1  0.5253050000000  0.4464730000000  0.4687270000000 1.0
C      1  0.5253060000000  0.5535270000000  0.5312730000000 1.0
C      1  0.4748000000000  0.4445120000000  0.5299590000000 1.0
C      1  0.4748000000000  0.5554880000000  0.4700410000000 1.0
C      1  0.4844480000000  0.5292020000000  0.5299340000000 1.0
C      1  0.5155530000000  0.4700660000000  0.5292020000000 1.0
C      1  0.5155520000000  0.5299340000000  0.4707980000000 1.0
C      1  0.4844470000000  0.4707980000000  0.4700660000000 1.0
END
