TITL C-862131-2149-880 -0.0577769241811683 125000 -488.366776242291 0 0 88 (S4) n - 1
REM
REM in /home/nfs/bkarasulu/CARBON/AIRSS/Generating-Clusters/TERSOFF/Higher-Symm/FIRE-HFTN
REM
REM
REM
REM
REM
REM ./C.cell (b20cbc046b6831c77cfcea5457e17084)
REM AIRSS Version 0.9.1 bugfix July 2018 build 013d7b7c2542+ Fri, 06 Jul 2018 19:26:36 +0100
REM compiler GCC version 9.2.1 20190827 (Red Hat 9.2.1-1)
REM options -cpp -mtune=generic -march=x86-64 -g -O0 -fpre-include=/usr/include/finclude/math-vector-fortran.h
REM seed -1238797858 -244398441 -23077271 231350545 -338481963 735651655 -545333768 1222623232 1874877526 1867416086 -1352229523 1686192046 859377451 1140461192 -369696764 540165020 -2133975831 1030572527 -894071503 -1867274555 -1015545144 1156991217 -1581211203 1266878414 870671676 -568430703 -199878963 419815850 -1300096283 1678208614 -267934933 -1423044599 -368880652
REM
CELL 1.54180   50.00000   50.00000   50.00000   90.00000   90.00000   90.00000
LATT -1
SFAC C  
C      1  0.5601260000000  0.5047730000000  0.5479930000000 1.0
C      1  0.5479930000000  0.4952270000000  0.4398740000000 1.0
C      1  0.4398740000000  0.5047730000000  0.4520070000000 1.0
C      1  0.4520070000000  0.4952270000000  0.5601260000000 1.0
C      1  0.4737080000000  0.4773220000000  0.4333940000000 1.0
C      1  0.4333940000000  0.5226780000000  0.5262920000000 1.0
C      1  0.5262920000000  0.4773220000000  0.5666060000000 1.0
C      1  0.5666060000000  0.5226780000000  0.4737080000000 1.0
C      1  0.4433120000000  0.5352770000000  0.5509410000000 1.0
C      1  0.5509410000000  0.4647230000000  0.5566880000000 1.0
C      1  0.5566880000000  0.5352770000000  0.4490590000000 1.0
C      1  0.4490590000000  0.4647230000000  0.4433120000000 1.0
C      1  0.4819550000000  0.4087240000000  0.5106250000000 1.0
C      1  0.5106250000000  0.5912760000000  0.5180450000000 1.0
C      1  0.5180450000000  0.4087240000000  0.4893750000000 1.0
C      1  0.4893750000000  0.5912760000000  0.4819550000000 1.0
C      1  0.4851290000000  0.4598880000000  0.4807950000000 1.0
C      1  0.4807950000000  0.5401120000000  0.5148710000000 1.0
C      1  0.5148710000000  0.4598880000000  0.5192050000000 1.0
C      1  0.5192050000000  0.5401120000000  0.4851290000000 1.0
C      1  0.5672610000000  0.5627100000000  0.5005000000000 1.0
C      1  0.5005000000000  0.4372900000000  0.4327390000000 1.0
C      1  0.4327390000000  0.5627100000000  0.4995000000000 1.0
C      1  0.4995000000000  0.4372900000000  0.5672610000000 1.0
C      1  0.4829080000000  0.4582750000000  0.5560700000000 1.0
C      1  0.5560700000000  0.5417250000000  0.5170920000000 1.0
C      1  0.5170920000000  0.4582750000000  0.4439300000000 1.0
C      1  0.4439300000000  0.5417250000000  0.4829080000000 1.0
C      1  0.4745320000000  0.4626670000000  0.5079130000000 1.0
C      1  0.5079130000000  0.5373330000000  0.5254680000000 1.0
C      1  0.5254680000000  0.4626670000000  0.4920870000000 1.0
C      1  0.4920870000000  0.5373330000000  0.4745320000000 1.0
C      1  0.4846150000000  0.4148490000000  0.4774770000000 1.0
C      1  0.4774770000000  0.5851510000000  0.5153850000000 1.0
C      1  0.5153850000000  0.4148490000000  0.5225230000000 1.0
C      1  0.5225230000000  0.5851510000000  0.4846150000000 1.0
C      1  0.5877870000000  0.4681330000000  0.4572470000000 1.0
C      1  0.4572470000000  0.5318670000000  0.4122130000000 1.0
C      1  0.4122130000000  0.4681330000000  0.5427530000000 1.0
C      1  0.5427530000000  0.5318670000000  0.5877870000000 1.0
C      1  0.4475700000000  0.5852720000000  0.5097450000000 1.0
C      1  0.5097450000000  0.4147280000000  0.5524300000000 1.0
C      1  0.5524300000000  0.5852720000000  0.4902550000000 1.0
C      1  0.4902550000000  0.4147280000000  0.4475700000000 1.0
C      1  0.5235490000000  0.5805610000000  0.5417620000000 1.0
C      1  0.5417620000000  0.4194390000000  0.4764510000000 1.0
C      1  0.4764510000000  0.5805610000000  0.4582380000000 1.0
C      1  0.4582380000000  0.4194390000000  0.5235490000000 1.0
C      1  0.5555920000000  0.4563820000000  0.5286010000000 1.0
C      1  0.5286010000000  0.5436180000000  0.4444080000000 1.0
C      1  0.4444080000000  0.4563820000000  0.4713990000000 1.0
C      1  0.4713990000000  0.5436180000000  0.5555920000000 1.0
C      1  0.4249400000000  0.4591250000000  0.5177650000000 1.0
C      1  0.5177650000000  0.5408750000000  0.5750600000000 1.0
C      1  0.5750600000000  0.4591250000000  0.4822350000000 1.0
C      1  0.4822350000000  0.5408750000000  0.4249400000000 1.0
C      1  0.5312030000000  0.5071970000000  0.4191140000000 1.0
C      1  0.4191140000000  0.4928030000000  0.4687970000000 1.0
C      1  0.4687970000000  0.5071970000000  0.5808860000000 1.0
C      1  0.5808860000000  0.4928030000000  0.5312030000000 1.0
C      1  0.4905340000000  0.4973270000000  0.4494170000000 1.0
C      1  0.4494170000000  0.5026730000000  0.5094660000000 1.0
C      1  0.5094660000000  0.4973270000000  0.5505830000000 1.0
C      1  0.5505830000000  0.5026730000000  0.4905340000000 1.0
C      1  0.5342440000000  0.5062800000000  0.5355700000000 1.0
C      1  0.5355700000000  0.4937200000000  0.4657560000000 1.0
C      1  0.4657560000000  0.5062800000000  0.4644300000000 1.0
C      1  0.4644300000000  0.4937200000000  0.5342440000000 1.0
C      1  0.5062470000000  0.5211690000000  0.4318910000000 1.0
C      1  0.4318910000000  0.4788310000000  0.4937530000000 1.0
C      1  0.4937530000000  0.5211690000000  0.5681090000000 1.0
C      1  0.5681090000000  0.4788310000000  0.5062470000000 1.0
C      1  0.5320080000000  0.5230480000000  0.5087860000000 1.0
C      1  0.5087860000000  0.4769520000000  0.4679920000000 1.0
C      1  0.4679920000000  0.5230480000000  0.4912140000000 1.0
C      1  0.4912140000000  0.4769520000000  0.5320080000000 1.0
C      1  0.5477930000000  0.4469300000000  0.4819110000000 1.0
C      1  0.4819110000000  0.5530700000000  0.4522070000000 1.0
C      1  0.4522070000000  0.4469300000000  0.5180890000000 1.0
C      1  0.5180890000000  0.5530700000000  0.5477930000000 1.0
C      1  0.5197000000000  0.5712390000000  0.4541530000000 1.0
C      1  0.4541530000000  0.4287610000000  0.4803000000000 1.0
C      1  0.4803000000000  0.5712390000000  0.5458470000000 1.0
C      1  0.5458470000000  0.4287610000000  0.5197000000000 1.0
C      1  0.4360760000000  0.5170510000000  0.4260130000000 1.0
C      1  0.4260130000000  0.4829490000000  0.5639240000000 1.0
C      1  0.5639240000000  0.5170510000000  0.5739870000000 1.0
C      1  0.5739870000000  0.4829490000000  0.4360760000000 1.0
END
