TITL C-862506-1665-902 0.0322144894386988 125000 -319.073625737707 0 0 61 (C1) n - 1
REM
REM in /home/nfs/bkarasulu/CARBON/AIRSS/Generating-Clusters/TERSOFF/Higher-Symm/FIRE-HFTN
REM
REM
REM
REM
REM
REM ./C.cell (b20cbc046b6831c77cfcea5457e17084)
REM AIRSS Version 0.9.1 bugfix July 2018 build 013d7b7c2542+ Fri, 06 Jul 2018 19:26:36 +0100
REM compiler GCC version 9.2.1 20190827 (Red Hat 9.2.1-1)
REM options -cpp -mtune=generic -march=x86-64 -g -O0 -fpre-include=/usr/include/finclude/math-vector-fortran.h
REM seed 554060951 584401869 -798201116 -18889541 -835847482 816120751 1503547752 -695473492 1806682981 -981863158 679224746 -520788881 -299590631 -2002757269 -1475645750 1962971979 1822293490 -291979986 -20427169 1068915238 -1937284239 -1371876220 -330346299 -1451203721 -1496488673 -1741948297 741740766 676076345 -1732929511 1117801247 1097214840 1268532193 1971483696
REM
CELL 1.54180   50.00000   50.00000   50.00000   90.00000   90.00000   90.00000
LATT -1
SFAC C  
C      1  0.4759530000000  0.4445430000000  0.4592040000000 1.0
C      1  0.4570120000000  0.4712500000000  0.4437960000000 1.0
C      1  0.4448590000000  0.4562320000000  0.4742020000000 1.0
C      1  0.4745040000000  0.5582710000000  0.5459920000000 1.0
C      1  0.5277920000000  0.5609310000000  0.4586370000000 1.0
C      1  0.5165890000000  0.4407860000000  0.5553870000000 1.0
C      1  0.4558620000000  0.5289360000000  0.5531030000000 1.0
C      1  0.5451980000000  0.5308850000000  0.4484960000000 1.0
C      1  0.5379410000000  0.4604770000000  0.5482760000000 1.0
C      1  0.4467580000000  0.5494360000000  0.5243810000000 1.0
C      1  0.5554870000000  0.5488640000000  0.4783650000000 1.0
C      1  0.5555790000000  0.4541780000000  0.5249250000000 1.0
C      1  0.5307270000000  0.4446550000000  0.4550790000000 1.0
C      1  0.5449020000000  0.4766710000000  0.4449430000000 1.0
C      1  0.5587920000000  0.4589940000000  0.4726600000000 1.0
C      1  0.5289390000000  0.5553160000000  0.5475760000000 1.0
C      1  0.4736520000000  0.5639350000000  0.4592180000000 1.0
C      1  0.4644970000000  0.4439720000000  0.5457940000000 1.0
C      1  0.5531710000000  0.5109560000000  0.5530150000000 1.0
C      1  0.4468410000000  0.5230880000000  0.4449290000000 1.0
C      1  0.4519970000000  0.4764830000000  0.5552540000000 1.0
C      1  0.5494890000000  0.5361580000000  0.5376480000000 1.0
C      1  0.4520360000000  0.5442660000000  0.4653260000000 1.0
C      1  0.4390090000000  0.4604990000000  0.5262750000000 1.0
C      1  0.4169270000000  0.4921090000000  0.4951420000000 1.0
C      1  0.5019470000000  0.4113690000000  0.4896090000000 1.0
C      1  0.4827760000000  0.5103780000000  0.4625680000000 1.0
C      1  0.4667000000000  0.5171160000000  0.5007800000000 1.0
C      1  0.5334920000000  0.5165770000000  0.4992590000000 1.0
C      1  0.5828760000000  0.4890740000000  0.5031970000000 1.0
C      1  0.5009180000000  0.5372640000000  0.5158370000000 1.0
C      1  0.5024220000000  0.5878690000000  0.4906550000000 1.0
C      1  0.5051570000000  0.4572470000000  0.5184930000000 1.0
C      1  0.4865240000000  0.4970930000000  0.5319190000000 1.0
C      1  0.5140830000000  0.5056080000000  0.4186710000000 1.0
C      1  0.5151610000000  0.4925770000000  0.5794440000000 1.0
C      1  0.5343440000000  0.4884330000000  0.4967330000000 1.0
C      1  0.5186780000000  0.4495100000000  0.4950180000000 1.0
C      1  0.5103620000000  0.5046350000000  0.4662990000000 1.0
C      1  0.5820870000000  0.5177220000000  0.5057620000000 1.0
C      1  0.4188410000000  0.5209290000000  0.4942710000000 1.0
C      1  0.4653340000000  0.4889250000000  0.4965900000000 1.0
C      1  0.5040510000000  0.5859770000000  0.5191220000000 1.0
C      1  0.4999980000000  0.5391800000000  0.4878090000000 1.0
C      1  0.4939530000000  0.4118110000000  0.5186570000000 1.0
C      1  0.5146050000000  0.4988370000000  0.5323110000000 1.0
C      1  0.4848590000000  0.5033650000000  0.4167040000000 1.0
C      1  0.4870500000000  0.5003460000000  0.5796830000000 1.0
C      1  0.5568600000000  0.5337360000000  0.5063700000000 1.0
C      1  0.5025200000000  0.5604180000000  0.5340540000000 1.0
C      1  0.5587580000000  0.4717280000000  0.5004070000000 1.0
C      1  0.4401000000000  0.4737940000000  0.4992070000000 1.0
C      1  0.4446000000000  0.5360970000000  0.4954350000000 1.0
C      1  0.5044220000000  0.4368670000000  0.4711440000000 1.0
C      1  0.4922420000000  0.4371110000000  0.5362520000000 1.0
C      1  0.5006940000000  0.5644140000000  0.4726650000000 1.0
C      1  0.5299890000000  0.5038660000000  0.4446950000000 1.0
C      1  0.4692360000000  0.5013060000000  0.5552670000000 1.0
C      1  0.5317720000000  0.4897910000000  0.5547360000000 1.0
C      1  0.4663880000000  0.4998460000000  0.4401330000000 1.0
C      1  0.4870470000000  0.4752790000000  0.4852100000000 1.0
END
