TITL C-862507-1800-317 6.81508140344887e-07 125000 -1133.84189971602 0 0 186 (C5) n - 1
REM
REM in /home/nfs/bkarasulu/CARBON/AIRSS/Generating-Clusters/TERSOFF/Higher-Symm/FIRE-HFTN
REM
REM
REM
REM
REM
REM ./C.cell (b20cbc046b6831c77cfcea5457e17084)
REM AIRSS Version 0.9.1 bugfix July 2018 build 013d7b7c2542+ Fri, 06 Jul 2018 19:26:36 +0100
REM compiler GCC version 9.2.1 20190827 (Red Hat 9.2.1-1)
REM options -cpp -mtune=generic -march=x86-64 -g -O0 -fpre-include=/usr/include/finclude/math-vector-fortran.h
REM seed -1043953115 850748836 1718512902 1753197461 -1297644056 -1641012698 479331627 1630336178 1611459686 1309419447 -1469233206 931541735 -653599985 1878576913 -1363216049 1798320709 -795893280 -279641620 2115644839 -565477137 -863350353 -69816495 -492211565 -483560942 -859623708 849867059 63499981 679573439 896388418 2057716178 -436473265 1255428641 1752299669
REM
CELL 1.54180   50.00000   50.00000   50.00000   90.00000   90.00000   90.00000
LATT -1
SFAC C  
C      1  0.5272030000000  0.4574010000000  0.6050380000000 1.0
C      1  0.6082470000000  0.4573990000000  0.5067150000000 1.0
C      1  0.5397810000000  0.4574000000000  0.3992530000000 1.0
C      1  0.4164210000000  0.4574020000000  0.4311620000000 1.0
C      1  0.4086480000000  0.4574020000000  0.5583440000000 1.0
C      1  0.4782810000000  0.5226680000000  0.4281500000000 1.0
C      1  0.4249000000000  0.5226690000000  0.4985810000000 1.0
C      1  0.4753880000000  0.5226690000000  0.5711150000000 1.0
C      1  0.5599730000000  0.5226680000000  0.5455110000000 1.0
C      1  0.5617620000000  0.5226670000000  0.4571540000000 1.0
C      1  0.4294650000000  0.5173340000000  0.5906020000000 1.0
C      1  0.5643160000000  0.5173320000000  0.5952090000000 1.0
C      1  0.6103680000000  0.5173310000000  0.4683820000000 1.0
C      1  0.5039800000000  0.5173320000000  0.3853910000000 1.0
C      1  0.3921750000000  0.5173340000000  0.4609270000000 1.0
C      1  0.5306220000000  0.5259520000000  0.3910080000000 1.0
C      1  0.4057500000000  0.5259540000000  0.4373250000000 1.0
C      1  0.4112120000000  0.5259540000000  0.5703980000000 1.0
C      1  0.5394600000000  0.5259520000000  0.6063250000000 1.0
C      1  0.6132600000000  0.5259510000000  0.4954550000000 1.0
C      1  0.5358870000000  0.4116730000000  0.5680950000000 1.0
C      1  0.5757950000000  0.4116730000000  0.4870390000000 1.0
C      1  0.5110390000000  0.4116730000000  0.4240370000000 1.0
C      1  0.4311100000000  0.4116740000000  0.4661540000000 1.0
C      1  0.4464660000000  0.4116740000000  0.5551870000000 1.0
C      1  0.3867360000000  0.5504680000000  0.5271150000000 1.0
C      1  0.4907330000000  0.5504670000000  0.6162280000000 1.0
C      1  0.6076210000000  0.5504650000000  0.5448590000000 1.0
C      1  0.5758650000000  0.5504660000000  0.4116370000000 1.0
C      1  0.4393510000000  0.5504670000000  0.4006710000000 1.0
C      1  0.4612720000000  0.5653100000000  0.4462740000000 1.0
C      1  0.4368810000000  0.5653100000000  0.5203600000000 1.0
C      1  0.4998040000000  0.5653100000000  0.5664500000000 1.0
C      1  0.5630820000000  0.5653090000000  0.5208500000000 1.0
C      1  0.5392680000000  0.5653090000000  0.4465770000000 1.0
C      1  0.5254490000000  0.3941020000000  0.4950290000000 1.0
C      1  0.5030800000000  0.3941020000000  0.4743880000000 1.0
C      1  0.4765360000000  0.3941020000000  0.4892840000000 1.0
C      1  0.4825010000000  0.3941020000000  0.5191310000000 1.0
C      1  0.5127310000000  0.3941020000000  0.5226810000000 1.0
C      1  0.5411630000000  0.6073000000000  0.5404060000000 1.0
C      1  0.5510940000000  0.6073000000000  0.4734670000000 1.0
C      1  0.4905000000000  0.6073000000000  0.4433370000000 1.0
C      1  0.4431200000000  0.6073010000000  0.4916540000000 1.0
C      1  0.4744310000000  0.6073010000000  0.5516460000000 1.0
C      1  0.4306450000000  0.4086170000000  0.4372630000000 1.0
C      1  0.4188460000000  0.4086170000000  0.5467010000000 1.0
C      1  0.5192810000000  0.4086160000000  0.5917410000000 1.0
C      1  0.5931530000000  0.4086150000000  0.5101390000000 1.0
C      1  0.5383730000000  0.4086150000000  0.4146670000000 1.0
C      1  0.4561020000000  0.4320040000000  0.5093860000000 1.0
C      1  0.4953060000000  0.4320030000000  0.5447770000000 1.0
C      1  0.5410790000000  0.4320030000000  0.5184290000000 1.0
C      1  0.5301650000000  0.4320030000000  0.4667540000000 1.0
C      1  0.4776460000000  0.4320040000000  0.4611650000000 1.0
C      1  0.4568420000000  0.4772030000000  0.5871500000000 1.0
C      1  0.5694920000000  0.4772010000000  0.5681050000000 1.0
C      1  0.5861900000000  0.4772010000000  0.4550820000000 1.0
C      1  0.4838590000000  0.4772020000000  0.4042760000000 1.0
C      1  0.4039180000000  0.4772030000000  0.4858980000000 1.0
C      1  0.5173010000000  0.5092790000000  0.5980020000000 1.0
C      1  0.5984960000000  0.5092780000000  0.5139580000000 1.0
C      1  0.5436570000000  0.5092780000000  0.4107660000000 1.0
C      1  0.4285690000000  0.5092800000000  0.4310330000000 1.0
C      1  0.4122800000000  0.5092800000000  0.5467510000000 1.0
C      1  0.4336330000000  0.4549230000000  0.5786400000000 1.0
C      1  0.5542260000000  0.4549210000000  0.5875480000000 1.0
C      1  0.5999640000000  0.4549200000000  0.4756090000000 1.0
C      1  0.5076380000000  0.4549210000000  0.3975190000000 1.0
C      1  0.4048390000000  0.4549230000000  0.4611960000000 1.0
C      1  0.4947000000000  0.4577460000000  0.5590600000000 1.0
C      1  0.5544760000000  0.4577450000000  0.5234180000000 1.0
C      1  0.5390500000000  0.4577450000000  0.4555550000000 1.0
C      1  0.4697420000000  0.4577460000000  0.4492540000000 1.0
C      1  0.4423320000000  0.4577460000000  0.5132240000000 1.0
C      1  0.5090130000000  0.5610810000000  0.5952420000000 1.0
C      1  0.5933110000000  0.5610800000000  0.5209880000000 1.0
C      1  0.5487410000000  0.5610800000000  0.4178700000000 1.0
C      1  0.4368970000000  0.5610820000000  0.4283940000000 1.0
C      1  0.4123440000000  0.5610820000000  0.5380160000000 1.0
C      1  0.6077920000000  0.5547030000000  0.4961870000000 1.0
C      1  0.5296280000000  0.5547030000000  0.3964340000000 1.0
C      1  0.4106040000000  0.5547050000000  0.4399470000000 1.0
C      1  0.4152060000000  0.5547050000000  0.5665920000000 1.0
C      1  0.5370750000000  0.5547040000000  0.6013500000000 1.0
C      1  0.5902370000000  0.4204630000000  0.4393990000000 1.0
C      1  0.4701940000000  0.4204640000000  0.3955800000000 1.0
C      1  0.3914240000000  0.4204650000000  0.4962070000000 1.0
C      1  0.4627840000000  0.4204650000000  0.6022170000000 1.0
C      1  0.5856580000000  0.4204630000000  0.5671080000000 1.0
C      1  0.4686830000000  0.4176770000000  0.5341020000000 1.0
C      1  0.5226990000000  0.4176770000000  0.5404500000000 1.0
C      1  0.5454280000000  0.4176760000000  0.4910390000000 1.0
C      1  0.5054590000000  0.4176770000000  0.4541540000000 1.0
C      1  0.4580280000000  0.4176770000000  0.4807680000000 1.0
C      1  0.5207390000000  0.4800740000000  0.4542570000000 1.0
C      1  0.4628490000000  0.4800750000000  0.4662690000000 1.0
C      1  0.4563840000000  0.4800750000000  0.5250370000000 1.0
C      1  0.5102780000000  0.4800750000000  0.5493460000000 1.0
C      1  0.5500520000000  0.4800740000000  0.5056020000000 1.0
C      1  0.5064460000000  0.5368220000000  0.4760850000000 1.0
C      1  0.4791920000000  0.5368220000000  0.4866080000000 1.0
C      1  0.4807780000000  0.5368220000000  0.5157800000000 1.0
C      1  0.5090120000000  0.5368220000000  0.5232850000000 1.0
C      1  0.5248760000000  0.5368220000000  0.4987530000000 1.0
C      1  0.5650960000000  0.4599320000000  0.4431730000000 1.0
C      1  0.4660140000000  0.4599330000000  0.4206580000000 1.0
C      1  0.4139830000000  0.4599340000000  0.5079320000000 1.0
C      1  0.4809070000000  0.4599330000000  0.5843860000000 1.0
C      1  0.5743000000000  0.4599320000000  0.5443630000000 1.0
C      1  0.5595550000000  0.5049450000000  0.5695470000000 1.0
C      1  0.5844910000000  0.5049450000000  0.4649790000000 1.0
C      1  0.4927470000000  0.5049460000000  0.4089500000000 1.0
C      1  0.4111100000000  0.5049470000000  0.4788900000000 1.0
C      1  0.4524000000000  0.5049470000000  0.5781450000000 1.0
C      1  0.4872320000000  0.5504520000000  0.4342140000000 1.0
C      1  0.4334340000000  0.5504520000000  0.4919430000000 1.0
C      1  0.4717130000000  0.5504520000000  0.5609470000000 1.0
C      1  0.5491680000000  0.5504510000000  0.5458650000000 1.0
C      1  0.5587600000000  0.5504510000000  0.4675400000000 1.0
C      1  0.5103610000000  0.4940110000000  0.4770970000000 1.0
C      1  0.4813640000000  0.4940120000000  0.4831970000000 1.0
C      1  0.4782050000000  0.4940120000000  0.5126590000000 1.0
C      1  0.5052490000000  0.4940110000000  0.5247680000000 1.0
C      1  0.5251220000000  0.4940110000000  0.5027900000000 1.0
C      1  0.3842480000000  0.5294250000000  0.5066670000000 1.0
C      1  0.4705160000000  0.5294240000000  0.6122750000000 1.0
C      1  0.5976140000000  0.5294230000000  0.5628640000000 1.0
C      1  0.5898970000000  0.5294230000000  0.4267190000000 1.0
C      1  0.4580300000000  0.5294240000000  0.3919870000000 1.0
C      1  0.5633420000000  0.5629290000000  0.5884200000000 1.0
C      1  0.6036120000000  0.5629290000000  0.4672110000000 1.0
C      1  0.5007780000000  0.5629300000000  0.3914560000000 1.0
C      1  0.3969540000000  0.5629310000000  0.4658460000000 1.0
C      1  0.4356200000000  0.5629310000000  0.5875770000000 1.0
C      1  0.5366960000000  0.6043770000000  0.4983090000000 1.0
C      1  0.5096770000000  0.6043770000000  0.4647070000000 1.0
C      1  0.4693700000000  0.6043780000000  0.4800190000000 1.0
C      1  0.4714780000000  0.6043780000000  0.5230860000000 1.0
C      1  0.5130880000000  0.6043770000000  0.5343890000000 1.0
C      1  0.5940810000000  0.4392560000000  0.5473890000000 1.0
C      1  0.5740860000000  0.4392560000000  0.4252960000000 1.0
C      1  0.4517900000000  0.4392570000000  0.4065830000000 1.0
C      1  0.3962010000000  0.4392580000000  0.5171110000000 1.0
C      1  0.4841420000000  0.4392570000000  0.6041340000000 1.0
C      1  0.4973720000000  0.4268510000000  0.4028130000000 1.0
C      1  0.4067020000000  0.4268530000000  0.4725940000000 1.0
C      1  0.4450490000000  0.4268520000000  0.5803900000000 1.0
C      1  0.5594190000000  0.4268510000000  0.5772310000000 1.0
C      1  0.5917560000000  0.4268500000000  0.4674830000000 1.0
C      1  0.6057190000000  0.4317430000000  0.5226350000000 1.0
C      1  0.5541400000000  0.4317440000000  0.4065780000000 1.0
C      1  0.4278240000000  0.4317450000000  0.4197680000000 1.0
C      1  0.4013350000000  0.4317460000000  0.5439780000000 1.0
C      1  0.5112800000000  0.4317450000000  0.6075530000000 1.0
C      1  0.5704910000000  0.5139430000000  0.5197040000000 1.0
C      1  0.5404680000000  0.5139430000000  0.4391770000000 1.0
C      1  0.4546030000000  0.5139440000000  0.4428460000000 1.0
C      1  0.4315600000000  0.5139440000000  0.5256410000000 1.0
C      1  0.5031820000000  0.5139440000000  0.5731430000000 1.0
C      1  0.5118310000000  0.5504930000000  0.4514080000000 1.0
C      1  0.4573880000000  0.5504940000000  0.4738610000000 1.0
C      1  0.4619180000000  0.5504940000000  0.5325780000000 1.0
C      1  0.5191610000000  0.5504940000000  0.5464140000000 1.0
C      1  0.5500090000000  0.5504930000000  0.4962490000000 1.0
C      1  0.5827140000000  0.5389180000000  0.5872380000000 1.0
C      1  0.6084730000000  0.5389170000000  0.4484210000000 1.0
C      1  0.4844100000000  0.5389190000000  0.3810260000000 1.0
C      1  0.3819760000000  0.5389200000000  0.4781900000000 1.0
C      1  0.4427310000000  0.5389200000000  0.6056360000000 1.0
C      1  0.5572920000000  0.4845210000000  0.4031590000000 1.0
C      1  0.4255470000000  0.4845230000000  0.4157140000000 1.0
C      1  0.3967770000000  0.4845230000000  0.5448910000000 1.0
C      1  0.5107410000000  0.4845220000000  0.6121710000000 1.0
C      1  0.6099450000000  0.4845210000000  0.5245760000000 1.0
C      1  0.3888200000000  0.4949880000000  0.5130510000000 1.0
C      1  0.4780010000000  0.4949870000000  0.6098990000000 1.0
C      1  0.5976670000000  0.4949850000000  0.5550120000000 1.0
C      1  0.5824440000000  0.4949850000000  0.4242410000000 1.0
C      1  0.4533700000000  0.4949870000000  0.3983080000000 1.0
C      1  0.4984860000000  0.5939970000000  0.5584600000000 1.0
C      1  0.5550760000000  0.5939960000000  0.5196340000000 1.0
C      1  0.5356380000000  0.5939970000000  0.4538160000000 1.0
C      1  0.4670350000000  0.5939970000000  0.4519630000000 1.0
C      1  0.4440730000000  0.5939980000000  0.5166370000000 1.0
C      1  0.5000620000000  0.6040800000000  0.5001020000000 1.0
END
