TITL C-862502-1143-781 -0.00125457497123509 125000 -291.154810314199 0 0 52 (C1) n - 1
REM
REM in /home/nfs/bkarasulu/CARBON/AIRSS/Generating-Clusters/TERSOFF/Higher-Symm/FIRE-HFTN
REM
REM
REM
REM
REM
REM ./C.cell (b20cbc046b6831c77cfcea5457e17084)
REM AIRSS Version 0.9.1 bugfix July 2018 build 013d7b7c2542+ Fri, 06 Jul 2018 19:26:36 +0100
REM compiler GCC version 9.2.1 20190827 (Red Hat 9.2.1-1)
REM options -cpp -mtune=generic -march=x86-64 -g -O0 -fpre-include=/usr/include/finclude/math-vector-fortran.h
REM seed 1977549062 654891858 -1139924368 -967378562 -1425464203 -1806593740 1073799335 -1342784092 -385325847 -873548364 652439271 -1442946098 -1053711258 837950921 832028959 -370365177 277619921 984456132 363952439 1124904732 -1686708901 -670232278 1295204607 1132129901 1331809750 -2029831245 -11769822 -1272115570 207375405 -1739327483 981059410 100336963 1391835826
REM
CELL 1.54180   50.00000   50.00000   50.00000   90.00000   90.00000   90.00000
LATT -1
SFAC C  
C      1  0.5296980000000  0.4899820000000  0.4526130000000 1.0
C      1  0.5546180000000  0.5274900000000  0.4742070000000 1.0
C      1  0.5501340000000  0.5092270000000  0.5198030000000 1.0
C      1  0.4985790000000  0.4868980000000  0.5596070000000 1.0
C      1  0.4892260000000  0.4630880000000  0.5441570000000 1.0
C      1  0.4850570000000  0.5098640000000  0.4634430000000 1.0
C      1  0.5547430000000  0.4465210000000  0.5050940000000 1.0
C      1  0.4420810000000  0.4741910000000  0.4721240000000 1.0
C      1  0.5187160000000  0.4929720000000  0.4820320000000 1.0
C      1  0.5073360000000  0.4535280000000  0.4488260000000 1.0
C      1  0.4517750000000  0.5114430000000  0.5046980000000 1.0
C      1  0.4612710000000  0.5412500000000  0.5110430000000 1.0
C      1  0.5488500000000  0.5122560000000  0.4491880000000 1.0
C      1  0.5167300000000  0.5543790000000  0.5355820000000 1.0
C      1  0.4340520000000  0.5153100000000  0.5297510000000 1.0
C      1  0.4542230000000  0.4453810000000  0.5134060000000 1.0
C      1  0.5192210000000  0.5155610000000  0.5197660000000 1.0
C      1  0.4828760000000  0.4341710000000  0.5091220000000 1.0
C      1  0.4816160000000  0.5558070000000  0.4964190000000 1.0
C      1  0.4488920000000  0.5503600000000  0.4593630000000 1.0
C      1  0.5401510000000  0.5394720000000  0.5472230000000 1.0
C      1  0.5453740000000  0.4698480000000  0.5492230000000 1.0
C      1  0.4621540000000  0.4676290000000  0.5313990000000 1.0
C      1  0.5355040000000  0.4527270000000  0.5263900000000 1.0
C      1  0.4755340000000  0.5592720000000  0.4676830000000 1.0
C      1  0.4563540000000  0.5090450000000  0.4319170000000 1.0
C      1  0.5650550000000  0.5105300000000  0.4950960000000 1.0
C      1  0.5272950000000  0.4896680000000  0.5633830000000 1.0
C      1  0.4424270000000  0.5221940000000  0.4545920000000 1.0
C      1  0.4657030000000  0.4681580000000  0.4567120000000 1.0
C      1  0.5172820000000  0.4778220000000  0.4032150000000 1.0
C      1  0.5819870000000  0.4876630000000  0.4882780000000 1.0
C      1  0.4740780000000  0.4921570000000  0.5152320000000 1.0
C      1  0.4395390000000  0.5035600000000  0.4784420000000 1.0
C      1  0.4976630000000  0.4747180000000  0.4947310000000 1.0
C      1  0.4357830000000  0.4534240000000  0.4919180000000 1.0
C      1  0.4789880000000  0.4903750000000  0.4404070000000 1.0
C      1  0.4777350000000  0.5291260000000  0.5501050000000 1.0
C      1  0.5107870000000  0.5548860000000  0.5057270000000 1.0
C      1  0.5617420000000  0.4918870000000  0.5394730000000 1.0
C      1  0.5120710000000  0.5251500000000  0.4672120000000 1.0
C      1  0.5798730000000  0.4610130000000  0.5004650000000 1.0
C      1  0.5061890000000  0.4540790000000  0.5196950000000 1.0
C      1  0.4486120000000  0.5275700000000  0.5516620000000 1.0
C      1  0.4928960000000  0.5066940000000  0.5363590000000 1.0
C      1  0.4882450000000  0.4562090000000  0.4714970000000 1.0
C      1  0.5380960000000  0.5175850000000  0.5680710000000 1.0
C      1  0.4828010000000  0.4917750000000  0.5840880000000 1.0
C      1  0.4924430000000  0.5537130000000  0.5516000000000 1.0
C      1  0.5305030000000  0.5447720000000  0.4841310000000 1.0
C      1  0.4976680000000  0.5484200000000  0.4525620000000 1.0
C      1  0.5097780000000  0.4791790000000  0.4312680000000 1.0
END
