TITL C-862134-6730-393 -0.00502435249563307 125000 -222.385825165152 0 0 39 (C1) n - 1
REM
REM in /home/nfs/bkarasulu/CARBON/AIRSS/Generating-Clusters/TERSOFF/Higher-Symm/FIRE-HFTN
REM
REM
REM
REM
REM
REM ./C.cell (b20cbc046b6831c77cfcea5457e17084)
REM AIRSS Version 0.9.1 bugfix July 2018 build 013d7b7c2542+ Fri, 06 Jul 2018 19:26:36 +0100
REM compiler GCC version 9.2.1 20190827 (Red Hat 9.2.1-1)
REM options -cpp -mtune=generic -march=x86-64 -g -O0 -fpre-include=/usr/include/finclude/math-vector-fortran.h
REM seed -1046740557 505269018 983515665 -1342194596 -1243715796 809253593 -375214069 -1452435851 -1042423799 422466400 1846674520 -1808526127 1596346352 1393425185 1126649905 -2072460435 857040544 -517753366 -1463532850 773783600 -1553755529 640760857 2002656820 1990943735 1685110200 1252796739 -1198014273 730000081 -1253223697 -565503747 -1817527351 -1869898296 1230708212
REM
CELL 1.54180   50.00000   50.00000   50.00000   90.00000   90.00000   90.00000
LATT -1
SFAC C  
C      1  0.5091770000000  0.5567100000000  0.5359680000000 1.0
C      1  0.4888220000000  0.4440790000000  0.4646900000000 1.0
C      1  0.5103450000000  0.5115820000000  0.5605920000000 1.0
C      1  0.4906150000000  0.4876330000000  0.4378990000000 1.0
C      1  0.4605580000000  0.5102560000000  0.5500920000000 1.0
C      1  0.5404860000000  0.4880330000000  0.4490140000000 1.0
C      1  0.4943750000000  0.5362100000000  0.4646470000000 1.0
C      1  0.5066600000000  0.4592730000000  0.5397020000000 1.0
C      1  0.5700160000000  0.4975330000000  0.4911100000000 1.0
C      1  0.4298580000000  0.4994130000000  0.5090860000000 1.0
C      1  0.5554230000000  0.4511310000000  0.4993850000000 1.0
C      1  0.4459670000000  0.5454440000000  0.4979260000000 1.0
C      1  0.4388340000000  0.5182490000000  0.4884200000000 1.0
C      1  0.5598060000000  0.4778970000000  0.5100590000000 1.0
C      1  0.4665410000000  0.5010090000000  0.4482280000000 1.0
C      1  0.5344380000000  0.4985990000000  0.5496070000000 1.0
C      1  0.4636270000000  0.5098880000000  0.4757470000000 1.0
C      1  0.5353430000000  0.4854420000000  0.5236890000000 1.0
C      1  0.5171050000000  0.5301720000000  0.4485380000000 1.0
C      1  0.4833150000000  0.4673930000000  0.5543400000000 1.0
C      1  0.5547800000000  0.5071260000000  0.4682210000000 1.0
C      1  0.4466140000000  0.4907310000000  0.5315200000000 1.0
C      1  0.5092770000000  0.5405710000000  0.5601040000000 1.0
C      1  0.4913570000000  0.4587800000000  0.4399150000000 1.0
C      1  0.4887490000000  0.5195150000000  0.4912800000000 1.0
C      1  0.5092460000000  0.4743120000000  0.5134920000000 1.0
C      1  0.5035860000000  0.4513110000000  0.4913760000000 1.0
C      1  0.4999710000000  0.5467090000000  0.5076950000000 1.0
C      1  0.4628420000000  0.4648730000000  0.5318120000000 1.0
C      1  0.5389030000000  0.5329440000000  0.4687550000000 1.0
C      1  0.4843960000000  0.4967260000000  0.5619710000000 1.0
C      1  0.5165530000000  0.5021880000000  0.4379110000000 1.0
C      1  0.4677650000000  0.5492260000000  0.5173110000000 1.0
C      1  0.5336190000000  0.4476830000000  0.4804150000000 1.0
C      1  0.5307290000000  0.5470660000000  0.4941460000000 1.0
C      1  0.4717380000000  0.4500120000000  0.5066750000000 1.0
C      1  0.5391610000000  0.4593050000000  0.4541530000000 1.0
C      1  0.4617940000000  0.5386740000000  0.5438810000000 1.0
C      1  0.4892080000000  0.4964330000000  0.5118890000000 1.0
END
