TITL C-862134-6730-858 0.00255327690400486 125000 -173.614957533352 0 0 35 (C1) n - 1
REM
REM in /home/nfs/bkarasulu/CARBON/AIRSS/Generating-Clusters/TERSOFF/Higher-Symm/FIRE-HFTN
REM
REM
REM
REM
REM
REM ./C.cell (b20cbc046b6831c77cfcea5457e17084)
REM AIRSS Version 0.9.1 bugfix July 2018 build 013d7b7c2542+ Fri, 06 Jul 2018 19:26:36 +0100
REM compiler GCC version 9.2.1 20190827 (Red Hat 9.2.1-1)
REM options -cpp -mtune=generic -march=x86-64 -g -O0 -fpre-include=/usr/include/finclude/math-vector-fortran.h
REM seed -2069142459 -1702918435 -572952870 -975941927 1493300443 363143126 -1146742653 -1251038231 1230327181 -75841139 1268626413 423253534 1530930563 365636916 -1569352152 -350047290 2088544184 -1429614935 1462705398 -12435199 -1632750237 201400850 1332091897 1258195974 -506626361 -1180296081 -140590759 603717536 1003973441 1052773480 -1890420078 -999083537 -1191017106
REM
CELL 1.54180   50.00000   50.00000   50.00000   90.00000   90.00000   90.00000
LATT -1
SFAC C  
C      1  0.5581280000000  0.5140530000000  0.4578130000000 1.0
C      1  0.4430740000000  0.5126910000000  0.5404210000000 1.0
C      1  0.5571710000000  0.4848940000000  0.4571560000000 1.0
C      1  0.4442960000000  0.4835400000000  0.5408310000000 1.0
C      1  0.4547720000000  0.5269230000000  0.5169330000000 1.0
C      1  0.5458400000000  0.5280560000000  0.4811780000000 1.0
C      1  0.4580230000000  0.4693790000000  0.5183570000000 1.0
C      1  0.5446970000000  0.4707710000000  0.4803210000000 1.0
C      1  0.5110620000000  0.4735090000000  0.4769180000000 1.0
C      1  0.4911130000000  0.4742270000000  0.5217780000000 1.0
C      1  0.5124570000000  0.5264680000000  0.4769260000000 1.0
C      1  0.4883130000000  0.5262310000000  0.5206670000000 1.0
C      1  0.4922420000000  0.5567280000000  0.5109960000000 1.0
C      1  0.5075340000000  0.5568790000000  0.4863390000000 1.0
C      1  0.4917460000000  0.4444580000000  0.5118150000000 1.0
C      1  0.5056620000000  0.4429160000000  0.4863950000000 1.0
C      1  0.5385520000000  0.5586160000000  0.4839560000000 1.0
C      1  0.4612520000000  0.5575770000000  0.5136540000000 1.0
C      1  0.5364390000000  0.4405310000000  0.4826030000000 1.0
C      1  0.4615350000000  0.4373720000000  0.5160080000000 1.0
C      1  0.5542600000000  0.4830670000000  0.5057010000000 1.0
C      1  0.4493950000000  0.4816510000000  0.4923810000000 1.0
C      1  0.5537390000000  0.5146580000000  0.5066040000000 1.0
C      1  0.4464160000000  0.5130650000000  0.4919960000000 1.0
C      1  0.5016310000000  0.4764720000000  0.5490850000000 1.0
C      1  0.5017560000000  0.4756440000000  0.4488710000000 1.0
C      1  0.4976310000000  0.5252130000000  0.5489240000000 1.0
C      1  0.5037620000000  0.5246780000000  0.4486270000000 1.0
C      1  0.5834400000000  0.5109330000000  0.5173380000000 1.0
C      1  0.4167130000000  0.5143820000000  0.4800030000000 1.0
C      1  0.5838640000000  0.4789990000000  0.5173320000000 1.0
C      1  0.4196320000000  0.4825800000000  0.4811960000000 1.0
C      1  0.4984740000000  0.5002610000000  0.4353570000000 1.0
C      1  0.5044700000000  0.5012420000000  0.5623760000000 1.0
C      1  0.5006220000000  0.5002990000000  0.4987640000000 1.0
END
