TITL C-862130-1496-316 532346.233613903 125000 -927.997335637009 0 0 158 (C2) n - 1
REM
REM in /home/nfs/bkarasulu/CARBON/AIRSS/Generating-Clusters/TERSOFF/Higher-Symm/FIRE-HFTN
REM
REM
REM
REM
REM
REM ./C.cell (b20cbc046b6831c77cfcea5457e17084)
REM AIRSS Version 0.9.1 bugfix July 2018 build 013d7b7c2542+ Fri, 06 Jul 2018 19:26:36 +0100
REM compiler GCC version 9.2.1 20190827 (Red Hat 9.2.1-1)
REM options -cpp -mtune=generic -march=x86-64 -g -O0 -fpre-include=/usr/include/finclude/math-vector-fortran.h
REM seed -1944647283 566596717 1620336428 1045193272 -850785433 -1612511741 773571118 730142366 -200541869 454340118 2055335706 1321078042 -1391961484 1330007806 -755675680 942424931 1089186748 -666264649 -1056962023 -609674067 -840609101 -1495542842 1990490532 -1541787529 -588465414 1196312850 1390169264 -1155501704 -364508592 679975754 -693549781 -1466888249 -1802127382
REM
CELL 1.54180   50.00000   50.00000   50.00000   90.00000   90.00000   90.00000
LATT -1
SFAC C  
C      1  0.4371520000000  0.4250600000000  0.4894560000000 1.0
C      1  0.5628480000000  0.5749400000000  0.4894560000000 1.0
C      1  0.5130380000000  0.5789980000000  0.5170280000000 1.0
C      1  0.4869620000000  0.4210020000000  0.5170280000000 1.0
C      1  0.4486300000000  0.5500830000000  0.4993550000000 1.0
C      1  0.5513700000000  0.4499170000000  0.4993550000000 1.0
C      1  0.5938120000000  0.4913570000000  0.4284130000000 1.0
C      1  0.4061880000000  0.5086430000000  0.4284130000000 1.0
C      1  0.4273400000000  0.4291240000000  0.5720580000000 1.0
C      1  0.5726600000000  0.5708760000000  0.5720580000000 1.0
C      1  0.5723310000000  0.4215520000000  0.5319770000000 1.0
C      1  0.4276690000000  0.5784480000000  0.5319770000000 1.0
C      1  0.4493030000000  0.5116980000000  0.5652740000000 1.0
C      1  0.5506960000000  0.4883020000000  0.5652740000000 1.0
C      1  0.4758050000000  0.4207540000000  0.6113900000000 1.0
C      1  0.5241950000000  0.5792460000000  0.6113900000000 1.0
C      1  0.4838570000000  0.4664210000000  0.4001740000000 1.0
C      1  0.5161430000000  0.5335790000000  0.4001740000000 1.0
C      1  0.5686300000000  0.5309780000000  0.5178450000000 1.0
C      1  0.4313700000000  0.4690220000000  0.5178450000000 1.0
C      1  0.4470270000000  0.4547470000000  0.4985430000000 1.0
C      1  0.5529730000000  0.5452530000000  0.4985430000000 1.0
C      1  0.5590260000000  0.4876400000000  0.5351830000000 1.0
C      1  0.4409740000000  0.5123600000000  0.5351830000000 1.0
C      1  0.4940210000000  0.5135790000000  0.3959750000000 1.0
C      1  0.5059790000000  0.4864210000000  0.3959750000000 1.0
C      1  0.5607530000000  0.5282700000000  0.5456810000000 1.0
C      1  0.4392470000000  0.4717300000000  0.5456810000000 1.0
C      1  0.4935290000000  0.5269820000000  0.4628720000000 1.0
C      1  0.5064700000000  0.4730170000000  0.4628720000000 1.0
C      1  0.4516960000000  0.5390880000000  0.4199060000000 1.0
C      1  0.5483040000000  0.4609120000000  0.4199060000000 1.0
C      1  0.5054040000000  0.4174310000000  0.4479120000000 1.0
C      1  0.4945960000000  0.5825680000000  0.4479120000000 1.0
C      1  0.4382160000000  0.4384770000000  0.4389300000000 1.0
C      1  0.5617840000000  0.5615230000000  0.4389300000000 1.0
C      1  0.5112700000000  0.4896620000000  0.5342410000000 1.0
C      1  0.4887300000000  0.5103380000000  0.5342410000000 1.0
C      1  0.4760600000000  0.5535700000000  0.4238870000000 1.0
C      1  0.5239400000000  0.4464310000000  0.4238870000000 1.0
C      1  0.5339620000000  0.4886630000000  0.4133740000000 1.0
C      1  0.4660380000000  0.5113370000000  0.4133740000000 1.0
C      1  0.4680010000000  0.5544070000000  0.5874510000000 1.0
C      1  0.5319990000000  0.4455930000000  0.5874510000000 1.0
C      1  0.4638510000000  0.5093600000000  0.5178170000000 1.0
C      1  0.5361490000000  0.4906400000000  0.5178170000000 1.0
C      1  0.4069230000000  0.5191570000000  0.4780390000000 1.0
C      1  0.5930770000000  0.4808430000000  0.4780390000000 1.0
C      1  0.5320700000000  0.4418920000000  0.5451780000000 1.0
C      1  0.4679300000000  0.5581080000000  0.5451780000000 1.0
C      1  0.5434880000000  0.5816660000000  0.4297180000000 1.0
C      1  0.4565120000000  0.4183340000000  0.4297180000000 1.0
C      1  0.4843360000000  0.4224860000000  0.4256410000000 1.0
C      1  0.5156640000000  0.5775140000000  0.4256410000000 1.0
C      1  0.3909730000000  0.4719210000000  0.4568720000000 1.0
C      1  0.6090270000000  0.5280790000000  0.4568720000000 1.0
C      1  0.4340980000000  0.4652610000000  0.4253780000000 1.0
C      1  0.5659020000000  0.5347390000000  0.4253780000000 1.0
C      1  0.5163250000000  0.5547890000000  0.6248050000000 1.0
C      1  0.4836750000000  0.4452110000000  0.6248050000000 1.0
C      1  0.5287630000000  0.4493080000000  0.5176230000000 1.0
C      1  0.4712370000000  0.5506920000000  0.5176230000000 1.0
C      1  0.5512060000000  0.5893440000000  0.6150650000000 1.0
C      1  0.4487940000000  0.4106560000000  0.6150650000000 1.0
C      1  0.5148790000000  0.4898630000000  0.5687290000000 1.0
C      1  0.4851210000000  0.5101370000000  0.5687290000000 1.0
C      1  0.5855000000000  0.4708650000000  0.5303650000000 1.0
C      1  0.4145000000000  0.5291350000000  0.5303650000000 1.0
C      1  0.4083890000000  0.5383990000000  0.5017740000000 1.0
C      1  0.5916110000000  0.4616010000000  0.5017740000000 1.0
C      1  0.5337600000000  0.5918380000000  0.5025500000000 1.0
C      1  0.4662400000000  0.4081620000000  0.5025500000000 1.0
C      1  0.5887980000000  0.4714930000000  0.4488890000000 1.0
C      1  0.4112020000000  0.5285070000000  0.4488890000000 1.0
C      1  0.5338790000000  0.4808240000000  0.4682570000000 1.0
C      1  0.4661210000000  0.5191760000000  0.4682570000000 1.0
C      1  0.5996680000000  0.4938300000000  0.5469180000000 1.0
C      1  0.4003320000000  0.5061700000000  0.5469180000000 1.0
C      1  0.5179280000000  0.4338800000000  0.4726480000000 1.0
C      1  0.4820720000000  0.5661200000000  0.4726480000000 1.0
C      1  0.4648050000000  0.4715160000000  0.4831270000000 1.0
C      1  0.5351950000000  0.5284840000000  0.4831270000000 1.0
C      1  0.5911420000000  0.5193610000000  0.4335150000000 1.0
C      1  0.4088580000000  0.4806390000000  0.4335150000000 1.0
C      1  0.6008400000000  0.5115510000000  0.4816810000000 1.0
C      1  0.3991600000000  0.4884490000000  0.4816810000000 1.0
C      1  0.5741230000000  0.5814750000000  0.5990960000000 1.0
C      1  0.4258770000000  0.4185250000000  0.5990960000000 1.0
C      1  0.4799360000000  0.4014450000000  0.5640070000000 1.0
C      1  0.5200640000000  0.5985550000000  0.5640070000000 1.0
C      1  0.5231250000000  0.6107340000000  0.4792200000000 1.0
C      1  0.4768750000000  0.3892660000000  0.4792200000000 1.0
C      1  0.5176400000000  0.5036000000000  0.4365230000000 1.0
C      1  0.4823600000000  0.4964000000000  0.4365230000000 1.0
C      1  0.4311640000000  0.5481090000000  0.4401190000000 1.0
C      1  0.5688360000000  0.4518910000000  0.4401190000000 1.0
C      1  0.4320980000000  0.5766750000000  0.4502690000000 1.0
C      1  0.5679020000000  0.4233250000000  0.4502690000000 1.0
C      1  0.4476260000000  0.3993690000000  0.4661100000000 1.0
C      1  0.5523740000000  0.6006310000000  0.4661100000000 1.0
C      1  0.5249110000000  0.4138210000000  0.5522180000000 1.0
C      1  0.4750890000000  0.5861790000000  0.5522180000000 1.0
C      1  0.5035980000000  0.4407120000000  0.5026270000000 1.0
C      1  0.4964020000000  0.5592880000000  0.5026270000000 1.0
C      1  0.4070890000000  0.4382620000000  0.5028210000000 1.0
C      1  0.5929110000000  0.5617380000000  0.5028210000000 1.0
C      1  0.4973450000000  0.4076020000000  0.5411510000000 1.0
C      1  0.5026550000000  0.5923980000000  0.5411510000000 1.0
C      1  0.4789950000000  0.5818690000000  0.5828800000000 1.0
C      1  0.5210050000000  0.4181310000000  0.5828800000000 1.0
C      1  0.3622980000000  0.4765830000000  0.4503310000000 1.0
C      1  0.6377020000000  0.5234170000000  0.4503310000000 1.0
C      1  0.4891910000000  0.4382150000000  0.4018370000000 1.0
C      1  0.5108090000000  0.5617850000000  0.4018370000000 1.0
C      1  0.4579850000000  0.5472320000000  0.4723340000000 1.0
C      1  0.5420150000000  0.4527680000000  0.4723340000000 1.0
C      1  0.4920650000000  0.4098950000000  0.5895210000000 1.0
C      1  0.5079350000000  0.5901050000000  0.5895210000000 1.0
C      1  0.4666320000000  0.6054320000000  0.4825610000000 1.0
C      1  0.5333680000000  0.3945680000000  0.4825610000000 1.0
C      1  0.4224720000000  0.4327660000000  0.4621550000000 1.0
C      1  0.5775280000000  0.5672340000000  0.4621550000000 1.0
C      1  0.4490750000000  0.5969670000000  0.5408760000000 1.0
C      1  0.5509250000000  0.4030330000000  0.5408760000000 1.0
C      1  0.5022670000000  0.4582310000000  0.4384540000000 1.0
C      1  0.4977350000000  0.5417690000000  0.4384550000000 1.0
C      1  0.4237200000000  0.5531810000000  0.5481690000000 1.0
C      1  0.5762800000000  0.4468190000000  0.5481690000000 1.0
C      1  0.4024730000000  0.4725050000000  0.5082840000000 1.0
C      1  0.5975270000000  0.5274950000000  0.5082840000000 1.0
C      1  0.6038560000000  0.5563020000000  0.4626520000000 1.0
C      1  0.3961440000000  0.4436980000000  0.4626520000000 1.0
C      1  0.4923220000000  0.4644230000000  0.4858840000000 1.0
C      1  0.5076780000000  0.5355770000000  0.4858840000000 1.0
C      1  0.5375960000000  0.4997100000000  0.4899320000000 1.0
C      1  0.4624040000000  0.5002900000000  0.4899320000000 1.0
C      1  0.4257620000000  0.5696640000000  0.5024770000000 1.0
C      1  0.5742380000000  0.4303360000000  0.5024770000000 1.0
C      1  0.4561080000000  0.4791980000000  0.4086460000000 1.0
C      1  0.5438920000000  0.5208020000000  0.4086460000000 1.0
C      1  0.5049870000000  0.3943400000000  0.4669280000000 1.0
C      1  0.4950130000000  0.6056600000000  0.4669280000000 1.0
C      1  0.5062060000000  0.5314570000000  0.6114720000000 1.0
C      1  0.4937950000000  0.4685430000000  0.6114720000000 1.0
C      1  0.4659390000000  0.4744170000000  0.4519560000000 1.0
C      1  0.5340590000000  0.5255840000000  0.4519550000000 1.0
C      1  0.5540080000000  0.5504310000000  0.5632500000000 1.0
C      1  0.4459920000000  0.4495690000000  0.5632500000000 1.0
C      1  0.5127810000000  0.4677840000000  0.5899360000000 1.0
C      1  0.4872190000000  0.5322160000000  0.5899360000000 1.0
C      1  0.4483200000000  0.5436280000000  0.5649800000000 1.0
C      1  0.5516800000000  0.4563720000000  0.5649800000000 1.0
C      1  0.3886020000000  0.4842560000000  0.5316680000000 1.0
C      1  0.6113980000000  0.5157440000000  0.5316680000000 1.0
C      1  0.4409580000000  0.5852410000000  0.4777080000000 1.0
C      1  0.5590420000000  0.4147580000000  0.4777080000000 1.0
C      1  0.5801720000000  0.4995920000000  0.5694360000000 1.0
C      1  0.4198280000000  0.5004080000000  0.5694360000000 1.0
END
