TITL C-862503-991-1220 0.00452668623537782 125000 -506.004224917408 0 0 95 (Ci) n - 1
REM
REM in /home/nfs/bkarasulu/CARBON/AIRSS/Generating-Clusters/TERSOFF/Higher-Symm/FIRE-HFTN
REM
REM
REM
REM
REM
REM ./C.cell (b20cbc046b6831c77cfcea5457e17084)
REM AIRSS Version 0.9.1 bugfix July 2018 build 013d7b7c2542+ Fri, 06 Jul 2018 19:26:36 +0100
REM compiler GCC version 9.2.1 20190827 (Red Hat 9.2.1-1)
REM options -cpp -mtune=generic -march=x86-64 -g -O0 -fpre-include=/usr/include/finclude/math-vector-fortran.h
REM seed 105656114 2116718944 -2117138451 -327701726 -508048344 1257536324 540176620 784212472 2070569891 616255818 -71793125 23418677 -29338986 3858568 -452421204 1026209819 355800327 -124800502 1916834732 -1723204811 2054150703 -8356871 1789511669 -735424962 -896691008 1911856306 -627114445 -1326889565 -1038713227 -158081195 1881925130 -1143144073 -884620175
REM
CELL 1.54180   50.00000   50.00000   50.00000   90.00000   90.00000   90.00000
LATT -1
SFAC C  
C      1  0.5334450000000  0.4747240000000  0.4941070000000 1.0
C      1  0.4655990000000  0.5251800000000  0.5052740000000 1.0
C      1  0.5282440000000  0.5164040000000  0.4849670000000 1.0
C      1  0.4708000000000  0.4835000000000  0.5144150000000 1.0
C      1  0.4483570000000  0.5762930000000  0.4581750000000 1.0
C      1  0.5506870000000  0.4236110000000  0.5412070000000 1.0
C      1  0.5180040000000  0.4695600000000  0.4693160000000 1.0
C      1  0.4810400000000  0.5303450000000  0.5300660000000 1.0
C      1  0.5375600000000  0.4734370000000  0.5657320000000 1.0
C      1  0.4614840000000  0.5264680000000  0.4336500000000 1.0
C      1  0.4952930000000  0.4082660000000  0.5280510000000 1.0
C      1  0.5037510000000  0.5916380000000  0.4713310000000 1.0
C      1  0.4920890000000  0.5025320000000  0.4685070000000 1.0
C      1  0.5069550000000  0.4973720000000  0.5308740000000 1.0
C      1  0.4978280000000  0.4074360000000  0.4610530000000 1.0
C      1  0.5012160000000  0.5924680000000  0.5383280000000 1.0
C      1  0.4929230000000  0.4571060000000  0.4328320000000 1.0
C      1  0.5061210000000  0.5427980000000  0.5665500000000 1.0
C      1  0.5586740000000  0.5388960000000  0.5445120000000 1.0
C      1  0.4403710000000  0.4610080000000  0.4548690000000 1.0
C      1  0.5657640000000  0.4468500000000  0.5303540000000 1.0
C      1  0.4332800000000  0.5530540000000  0.4690280000000 1.0
C      1  0.5710250000000  0.4939260000000  0.5177590000000 1.0
C      1  0.4280190000000  0.5059780000000  0.4816220000000 1.0
C      1  0.5644660000000  0.5439970000000  0.5146990000000 1.0
C      1  0.4345790000000  0.4559070000000  0.4846820000000 1.0
C      1  0.5221700000000  0.5168870000000  0.5471190000000 1.0
C      1  0.4768740000000  0.4830180000000  0.4522630000000 1.0
C      1  0.4081520000000  0.5069380000000  0.5185590000000 1.0
C      1  0.5908920000000  0.4929660000000  0.4808220000000 1.0
C      1  0.4680050000000  0.4751430000000  0.5493330000000 1.0
C      1  0.5310390000000  0.5247610000000  0.4500480000000 1.0
C      1  0.5320930000000  0.5579630000000  0.5372940000000 1.0
C      1  0.4669510000000  0.4419420000000  0.4620870000000 1.0
C      1  0.4444200000000  0.5185750000000  0.5636450000000 1.0
C      1  0.5546250000000  0.4813290000000  0.4357370000000 1.0
C      1  0.4232550000000  0.4816490000000  0.5280480000000 1.0
C      1  0.5757890000000  0.5182550000000  0.4713340000000 1.0
C      1  0.4358890000000  0.5204720000000  0.4534750000000 1.0
C      1  0.5631550000000  0.4794320000000  0.5459070000000 1.0
C      1  0.5574190000000  0.5078990000000  0.4494640000000 1.0
C      1  0.4416250000000  0.4920050000000  0.5499180000000 1.0
C      1  0.4776400000000  0.5747720000000  0.4531190000000 1.0
C      1  0.5214040000000  0.4251320000000  0.5462630000000 1.0
C      1  0.4507090000000  0.4263880000000  0.4903960000000 1.0
C      1  0.5483350000000  0.5735160000000  0.5089860000000 1.0
C      1  0.5166590000000  0.5903440000000  0.5058210000000 1.0
C      1  0.4823850000000  0.4095610000000  0.4935600000000 1.0
C      1  0.4474190000000  0.5709860000000  0.5161410000000 1.0
C      1  0.5516250000000  0.4289180000000  0.4832400000000 1.0
C      1  0.5693380000000  0.4467020000000  0.4998970000000 1.0
C      1  0.4297060000000  0.5532020000000  0.4994850000000 1.0
C      1  0.5158300000000  0.4697850000000  0.5239210000000 1.0
C      1  0.4832150000000  0.5301200000000  0.4754600000000 1.0
C      1  0.4482660000000  0.4887430000000  0.4465250000000 1.0
C      1  0.5507790000000  0.5111620000000  0.5528560000000 1.0
C      1  0.4731830000000  0.5044080000000  0.4160530000000 1.0
C      1  0.5258610000000  0.4954970000000  0.5833290000000 1.0
C      1  0.4703300000000  0.5799840000000  0.5025180000000 1.0
C      1  0.5287140000000  0.4199200000000  0.4968640000000 1.0
C      1  0.5513460000000  0.5485440000000  0.4412200000000 1.0
C      1  0.4476990000000  0.4513600000000  0.5581610000000 1.0
C      1  0.5721940000000  0.5510250000000  0.4645590000000 1.0
C      1  0.4268500000000  0.4488790000000  0.5348230000000 1.0
C      1  0.4849340000000  0.5695200000000  0.5547490000000 1.0
C      1  0.5141110000000  0.4303840000000  0.4446330000000 1.0
C      1  0.4495540000000  0.4323160000000  0.5208030000000 1.0
C      1  0.5494910000000  0.5675880000000  0.4785790000000 1.0
C      1  0.5580070000000  0.5190720000000  0.4990310000000 1.0
C      1  0.4410370000000  0.4808320000000  0.5003500000000 1.0
C      1  0.6025300000000  0.4968260000000  0.5103600000000 1.0
C      1  0.3965140000000  0.5030780000000  0.4890220000000 1.0
C      1  0.5025110000000  0.4323660000000  0.4945160000000 1.0
C      1  0.4965340000000  0.5675380000000  0.5048650000000 1.0
C      1  0.4941170000000  0.4518220000000  0.4744190000000 1.0
C      1  0.5049280000000  0.5480820000000  0.5249630000000 1.0
C      1  0.5037190000000  0.5504320000000  0.4830460000000 1.0
C      1  0.4953260000000  0.4494720000000  0.5163350000000 1.0
C      1  0.4895810000000  0.4814460000000  0.5675090000000 1.0
C      1  0.5094630000000  0.5184580000000  0.4318730000000 1.0
C      1  0.4732420000000  0.5188220000000  0.5565670000000 1.0
C      1  0.5258030000000  0.4810820000000  0.4428150000000 1.0
C      1  0.4791440000000  0.5443190000000  0.4495490000000 1.0
C      1  0.5199000000000  0.4555860000000  0.5498320000000 1.0
C      1  0.5450960000000  0.4352830000000  0.4546100000000 1.0
C      1  0.4539480000000  0.5646220000000  0.5447720000000 1.0
C      1  0.4957420000000  0.5103440000000  0.5789160000000 1.0
C      1  0.5033020000000  0.4895600000000  0.4204660000000 1.0
C      1  0.4363180000000  0.5460920000000  0.5586570000000 1.0
C      1  0.5627260000000  0.4538130000000  0.4407250000000 1.0
C      1  0.5645230000000  0.4746090000000  0.4930590000000 1.0
C      1  0.4345220000000  0.5252950000000  0.5063230000000 1.0
C      1  0.5227200000000  0.5663500000000  0.4661490000000 1.0
C      1  0.4763240000000  0.4335540000000  0.5332330000000 1.0
C      1  0.4995220000000  0.4999520000000  0.4996910000000 1.0
END
