TITL C-862129-6180-1021 -0.000558262762305002 125000 -532.560232946243 0 0 99 (C3) n - 1
REM
REM in /home/nfs/bkarasulu/CARBON/AIRSS/Generating-Clusters/TERSOFF/Higher-Symm/FIRE-HFTN
REM
REM
REM
REM
REM
REM ./C.cell (b20cbc046b6831c77cfcea5457e17084)
REM AIRSS Version 0.9.1 bugfix July 2018 build 013d7b7c2542+ Fri, 06 Jul 2018 19:26:36 +0100
REM compiler GCC version 9.2.1 20190827 (Red Hat 9.2.1-1)
REM options -cpp -mtune=generic -march=x86-64 -g -O0 -fpre-include=/usr/include/finclude/math-vector-fortran.h
REM seed 913189442 -365174466 1480675591 817014761 -832179133 -462269411 1628524498 323047256 295586242 1144908625 -2022710649 1261632747 -1202462259 -355686360 1147546127 -1278704742 -240232839 1888045330 -228253150 -882267785 -836550260 -453971954 -1964650050 1883848776 775875527 -270993728 -414007377 102985631 781262531 -1707456038 1608346607 -1166318723 1453012453
REM
CELL 1.54180   50.00000   50.00000   50.00000   90.00000   90.00000   90.00000
LATT -1
SFAC C  
C      1  0.5516870000000  0.4870350000000  0.4521510000000 1.0
C      1  0.4327190000000  0.4870340000000  0.4791620000000 1.0
C      1  0.5155950000000  0.4870330000000  0.5686860000000 1.0
C      1  0.5043250000000  0.5023430000000  0.5312400000000 1.0
C      1  0.5248920000000  0.5023440000000  0.4806340000000 1.0
C      1  0.4707830000000  0.5023440000000  0.4881260000000 1.0
C      1  0.4647370000000  0.5182680000000  0.4626820000000 1.0
C      1  0.4853130000000  0.5182670000000  0.5491980000000 1.0
C      1  0.5499500000000  0.5182680000000  0.4881200000000 1.0
C      1  0.4760970000000  0.4305530000000  0.4578420000000 1.0
C      1  0.4754430000000  0.4305520000000  0.5417780000000 1.0
C      1  0.5484610000000  0.4305530000000  0.5003760000000 1.0
C      1  0.5275990000000  0.4422990000000  0.5520730000000 1.0
C      1  0.5312980000000  0.4423010000000  0.4500610000000 1.0
C      1  0.4411030000000  0.4423000000000  0.4978630000000 1.0
C      1  0.4943910000000  0.5643720000000  0.4711270000000 1.0
C      1  0.4777980000000  0.5643710000000  0.5192960000000 1.0
C      1  0.5278100000000  0.5643720000000  0.5095810000000 1.0
C      1  0.4717000000000  0.4446130000000  0.4971620000000 1.0
C      1  0.5116930000000  0.4446130000000  0.5259270000000 1.0
C      1  0.5166080000000  0.4446130000000  0.4769090000000 1.0
C      1  0.4322950000000  0.4705970000000  0.5030410000000 1.0
C      1  0.5364870000000  0.4705970000000  0.5571130000000 1.0
C      1  0.5312190000000  0.4705990000000  0.4398440000000 1.0
C      1  0.4293660000000  0.4903740000000  0.5473010000000 1.0
C      1  0.5762810000000  0.4903740000000  0.5375200000000 1.0
C      1  0.4943530000000  0.4903760000000  0.4151780000000 1.0
C      1  0.4760390000000  0.5133030000000  0.4288360000000 1.0
C      1  0.4503510000000  0.5133010000000  0.5563330000000 1.0
C      1  0.5736100000000  0.5133020000000  0.5148310000000 1.0
C      1  0.5321450000000  0.5142660000000  0.5259210000000 1.0
C      1  0.5063750000000  0.5142670000000  0.4592010000000 1.0
C      1  0.4614790000000  0.5142660000000  0.5148780000000 1.0
C      1  0.5197720000000  0.4180360000000  0.4945110000000 1.0
C      1  0.4853620000000  0.4180360000000  0.4856200000000 1.0
C      1  0.4948670000000  0.4180360000000  0.5198650000000 1.0
C      1  0.5664390000000  0.4773370000000  0.4785190000000 1.0
C      1  0.4481780000000  0.4773370000000  0.4532020000000 1.0
C      1  0.4853830000000  0.4773350000000  0.5682780000000 1.0
C      1  0.5344400000000  0.5626700000000  0.5388960000000 1.0
C      1  0.5164640000000  0.5626720000000  0.4507280000000 1.0
C      1  0.4490960000000  0.5626710000000  0.5103790000000 1.0
C      1  0.5174570000000  0.5360450000000  0.5078340000000 1.0
C      1  0.4980550000000  0.5360450000000  0.4809660000000 1.0
C      1  0.4844880000000  0.5360450000000  0.5112020000000 1.0
C      1  0.5584440000000  0.4451560000000  0.4742100000000 1.0
C      1  0.4484440000000  0.4451560000000  0.4622800000000 1.0
C      1  0.4931120000000  0.4451550000000  0.5635070000000 1.0
C      1  0.5319900000000  0.5258800000000  0.4200710000000 1.0
C      1  0.4147840000000  0.5258790000000  0.5122610000000 1.0
C      1  0.5532260000000  0.5258780000000  0.5676690000000 1.0
C      1  0.4662480000000  0.5698560000000  0.4607590000000 1.0
C      1  0.4828910000000  0.5698540000000  0.5488530000000 1.0
C      1  0.5508610000000  0.5698550000000  0.4903920000000 1.0
C      1  0.5561220000000  0.5370040000000  0.5361980000000 1.0
C      1  0.5032870000000  0.5370050000000  0.4332990000000 1.0
C      1  0.4405910000000  0.5370030000000  0.5305050000000 1.0
C      1  0.5516810000000  0.5146940000000  0.4435690000000 1.0
C      1  0.4252880000000  0.5146930000000  0.4834590000000 1.0
C      1  0.5230300000000  0.5146920000000  0.5729730000000 1.0
C      1  0.4400410000000  0.5626690000000  0.4785000000000 1.0
C      1  0.5113590000000  0.5626680000000  0.5626780000000 1.0
C      1  0.5486000000000  0.5626700000000  0.4588250000000 1.0
C      1  0.4751530000000  0.4727840000000  0.5374810000000 1.0
C      1  0.5448830000000  0.4727850000000  0.5027770000000 1.0
C      1  0.4799640000000  0.4727860000000  0.4597400000000 1.0
C      1  0.4049880000000  0.5009320000000  0.5299120000000 1.0
C      1  0.5734110000000  0.5009320000000  0.5673260000000 1.0
C      1  0.5216010000000  0.5009340000000  0.4027610000000 1.0
C      1  0.4813070000000  0.5239130000000  0.5926710000000 1.0
C      1  0.5896010000000  0.5239150000000  0.4698540000000 1.0
C      1  0.4290920000000  0.5239150000000  0.4374770000000 1.0
C      1  0.4511990000000  0.4855970000000  0.5249110000000 1.0
C      1  0.5459750000000  0.4855970000000  0.5298070000000 1.0
C      1  0.5028260000000  0.4855990000000  0.4452810000000 1.0
C      1  0.4564040000000  0.5548190000000  0.5544820000000 1.0
C      1  0.5689800000000  0.5548200000000  0.5105160000000 1.0
C      1  0.4746160000000  0.5548210000000  0.4350050000000 1.0
C      1  0.4663260000000  0.4999200000000  0.5818070000000 1.0
C      1  0.5876840000000  0.4999220000000  0.4882590000000 1.0
C      1  0.4459900000000  0.4999230000000  0.4299340000000 1.0
C      1  0.5174110000000  0.4726960000000  0.4906650000000 1.0
C      1  0.4832100000000  0.4726960000000  0.4895890000000 1.0
C      1  0.4993790000000  0.4726960000000  0.5197450000000 1.0
C      1  0.4378690000000  0.5337080000000  0.4650480000000 1.0
C      1  0.5007950000000  0.5337070000000  0.5712840000000 1.0
C      1  0.5613350000000  0.5337090000000  0.4636700000000 1.0
C      1  0.4973990000000  0.4409250000000  0.4386550000000 1.0
C      1  0.4481750000000  0.4409230000000  0.5329240000000 1.0
C      1  0.5544260000000  0.4409230000000  0.5284180000000 1.0
C      1  0.4323210000000  0.4589380000000  0.5513030000000 1.0
C      1  0.5782700000000  0.4589380000000  0.5329600000000 1.0
C      1  0.4894100000000  0.4589400000000  0.4157360000000 1.0
C      1  0.4047410000000  0.4754730000000  0.5140400000000 1.0
C      1  0.5597890000000  0.4754720000000  0.5754760000000 1.0
C      1  0.5354700000000  0.4754750000000  0.4104820000000 1.0
C      1  0.5492430000000  0.5529230000000  0.4263840000000 1.0
C      1  0.4116240000000  0.5529210000000  0.4941630000000 1.0
C      1  0.5391330000000  0.5529200000000  0.5794560000000 1.0
END
