TITL C-862502-1143-527 -0.0594865625114206 125000 -1025.86717290811 0 0 179 (C1) n - 1
REM
REM in /home/nfs/bkarasulu/CARBON/AIRSS/Generating-Clusters/TERSOFF/Higher-Symm/FIRE-HFTN
REM
REM
REM
REM
REM
REM ./C.cell (b20cbc046b6831c77cfcea5457e17084)
REM AIRSS Version 0.9.1 bugfix July 2018 build 013d7b7c2542+ Fri, 06 Jul 2018 19:26:36 +0100
REM compiler GCC version 9.2.1 20190827 (Red Hat 9.2.1-1)
REM options -cpp -mtune=generic -march=x86-64 -g -O0 -fpre-include=/usr/include/finclude/math-vector-fortran.h
REM seed -866958561 1940697211 1115356727 -1963639015 -1208805464 1649788534 1795081704 -1795238973 402348824 1866315256 -445534302 -1051084473 -1209947930 1994879222 816387398 1572882203 2117159071 1841060324 -120246736 -656531947 28904858 152772885 1768207602 1169196065 184523740 -1409746475 -648529783 -761030438 1224285692 -576018501 -695839600 -1008094338 -336664328
REM
CELL 1.54180   50.00000   50.00000   50.00000   90.00000   90.00000   90.00000
LATT -1
SFAC C  
C      1  0.4683290000000  0.5976070000000  0.4470130000000 1.0
C      1  0.5313620000000  0.5977750000000  0.5526250000000 1.0
C      1  0.5319120000000  0.4027450000000  0.4473570000000 1.0
C      1  0.4673090000000  0.4016250000000  0.5531280000000 1.0
C      1  0.4469470000000  0.5974770000000  0.4685800000000 1.0
C      1  0.5528480000000  0.5978020000000  0.5308950000000 1.0
C      1  0.4461910000000  0.4019070000000  0.5310540000000 1.0
C      1  0.5528370000000  0.4031330000000  0.4694320000000 1.0
C      1  0.5020130000000  0.3894430000000  0.4523570000000 1.0
C      1  0.4974590000000  0.3888710000000  0.5477630000000 1.0
C      1  0.4981970000000  0.6106080000000  0.4523080000000 1.0
C      1  0.5016470000000  0.6083910000000  0.5456440000000 1.0
C      1  0.4537480000000  0.3914160000000  0.5013640000000 1.0
C      1  0.5452950000000  0.3923250000000  0.4987740000000 1.0
C      1  0.4524280000000  0.6102790000000  0.4985390000000 1.0
C      1  0.5456070000000  0.6086490000000  0.5013250000000 1.0
C      1  0.4093950000000  0.4682670000000  0.4298930000000 1.0
C      1  0.5903460000000  0.4680530000000  0.5698500000000 1.0
C      1  0.5910160000000  0.5322440000000  0.4300100000000 1.0
C      1  0.4103390000000  0.5317920000000  0.5701120000000 1.0
C      1  0.4302290000000  0.4683650000000  0.4090530000000 1.0
C      1  0.5693240000000  0.4675990000000  0.5904190000000 1.0
C      1  0.4306040000000  0.5317760000000  0.5915700000000 1.0
C      1  0.5701680000000  0.5321020000000  0.4092190000000 1.0
C      1  0.5170970000000  0.4643280000000  0.5953180000000 1.0
C      1  0.4824500000000  0.4645050000000  0.4039830000000 1.0
C      1  0.4830900000000  0.5354790000000  0.5966040000000 1.0
C      1  0.5180530000000  0.5358390000000  0.4040140000000 1.0
C      1  0.5960600000000  0.4647600000000  0.5180160000000 1.0
C      1  0.4040080000000  0.4645860000000  0.4821950000000 1.0
C      1  0.5967020000000  0.5360140000000  0.4820620000000 1.0
C      1  0.4056380000000  0.5350390000000  0.5182740000000 1.0
C      1  0.5335090000000  0.4573500000000  0.5011740000000 1.0
C      1  0.4654960000000  0.4572950000000  0.4996700000000 1.0
C      1  0.4660510000000  0.5405000000000  0.5005770000000 1.0
C      1  0.5343020000000  0.5430220000000  0.4993810000000 1.0
C      1  0.4988660000000  0.4586590000000  0.5350800000000 1.0
C      1  0.4995880000000  0.4589080000000  0.4659880000000 1.0
C      1  0.5008310000000  0.5409840000000  0.4655840000000 1.0
C      1  0.4999520000000  0.5425880000000  0.5338420000000 1.0
C      1  0.5172560000000  0.4960800000000  0.4577880000000 1.0
C      1  0.4857420000000  0.5020790000000  0.5379580000000 1.0
C      1  0.4834060000000  0.5037530000000  0.4573180000000 1.0
C      1  0.5179510000000  0.5054320000000  0.5415280000000 1.0
C      1  0.4586870000000  0.4959240000000  0.5144480000000 1.0
C      1  0.5432540000000  0.4963840000000  0.4833400000000 1.0
C      1  0.4573110000000  0.5036430000000  0.4826120000000 1.0
C      1  0.5439020000000  0.5052300000000  0.5161450000000 1.0
C      1  0.5138650000000  0.4350620000000  0.5908670000000 1.0
C      1  0.4856230000000  0.4353580000000  0.4088750000000 1.0
C      1  0.4861840000000  0.5645900000000  0.5915700000000 1.0
C      1  0.5147800000000  0.5650110000000  0.4086930000000 1.0
C      1  0.5913690000000  0.4356080000000  0.5148130000000 1.0
C      1  0.4083320000000  0.4354050000000  0.4853960000000 1.0
C      1  0.5916700000000  0.5651270000000  0.4853550000000 1.0
C      1  0.4095560000000  0.5642900000000  0.5152560000000 1.0
C      1  0.4294890000000  0.5427160000000  0.4505020000000 1.0
C      1  0.5718910000000  0.5430870000000  0.5500190000000 1.0
C      1  0.5714650000000  0.4576550000000  0.4502060000000 1.0
C      1  0.4283240000000  0.4567680000000  0.5509970000000 1.0
C      1  0.4505930000000  0.5427860000000  0.4293670000000 1.0
C      1  0.5505140000000  0.5427740000000  0.5710740000000 1.0
C      1  0.4492860000000  0.4560280000000  0.5723960000000 1.0
C      1  0.5501570000000  0.4575750000000  0.4291960000000 1.0
C      1  0.4698230000000  0.5712710000000  0.4297580000000 1.0
C      1  0.5310680000000  0.5716200000000  0.5707740000000 1.0
C      1  0.5306720000000  0.4289550000000  0.4298160000000 1.0
C      1  0.4683530000000  0.4277850000000  0.5711110000000 1.0
C      1  0.4298740000000  0.5710390000000  0.4700360000000 1.0
C      1  0.5712230000000  0.5718920000000  0.5304300000000 1.0
C      1  0.4281760000000  0.4280600000000  0.5305800000000 1.0
C      1  0.5709740000000  0.4290130000000  0.4698620000000 1.0
C      1  0.5067650000000  0.5147170000000  0.5922090000000 1.0
C      1  0.4937480000000  0.5150950000000  0.4069980000000 1.0
C      1  0.4930620000000  0.4853110000000  0.5921840000000 1.0
C      1  0.5068210000000  0.4853050000000  0.4070110000000 1.0
C      1  0.5945920000000  0.5152480000000  0.5066400000000 1.0
C      1  0.4072210000000  0.5149250000000  0.4935370000000 1.0
C      1  0.5940990000000  0.4854630000000  0.4934380000000 1.0
C      1  0.4068420000000  0.4853060000000  0.5066650000000 1.0
C      1  0.5927960000000  0.5749240000000  0.5118570000000 1.0
C      1  0.4083100000000  0.5739600000000  0.4886960000000 1.0
C      1  0.4067020000000  0.4255920000000  0.5118690000000 1.0
C      1  0.5925810000000  0.4259530000000  0.4883170000000 1.0
C      1  0.5126480000000  0.5744960000000  0.5925080000000 1.0
C      1  0.4881510000000  0.5745070000000  0.4079590000000 1.0
C      1  0.5122000000000  0.4256840000000  0.4081220000000 1.0
C      1  0.4874420000000  0.4249270000000  0.5923580000000 1.0
C      1  0.4753260000000  0.4416360000000  0.5428410000000 1.0
C      1  0.5234670000000  0.4429040000000  0.4579750000000 1.0
C      1  0.5238140000000  0.5577380000000  0.5424680000000 1.0
C      1  0.4773570000000  0.5575930000000  0.4580060000000 1.0
C      1  0.5427600000000  0.4431830000000  0.4770620000000 1.0
C      1  0.4563040000000  0.4419700000000  0.5235710000000 1.0
C      1  0.5430810000000  0.5576680000000  0.5233220000000 1.0
C      1  0.4582170000000  0.5574140000000  0.4772390000000 1.0
C      1  0.4652340000000  0.5180030000000  0.5586730000000 1.0
C      1  0.5365210000000  0.5187270000000  0.4429270000000 1.0
C      1  0.5357960000000  0.4814640000000  0.5567990000000 1.0
C      1  0.4639990000000  0.4813330000000  0.4427020000000 1.0
C      1  0.5575580000000  0.5187270000000  0.4637790000000 1.0
C      1  0.4443420000000  0.5154000000000  0.5375940000000 1.0
C      1  0.5570790000000  0.4828290000000  0.5360900000000 1.0
C      1  0.4429650000000  0.4812360000000  0.4635900000000 1.0
C      1  0.5202510000000  0.4092190000000  0.5003070000000 1.0
C      1  0.4782560000000  0.4090700000000  0.4999250000000 1.0
C      1  0.4742630000000  0.5891000000000  0.4996150000000 1.0
C      1  0.5213020000000  0.5908990000000  0.4986900000000 1.0
C      1  0.4992190000000  0.4100600000000  0.5261480000000 1.0
C      1  0.4995330000000  0.4102860000000  0.4742090000000 1.0
C      1  0.4996080000000  0.5893660000000  0.4740480000000 1.0
C      1  0.4988760000000  0.5906330000000  0.5213760000000 1.0
C      1  0.5673070000000  0.4771750000000  0.4783410000000 1.0
C      1  0.4335660000000  0.4771560000000  0.5217740000000 1.0
C      1  0.4338000000000  0.5232980000000  0.4781710000000 1.0
C      1  0.5679550000000  0.5239420000000  0.5214890000000 1.0
C      1  0.4751320000000  0.4750350000000  0.5682370000000 1.0
C      1  0.5221740000000  0.4770010000000  0.4335620000000 1.0
C      1  0.4786350000000  0.5234470000000  0.4336400000000 1.0
C      1  0.5228340000000  0.5232510000000  0.5663210000000 1.0
C      1  0.5189000000000  0.5634390000000  0.4588390000000 1.0
C      1  0.4836820000000  0.5660710000000  0.5334170000000 1.0
C      1  0.4821430000000  0.4360010000000  0.4602840000000 1.0
C      1  0.5167980000000  0.4358320000000  0.5403190000000 1.0
C      1  0.4590560000000  0.5628650000000  0.5188310000000 1.0
C      1  0.5335750000000  0.5665580000000  0.4834080000000 1.0
C      1  0.4658690000000  0.4335170000000  0.4836050000000 1.0
C      1  0.5327200000000  0.4334700000000  0.5166400000000 1.0
C      1  0.5539620000000  0.6006320000000  0.4698340000000 1.0
C      1  0.4459190000000  0.6008310000000  0.5308330000000 1.0
C      1  0.4456540000000  0.3994050000000  0.4699000000000 1.0
C      1  0.5537250000000  0.3997130000000  0.5300380000000 1.0
C      1  0.4703170000000  0.6000670000000  0.5540770000000 1.0
C      1  0.5304710000000  0.6014420000000  0.4454390000000 1.0
C      1  0.4695390000000  0.3988640000000  0.4454500000000 1.0
C      1  0.5300500000000  0.3986700000000  0.5545100000000 1.0
C      1  0.5877030000000  0.5207750000000  0.4573370000000 1.0
C      1  0.4141920000000  0.5197060000000  0.5430410000000 1.0
C      1  0.4128500000000  0.4796000000000  0.4572550000000 1.0
C      1  0.5871820000000  0.4799540000000  0.5427100000000 1.0
C      1  0.4578570000000  0.5199740000000  0.5891230000000 1.0
C      1  0.5428840000000  0.5206220000000  0.4127380000000 1.0
C      1  0.4575890000000  0.4797240000000  0.4125750000000 1.0
C      1  0.5421830000000  0.4793690000000  0.5870430000000 1.0
C      1  0.4035610000000  0.5288710000000  0.4448200000000 1.0
C      1  0.5976990000000  0.5288800000000  0.5555530000000 1.0
C      1  0.5973240000000  0.4716870000000  0.4445660000000 1.0
C      1  0.4025500000000  0.4712540000000  0.5557410000000 1.0
C      1  0.4450310000000  0.5289190000000  0.4034330000000 1.0
C      1  0.5554970000000  0.5283370000000  0.5969680000000 1.0
C      1  0.4446140000000  0.4705670000000  0.5986150000000 1.0
C      1  0.5555260000000  0.4714660000000  0.4032020000000 1.0
C      1  0.5362030000000  0.5821340000000  0.4213750000000 1.0
C      1  0.4647620000000  0.5812490000000  0.5785390000000 1.0
C      1  0.4640070000000  0.4183850000000  0.4215330000000 1.0
C      1  0.5354840000000  0.4180450000000  0.5784470000000 1.0
C      1  0.4220320000000  0.5814740000000  0.5366160000000 1.0
C      1  0.5784210000000  0.5818580000000  0.4640560000000 1.0
C      1  0.4214360000000  0.4184810000000  0.4640890000000 1.0
C      1  0.5780270000000  0.4187570000000  0.5360220000000 1.0
C      1  0.4368840000000  0.5759400000000  0.5846070000000 1.0
C      1  0.5641250000000  0.5766320000000  0.4157460000000 1.0
C      1  0.5633210000000  0.4237880000000  0.5842500000000 1.0
C      1  0.4361270000000  0.4241230000000  0.4158770000000 1.0
C      1  0.5843040000000  0.5766360000000  0.4361090000000 1.0
C      1  0.4164480000000  0.5759440000000  0.5645280000000 1.0
C      1  0.5836400000000  0.4240080000000  0.5640230000000 1.0
C      1  0.4158040000000  0.4239440000000  0.4361220000000 1.0
C      1  0.6026800000000  0.4936520000000  0.4628860000000 1.0
C      1  0.3980430000000  0.4932340000000  0.5373030000000 1.0
C      1  0.3982410000000  0.5068640000000  0.4630940000000 1.0
C      1  0.6028590000000  0.5068110000000  0.5372920000000 1.0
C      1  0.4630620000000  0.4927810000000  0.6043140000000 1.0
C      1  0.5371540000000  0.4934090000000  0.3979490000000 1.0
C      1  0.4634180000000  0.5070220000000  0.3981310000000 1.0
C      1  0.5368460000000  0.5065140000000  0.6021670000000 1.0
C      1  0.4994930000000  0.4695680000000  0.5005670000000 1.0
C      1  0.5006290000000  0.5299630000000  0.5000160000000 1.0
C      1  0.5052180000000  0.4997630000000  0.5008280000000 1.0
END
