TITL C-862131-2149-20 0.850162935430593 125000 -945.162811920306 0 0 164 (C1) n - 1
REM
REM in /home/nfs/bkarasulu/CARBON/AIRSS/Generating-Clusters/TERSOFF/Higher-Symm/FIRE-HFTN
REM
REM
REM
REM
REM
REM ./C.cell (b20cbc046b6831c77cfcea5457e17084)
REM AIRSS Version 0.9.1 bugfix July 2018 build 013d7b7c2542+ Fri, 06 Jul 2018 19:26:36 +0100
REM compiler GCC version 9.2.1 20190827 (Red Hat 9.2.1-1)
REM options -cpp -mtune=generic -march=x86-64 -g -O0 -fpre-include=/usr/include/finclude/math-vector-fortran.h
REM seed -1586977891 1914563721 821083780 753199744 1815714121 -1939320352 945113478 -463100479 503406017 -1025840390 -2002385829 -1529820572 -138485707 1912899616 -1681739392 -396237676 1226972204 -1110046408 -1770393576 1870136682 -238145278 -514539332 -1352707044 1818252253 574118569 -1825945019 -1328093104 -1910447454 810943566 707384569 -288956907 1164608063 614535654
REM
CELL 1.54180   50.00000   50.00000   50.00000   90.00000   90.00000   90.00000
LATT -1
SFAC C  
C      1  0.4042890000000  0.4951590000000  0.4617380000000 1.0
C      1  0.4529670000000  0.4015070000000  0.4957250000000 1.0
C      1  0.5540500000000  0.5337920000000  0.4246250000000 1.0
C      1  0.4289330000000  0.4187570000000  0.4554120000000 1.0
C      1  0.4207900000000  0.4576490000000  0.4245630000000 1.0
C      1  0.5433880000000  0.4443650000000  0.5726000000000 1.0
C      1  0.4319040000000  0.5716240000000  0.5137440000000 1.0
C      1  0.4563030000000  0.6062880000000  0.5435280000000 1.0
C      1  0.4765190000000  0.4585040000000  0.4535540000000 1.0
C      1  0.5162050000000  0.5164030000000  0.4035790000000 1.0
C      1  0.5251670000000  0.5874310000000  0.5455530000000 1.0
C      1  0.4622680000000  0.5261680000000  0.5574980000000 1.0
C      1  0.5034660000000  0.4931270000000  0.5664090000000 1.0
C      1  0.5296240000000  0.4667710000000  0.3855530000000 1.0
C      1  0.5075350000000  0.4818610000000  0.4342120000000 1.0
C      1  0.5858810000000  0.5066200000000  0.4903680000000 1.0
C      1  0.4934730000000  0.5563080000000  0.5356830000000 1.0
C      1  0.5189610000000  0.4480720000000  0.5896750000000 1.0
C      1  0.4942790000000  0.4442450000000  0.5554730000000 1.0
C      1  0.4408480000000  0.4587730000000  0.5508760000000 1.0
C      1  0.5152000000000  0.6064270000000  0.5241250000000 1.0
C      1  0.4018850000000  0.4534260000000  0.5186200000000 1.0
C      1  0.4465500000000  0.5609270000000  0.4899890000000 1.0
C      1  0.5023940000000  0.4243800000000  0.4792190000000 1.0
C      1  0.5045270000000  0.5765900000000  0.4341740000000 1.0
C      1  0.4544350000000  0.4101250000000  0.4681570000000 1.0
C      1  0.4680190000000  0.4632530000000  0.4259470000000 1.0
C      1  0.4780210000000  0.5670260000000  0.4471820000000 1.0
C      1  0.4656300000000  0.5147080000000  0.5048730000000 1.0
C      1  0.5314320000000  0.3840140000000  0.4823820000000 1.0
C      1  0.4271910000000  0.4927510000000  0.5218040000000 1.0
C      1  0.5070820000000  0.5373320000000  0.5514740000000 1.0
C      1  0.4402260000000  0.5264550000000  0.5782690000000 1.0
C      1  0.5416650000000  0.4492050000000  0.5136100000000 1.0
C      1  0.5637070000000  0.4960320000000  0.5785190000000 1.0
C      1  0.5210260000000  0.5289820000000  0.5019470000000 1.0
C      1  0.6024670000000  0.5213320000000  0.5157510000000 1.0
C      1  0.4510420000000  0.6012480000000  0.4674260000000 1.0
C      1  0.4082320000000  0.5410650000000  0.4386660000000 1.0
C      1  0.4507820000000  0.4487200000000  0.5064480000000 1.0
C      1  0.5684850000000  0.4616670000000  0.4215950000000 1.0
C      1  0.6077890000000  0.5471200000000  0.4463870000000 1.0
C      1  0.5168990000000  0.3860740000000  0.4562740000000 1.0
C      1  0.4113060000000  0.4529610000000  0.5483520000000 1.0
C      1  0.5080660000000  0.5469960000000  0.6071860000000 1.0
C      1  0.4703730000000  0.5154790000000  0.6184360000000 1.0
C      1  0.5025570000000  0.4725440000000  0.5894600000000 1.0
C      1  0.4819250000000  0.4170840000000  0.4574980000000 1.0
C      1  0.5720900000000  0.4828280000000  0.4431370000000 1.0
C      1  0.4692800000000  0.4861600000000  0.5106160000000 1.0
C      1  0.5364170000000  0.4682420000000  0.5366580000000 1.0
C      1  0.3952140000000  0.4786750000000  0.5566750000000 1.0
C      1  0.5708520000000  0.4114790000000  0.5055100000000 1.0
C      1  0.5417940000000  0.4157980000000  0.5593650000000 1.0
C      1  0.3816120000000  0.4759640000000  0.5161140000000 1.0
C      1  0.5219890000000  0.5080180000000  0.4330350000000 1.0
C      1  0.5458500000000  0.4978050000000  0.6055550000000 1.0
C      1  0.4736760000000  0.6296740000000  0.5434090000000 1.0
C      1  0.5871450000000  0.4567390000000  0.5511350000000 1.0
C      1  0.5839910000000  0.4163190000000  0.4397140000000 1.0
C      1  0.4505710000000  0.5079980000000  0.5986680000000 1.0
C      1  0.5530400000000  0.5425810000000  0.5500690000000 1.0
C      1  0.5223260000000  0.5199450000000  0.5327200000000 1.0
C      1  0.5601160000000  0.5006150000000  0.5242550000000 1.0
C      1  0.3990990000000  0.5281770000000  0.4975970000000 1.0
C      1  0.4590300000000  0.5332800000000  0.5281180000000 1.0
C      1  0.5158350000000  0.5070370000000  0.4814330000000 1.0
C      1  0.5922890000000  0.5100580000000  0.5663760000000 1.0
C      1  0.5256950000000  0.4943390000000  0.5474360000000 1.0
C      1  0.4657720000000  0.4161530000000  0.5427820000000 1.0
C      1  0.4728220000000  0.4640920000000  0.5856290000000 1.0
C      1  0.4269370000000  0.5869050000000  0.4257580000000 1.0
C      1  0.5497640000000  0.6014510000000  0.4341630000000 1.0
C      1  0.5245230000000  0.4376100000000  0.4455320000000 1.0
C      1  0.5622300000000  0.5297460000000  0.5242050000000 1.0
C      1  0.5873140000000  0.5585080000000  0.4639700000000 1.0
C      1  0.6032810000000  0.5254080000000  0.4277130000000 1.0
C      1  0.5241460000000  0.4259120000000  0.5157860000000 1.0
C      1  0.4391480000000  0.5995400000000  0.5207410000000 1.0
C      1  0.4045120000000  0.5823830000000  0.4686040000000 1.0
C      1  0.4367970000000  0.5657090000000  0.5637870000000 1.0
C      1  0.5322640000000  0.4318300000000  0.4750190000000 1.0
C      1  0.4688010000000  0.5241570000000  0.4739600000000 1.0
C      1  0.5481330000000  0.5249780000000  0.5730850000000 1.0
C      1  0.4035910000000  0.5316710000000  0.5434610000000 1.0
C      1  0.5708120000000  0.5959370000000  0.4544550000000 1.0
C      1  0.3958980000000  0.4994390000000  0.5318580000000 1.0
C      1  0.5062030000000  0.4638280000000  0.4583510000000 1.0
C      1  0.4948180000000  0.4713160000000  0.5091670000000 1.0
C      1  0.4681650000000  0.5775300000000  0.4740750000000 1.0
C      1  0.4796740000000  0.5842530000000  0.5839680000000 1.0
C      1  0.5157570000000  0.4957950000000  0.6064710000000 1.0
C      1  0.4198700000000  0.5594230000000  0.4188760000000 1.0
C      1  0.5452550000000  0.5258690000000  0.4543830000000 1.0
C      1  0.4168220000000  0.4684400000000  0.4717840000000 1.0
C      1  0.5607740000000  0.4016440000000  0.5350720000000 1.0
C      1  0.3972350000000  0.5548430000000  0.4621880000000 1.0
C      1  0.4393090000000  0.5039970000000  0.4240720000000 1.0
C      1  0.4195530000000  0.4467430000000  0.4510200000000 1.0
C      1  0.5563670000000  0.5917860000000  0.4803540000000 1.0
C      1  0.5904720000000  0.5471580000000  0.5315840000000 1.0
C      1  0.4821030000000  0.4918900000000  0.3911390000000 1.0
C      1  0.5000830000000  0.5631030000000  0.5838610000000 1.0
C      1  0.5645840000000  0.4647760000000  0.5676130000000 1.0
C      1  0.5672610000000  0.5063930000000  0.4641370000000 1.0
C      1  0.4905720000000  0.4716220000000  0.4100040000000 1.0
C      1  0.5491540000000  0.5422470000000  0.5003170000000 1.0
C      1  0.5117540000000  0.4047320000000  0.5656220000000 1.0
C      1  0.5772970000000  0.5128000000000  0.4238820000000 1.0
C      1  0.5603410000000  0.4047100000000  0.4514920000000 1.0
C      1  0.5064390000000  0.4596120000000  0.5338820000000 1.0
C      1  0.5782670000000  0.4827940000000  0.5095390000000 1.0
C      1  0.5008120000000  0.6299980000000  0.5333090000000 1.0
C      1  0.6054070000000  0.5004160000000  0.5393080000000 1.0
C      1  0.4896650000000  0.5201190000000  0.5673510000000 1.0
C      1  0.4573170000000  0.5861610000000  0.5648510000000 1.0
C      1  0.5051400000000  0.4218270000000  0.5892750000000 1.0
C      1  0.4626300000000  0.5236310000000  0.4216400000000 1.0
C      1  0.5512810000000  0.5731900000000  0.5478590000000 1.0
C      1  0.5151690000000  0.4768760000000  0.4855660000000 1.0
C      1  0.5933250000000  0.4529470000000  0.4841140000000 1.0
C      1  0.5090250000000  0.4245180000000  0.4087670000000 1.0
C      1  0.5694190000000  0.4653050000000  0.4724170000000 1.0
C      1  0.4918270000000  0.5756320000000  0.4921450000000 1.0
C      1  0.4842490000000  0.5194480000000  0.4000490000000 1.0
C      1  0.5210120000000  0.3758610000000  0.5097550000000 1.0
C      1  0.4900070000000  0.3983550000000  0.5448040000000 1.0
C      1  0.5318110000000  0.4067700000000  0.4392480000000 1.0
C      1  0.4241710000000  0.5201540000000  0.5087270000000 1.0
C      1  0.5423650000000  0.4593170000000  0.4857820000000 1.0
C      1  0.4012070000000  0.4963380000000  0.5791510000000 1.0
C      1  0.4986890000000  0.5196050000000  0.6127290000000 1.0
C      1  0.4247760000000  0.5551050000000  0.5388010000000 1.0
C      1  0.4674750000000  0.5395090000000  0.4461960000000 1.0
C      1  0.5313060000000  0.5411390000000  0.4061650000000 1.0
C      1  0.4969690000000  0.5519720000000  0.5075300000000 1.0
C      1  0.5288970000000  0.6001960000000  0.4756120000000 1.0
C      1  0.5741090000000  0.5748160000000  0.5263110000000 1.0
C      1  0.4255700000000  0.5967020000000  0.4536050000000 1.0
C      1  0.5298070000000  0.4966970000000  0.3834880000000 1.0
C      1  0.4949570000000  0.3780520000000  0.5239470000000 1.0
C      1  0.4463740000000  0.4884870000000  0.5479670000000 1.0
C      1  0.4944980000000  0.5130080000000  0.4643640000000 1.0
C      1  0.4254460000000  0.4643960000000  0.5016200000000 1.0
C      1  0.5930130000000  0.4303210000000  0.5026360000000 1.0
C      1  0.4161110000000  0.5125150000000  0.4397560000000 1.0
C      1  0.4123260000000  0.5222650000000  0.5712970000000 1.0
C      1  0.5076140000000  0.4518000000000  0.3980320000000 1.0
C      1  0.3868700000000  0.5104090000000  0.4790890000000 1.0
C      1  0.5218080000000  0.5981830000000  0.4458750000000 1.0
C      1  0.4426990000000  0.4751100000000  0.4195970000000 1.0
C      1  0.4529550000000  0.4211320000000  0.5165040000000 1.0
C      1  0.5520300000000  0.4074930000000  0.4820310000000 1.0
C      1  0.4550200000000  0.4861030000000  0.5794450000000 1.0
C      1  0.5978840000000  0.4732510000000  0.5302490000000 1.0
C      1  0.4889000000000  0.4122080000000  0.4279510000000 1.0
C      1  0.5583960000000  0.5540770000000  0.4611270000000 1.0
C      1  0.4636240000000  0.4409400000000  0.5624420000000 1.0
C      1  0.5336430000000  0.4001040000000  0.5213170000000 1.0
C      1  0.5618500000000  0.5704800000000  0.4996360000000 1.0
C      1  0.5148880000000  0.5655530000000  0.4086590000000 1.0
C      1  0.5097450000000  0.5971010000000  0.4961950000000 1.0
C      1  0.5935030000000  0.5393580000000  0.5608440000000 1.0
C      1  0.5838640000000  0.4372380000000  0.4197670000000 1.0
END
