TITL C-862127-1500-671 2.78210846082518 125000 -520.322227533783 0 0 87 (C1) n - 1
REM
REM in /home/nfs/bkarasulu/CARBON/AIRSS/Generating-Clusters/TERSOFF/Higher-Symm/FIRE-HFTN
REM
REM
REM
REM
REM
REM ./C.cell (b20cbc046b6831c77cfcea5457e17084)
REM AIRSS Version 0.9.1 bugfix July 2018 build 013d7b7c2542+ Fri, 06 Jul 2018 19:26:36 +0100
REM compiler GCC version 9.2.1 20190827 (Red Hat 9.2.1-1)
REM options -cpp -mtune=generic -march=x86-64 -g -O0 -fpre-include=/usr/include/finclude/math-vector-fortran.h
REM seed 611167138 769507018 92986655 -114368615 -1058478896 -1598614898 822271841 -436295899 180537612 798453531 -1831997777 1010342732 -480987101 -552650655 -456817007 -1765042733 538162952 1562022977 255475434 452355360 1169474355 -1215120870 398711172 -1068280022 -483733020 -1312718425 2109647710 352265099 1744140875 -1345949615 542469618 1761444952 -423714402
REM
CELL 1.54180   50.00000   50.00000   50.00000   90.00000   90.00000   90.00000
LATT -1
SFAC C  
C      1  0.4797300000000  0.5922910000000  0.5287570000000 1.0
C      1  0.4596410000000  0.5097910000000  0.4820380000000 1.0
C      1  0.5726310000000  0.4914970000000  0.5055510000000 1.0
C      1  0.4167860000000  0.4956310000000  0.5202590000000 1.0
C      1  0.5287170000000  0.4629410000000  0.5202250000000 1.0
C      1  0.5276930000000  0.4913710000000  0.4890760000000 1.0
C      1  0.5499800000000  0.4459190000000  0.4568230000000 1.0
C      1  0.5015800000000  0.4997560000000  0.4570310000000 1.0
C      1  0.5411580000000  0.4865220000000  0.4644020000000 1.0
C      1  0.4373280000000  0.5537610000000  0.5100060000000 1.0
C      1  0.5007810000000  0.4809000000000  0.4945350000000 1.0
C      1  0.5143500000000  0.4103120000000  0.4659940000000 1.0
C      1  0.4750440000000  0.4606850000000  0.4360450000000 1.0
C      1  0.4551700000000  0.4626370000000  0.4978400000000 1.0
C      1  0.4725120000000  0.5145120000000  0.5692290000000 1.0
C      1  0.5467690000000  0.5625440000000  0.4691460000000 1.0
C      1  0.5347250000000  0.4289080000000  0.4758800000000 1.0
C      1  0.4646430000000  0.4632190000000  0.5720010000000 1.0
C      1  0.4933990000000  0.5442430000000  0.5195290000000 1.0
C      1  0.4742620000000  0.4981500000000  0.5279830000000 1.0
C      1  0.4111920000000  0.5415390000000  0.5083690000000 1.0
C      1  0.5212260000000  0.4975270000000  0.6016530000000 1.0
C      1  0.4820340000000  0.4369040000000  0.5315480000000 1.0
C      1  0.4533560000000  0.5492760000000  0.5346750000000 1.0
C      1  0.5248090000000  0.5248000000000  0.4090860000000 1.0
C      1  0.4870990000000  0.4490900000000  0.5589870000000 1.0
C      1  0.4140460000000  0.4663240000000  0.5193150000000 1.0
C      1  0.5573450000000  0.5509860000000  0.5544360000000 1.0
C      1  0.5709090000000  0.5445760000000  0.5276340000000 1.0
C      1  0.5484720000000  0.5824370000000  0.5072830000000 1.0
C      1  0.4560910000000  0.4437000000000  0.5196000000000 1.0
C      1  0.5322700000000  0.4671760000000  0.5479310000000 1.0
C      1  0.5557540000000  0.5072770000000  0.4487050000000 1.0
C      1  0.5434910000000  0.5042620000000  0.5104070000000 1.0
C      1  0.5500500000000  0.5294160000000  0.5736250000000 1.0
C      1  0.5416910000000  0.5931140000000  0.5332510000000 1.0
C      1  0.5225670000000  0.5196240000000  0.5821840000000 1.0
C      1  0.4824660000000  0.5187090000000  0.4670430000000 1.0
C      1  0.4368200000000  0.4597210000000  0.5630310000000 1.0
C      1  0.5889200000000  0.5094220000000  0.4887660000000 1.0
C      1  0.5326780000000  0.4358520000000  0.5067580000000 1.0
C      1  0.4736450000000  0.5272560000000  0.4159270000000 1.0
C      1  0.4798610000000  0.5642410000000  0.5373200000000 1.0
C      1  0.4098220000000  0.5143150000000  0.4979720000000 1.0
C      1  0.5051530000000  0.5527200000000  0.4945870000000 1.0
C      1  0.4980810000000  0.4802810000000  0.4357910000000 1.0
C      1  0.5763250000000  0.5660290000000  0.5022960000000 1.0
C      1  0.5026170000000  0.4234450000000  0.5131390000000 1.0
C      1  0.5166570000000  0.4694580000000  0.5948320000000 1.0
C      1  0.5238000000000  0.5054930000000  0.5329800000000 1.0
C      1  0.5250290000000  0.4763070000000  0.4230920000000 1.0
C      1  0.5635450000000  0.4410740000000  0.5117700000000 1.0
C      1  0.4201650000000  0.5130580000000  0.4681190000000 1.0
C      1  0.5779000000000  0.5239910000000  0.4656860000000 1.0
C      1  0.4257940000000  0.5060040000000  0.5471890000000 1.0
C      1  0.5459890000000  0.5774970000000  0.5568320000000 1.0
C      1  0.5752980000000  0.4632590000000  0.4964340000000 1.0
C      1  0.5240040000000  0.4276190000000  0.4200100000000 1.0
C      1  0.5389280000000  0.4507700000000  0.4289940000000 1.0
C      1  0.5501990000000  0.5338030000000  0.5087890000000 1.0
C      1  0.4373460000000  0.4954270000000  0.4440370000000 1.0
C      1  0.4703240000000  0.4221650000000  0.4705380000000 1.0
C      1  0.4532200000000  0.5217910000000  0.4371170000000 1.0
C      1  0.5007940000000  0.5374840000000  0.4209770000000 1.0
C      1  0.5310870000000  0.5668740000000  0.4458980000000 1.0
C      1  0.4924650000000  0.4102290000000  0.4872820000000 1.0
C      1  0.5750290000000  0.5534880000000  0.4703700000000 1.0
C      1  0.4391310000000  0.5391950000000  0.4601620000000 1.0
C      1  0.4499360000000  0.5237870000000  0.5506730000000 1.0
C      1  0.5050060000000  0.5549330000000  0.4436560000000 1.0
C      1  0.4704490000000  0.4892310000000  0.5840840000000 1.0
C      1  0.4431810000000  0.4557460000000  0.4728470000000 1.0
C      1  0.4922280000000  0.5459640000000  0.4689420000000 1.0
C      1  0.4968400000000  0.5163480000000  0.5293320000000 1.0
C      1  0.4221400000000  0.4847870000000  0.5670910000000 1.0
C      1  0.4494590000000  0.4693530000000  0.4484560000000 1.0
C      1  0.5401750000000  0.5027480000000  0.4216130000000 1.0
C      1  0.5045560000000  0.4166800000000  0.4381840000000 1.0
C      1  0.4321320000000  0.4487820000000  0.5357880000000 1.0
C      1  0.5731150000000  0.4594490000000  0.4675150000000 1.0
C      1  0.5336280000000  0.5562460000000  0.4948800000000 1.0
C      1  0.4967950000000  0.5312090000000  0.5721300000000 1.0
C      1  0.4502590000000  0.5545280000000  0.4831690000000 1.0
C      1  0.4609060000000  0.4905830000000  0.5034320000000 1.0
C      1  0.4944430000000  0.5582480000000  0.5625610000000 1.0
C      1  0.4788800000000  0.4315510000000  0.4431640000000 1.0
C      1  0.5134760000000  0.4592310000000  0.5677080000000 1.0
END
