TITL C-862127-1500-746 0.0243872138792137 125000 -914.515343816137 0 0 171 (C2) n - 1
REM
REM in /home/nfs/bkarasulu/CARBON/AIRSS/Generating-Clusters/TERSOFF/Higher-Symm/FIRE-HFTN
REM
REM
REM
REM
REM
REM ./C.cell (b20cbc046b6831c77cfcea5457e17084)
REM AIRSS Version 0.9.1 bugfix July 2018 build 013d7b7c2542+ Fri, 06 Jul 2018 19:26:36 +0100
REM compiler GCC version 9.2.1 20190827 (Red Hat 9.2.1-1)
REM options -cpp -mtune=generic -march=x86-64 -g -O0 -fpre-include=/usr/include/finclude/math-vector-fortran.h
REM seed -474130133 778904867 1699804520 1844520289 -236681275 -1633069910 -2055501074 1750219438 419401189 944189482 1380023523 -1130637324 20785446 2055664506 -919271114 -1533398084 -1389960295 4282528 -1977994353 -324790038 677923879 -896046780 -196961363 1276620162 -1444657119 -1291741316 -1962425337 -1339943870 -1892178331 -1984611166 583083291 1412235650 1792135474
REM
CELL 1.54180   50.00000   50.00000   50.00000   90.00000   90.00000   90.00000
LATT -1
SFAC C  
C      1  0.6003240000000  0.5602030000000  0.5234730000000 1.0
C      1  0.3992400000000  0.5602000000000  0.4762170000000 1.0
C      1  0.3977920000000  0.4410730000000  0.5230850000000 1.0
C      1  0.6017620000000  0.4410650000000  0.4765420000000 1.0
C      1  0.4115550000000  0.4340920000000  0.4900900000000 1.0
C      1  0.5879370000000  0.4341140000000  0.5095250000000 1.0
C      1  0.5885820000000  0.5672600000000  0.4897710000000 1.0
C      1  0.4110490000000  0.5672500000000  0.5098950000000 1.0
C      1  0.5872520000000  0.4491470000000  0.4494780000000 1.0
C      1  0.4123710000000  0.4490520000000  0.5501230000000 1.0
C      1  0.4145010000000  0.5522880000000  0.4497080000000 1.0
C      1  0.5850160000000  0.5522700000000  0.5499450000000 1.0
C      1  0.5644340000000  0.4848250000000  0.5921060000000 1.0
C      1  0.4351690000000  0.4848860000000  0.4074560000000 1.0
C      1  0.4358290000000  0.5144700000000  0.5918810000000 1.0
C      1  0.5638890000000  0.5144680000000  0.4075800000000 1.0
C      1  0.6105090000000  0.5268610000000  0.5150010000000 1.0
C      1  0.3890610000000  0.5268620000000  0.4846920000000 1.0
C      1  0.3885500000000  0.4746050000000  0.5141090000000 1.0
C      1  0.6110340000000  0.4745950000000  0.4855440000000 1.0
C      1  0.4298460000000  0.4282050000000  0.4592420000000 1.0
C      1  0.5698350000000  0.4282030000000  0.5404880000000 1.0
C      1  0.5693910000000  0.5722200000000  0.4593250000000 1.0
C      1  0.4302680000000  0.5722050000000  0.5403250000000 1.0
C      1  0.4943120000000  0.4338750000000  0.4671250000000 1.0
C      1  0.5054500000000  0.4337370000000  0.5324880000000 1.0
C      1  0.5070020000000  0.5630230000000  0.4670090000000 1.0
C      1  0.4926260000000  0.5629690000000  0.5326030000000 1.0
C      1  0.4400150000000  0.5191700000000  0.4822690000000 1.0
C      1  0.5595990000000  0.5191070000000  0.5173230000000 1.0
C      1  0.5575450000000  0.4767850000000  0.4820230000000 1.0
C      1  0.4419590000000  0.4768760000000  0.5176850000000 1.0
C      1  0.5983720000000  0.4753150000000  0.4396080000000 1.0
C      1  0.4013130000000  0.4752400000000  0.5600270000000 1.0
C      1  0.4031560000000  0.5263050000000  0.4390820000000 1.0
C      1  0.5963310000000  0.5262730000000  0.5605910000000 1.0
C      1  0.5067790000000  0.5939320000000  0.4386630000000 1.0
C      1  0.4929040000000  0.5938990000000  0.5609260000000 1.0
C      1  0.4912520000000  0.4051840000000  0.4366730000000 1.0
C      1  0.5083030000000  0.4052150000000  0.5631220000000 1.0
C      1  0.4869110000000  0.5601170000000  0.5984830000000 1.0
C      1  0.5127570000000  0.5601260000000  0.4011160000000 1.0
C      1  0.5138950000000  0.4393710000000  0.5998140000000 1.0
C      1  0.4857550000000  0.4393630000000  0.3999420000000 1.0
C      1  0.5062770000000  0.4517290000000  0.4467000000000 1.0
C      1  0.4934060000000  0.4515860000000  0.5529210000000 1.0
C      1  0.4947870000000  0.5468310000000  0.4451280000000 1.0
C      1  0.5048110000000  0.5467130000000  0.5544520000000 1.0
C      1  0.5650890000000  0.4990340000000  0.5671650000000 1.0
C      1  0.4344540000000  0.4991720000000  0.4323550000000 1.0
C      1  0.4344810000000  0.4998610000000  0.5672140000000 1.0
C      1  0.5652200000000  0.4999230000000  0.4322820000000 1.0
C      1  0.5260720000000  0.5922310000000  0.4902420000000 1.0
C      1  0.4735940000000  0.5922250000000  0.5093980000000 1.0
C      1  0.4722320000000  0.4047900000000  0.4877340000000 1.0
C      1  0.5276220000000  0.4044480000000  0.5122720000000 1.0
C      1  0.4857600000000  0.3914660000000  0.4634840000000 1.0
C      1  0.5137350000000  0.3913920000000  0.5363860000000 1.0
C      1  0.5118280000000  0.6063050000000  0.4665190000000 1.0
C      1  0.4878450000000  0.6062860000000  0.5330960000000 1.0
C      1  0.4785740000000  0.5140960000000  0.5647090000000 1.0
C      1  0.5210560000000  0.5142050000000  0.4348160000000 1.0
C      1  0.5202080000000  0.4847890000000  0.5652260000000 1.0
C      1  0.4792780000000  0.4848710000000  0.4342330000000 1.0
C      1  0.4609430000000  0.4899070000000  0.5581100000000 1.0
C      1  0.5387300000000  0.4900320000000  0.4413560000000 1.0
C      1  0.5384390000000  0.5083560000000  0.5581630000000 1.0
C      1  0.4611170000000  0.5084900000000  0.4413410000000 1.0
C      1  0.4135630000000  0.5460140000000  0.5511470000000 1.0
C      1  0.5861000000000  0.5460180000000  0.4485300000000 1.0
C      1  0.5861000000000  0.4547020000000  0.5512480000000 1.0
C      1  0.4134830000000  0.4546620000000  0.4484330000000 1.0
C      1  0.5283850000000  0.4880610000000  0.4712760000000 1.0
C      1  0.4712640000000  0.4879690000000  0.5281690000000 1.0
C      1  0.4708960000000  0.5106830000000  0.4712800000000 1.0
C      1  0.5287100000000  0.5105520000000  0.5282080000000 1.0
C      1  0.3970290000000  0.4937580000000  0.5372370000000 1.0
C      1  0.6026110000000  0.4937880000000  0.4624360000000 1.0
C      1  0.6014850000000  0.5076340000000  0.5380400000000 1.0
C      1  0.3980360000000  0.5076370000000  0.4616200000000 1.0
C      1  0.4996160000000  0.4782840000000  0.4567560000000 1.0
C      1  0.4999630000000  0.4781500000000  0.5425980000000 1.0
C      1  0.5001240000000  0.5202540000000  0.4571700000000 1.0
C      1  0.4995130000000  0.5201260000000  0.5423550000000 1.0
C      1  0.4832970000000  0.5633260000000  0.4053320000000 1.0
C      1  0.5163770000000  0.5632620000000  0.5942330000000 1.0
C      1  0.5152130000000  0.4358950000000  0.4043870000000 1.0
C      1  0.4844270000000  0.4359110000000  0.5953960000000 1.0
C      1  0.4023910000000  0.4639680000000  0.4882420000000 1.0
C      1  0.5971410000000  0.4639680000000  0.5113780000000 1.0
C      1  0.5982170000000  0.5374380000000  0.4883070000000 1.0
C      1  0.4014040000000  0.5374320000000  0.5113770000000 1.0
C      1  0.5267760000000  0.4858390000000  0.3878780000000 1.0
C      1  0.4729020000000  0.4858810000000  0.6116860000000 1.0
C      1  0.4715250000000  0.5138480000000  0.3872090000000 1.0
C      1  0.5281690000000  0.5138370000000  0.6124170000000 1.0
C      1  0.5432440000000  0.5331790000000  0.4454750000000 1.0
C      1  0.4564410000000  0.5331570000000  0.5540940000000 1.0
C      1  0.4569420000000  0.4661840000000  0.4453510000000 1.0
C      1  0.5425490000000  0.4660870000000  0.5541560000000 1.0
C      1  0.4720030000000  0.5754960000000  0.5769680000000 1.0
C      1  0.5276820000000  0.5755090000000  0.4226330000000 1.0
C      1  0.5290170000000  0.4239240000000  0.5784510000000 1.0
C      1  0.4706090000000  0.4239290000000  0.4212890000000 1.0
C      1  0.4116590000000  0.5203260000000  0.5333480000000 1.0
C      1  0.5879790000000  0.5203350000000  0.4663410000000 1.0
C      1  0.5871650000000  0.4807630000000  0.5338640000000 1.0
C      1  0.4123840000000  0.4807740000000  0.4657570000000 1.0
C      1  0.5533070000000  0.4731080000000  0.5261120000000 1.0
C      1  0.4462410000000  0.4732630000000  0.4734110000000 1.0
C      1  0.4453050000000  0.5260050000000  0.5262550000000 1.0
C      1  0.5543500000000  0.5259780000000  0.4733220000000 1.0
C      1  0.5192590000000  0.4162980000000  0.4283260000000 1.0
C      1  0.4803370000000  0.4163090000000  0.5715260000000 1.0
C      1  0.4790620000000  0.5824830000000  0.4295240000000 1.0
C      1  0.5205840000000  0.5823650000000  0.5700140000000 1.0
C      1  0.5529470000000  0.5487480000000  0.5016530000000 1.0
C      1  0.4466930000000  0.5488000000000  0.4979450000000 1.0
C      1  0.4491250000000  0.4493390000000  0.5008380000000 1.0
C      1  0.5502420000000  0.4490900000000  0.4987600000000 1.0
C      1  0.5400960000000  0.4862240000000  0.6080880000000 1.0
C      1  0.4595650000000  0.4862380000000  0.3915540000000 1.0
C      1  0.4606030000000  0.5133580000000  0.6071940000000 1.0
C      1  0.5390830000000  0.5133450000000  0.3923220000000 1.0
C      1  0.4580820000000  0.5670860000000  0.5227000000000 1.0
C      1  0.5415530000000  0.5670830000000  0.4769100000000 1.0
C      1  0.5405300000000  0.4312790000000  0.5240190000000 1.0
C      1  0.4592420000000  0.4314910000000  0.4756810000000 1.0
C      1  0.5456690000000  0.5804860000000  0.5523330000000 1.0
C      1  0.4539940000000  0.5805230000000  0.4472360000000 1.0
C      1  0.4557290000000  0.4195060000000  0.5525170000000 1.0
C      1  0.5438480000000  0.4195620000000  0.4475380000000 1.0
C      1  0.5207130000000  0.4604920000000  0.4932700000000 1.0
C      1  0.4786060000000  0.4605960000000  0.5058140000000 1.0
C      1  0.4758030000000  0.5378270000000  0.4932150000000 1.0
C      1  0.5238310000000  0.5378020000000  0.5063720000000 1.0
C      1  0.4510640000000  0.5603330000000  0.5634910000000 1.0
C      1  0.5486280000000  0.5603590000000  0.4361240000000 1.0
C      1  0.5491700000000  0.4394920000000  0.5642260000000 1.0
C      1  0.4504330000000  0.4394910000000  0.4354670000000 1.0
C      1  0.5251430000000  0.5387960000000  0.3834330000000 1.0
C      1  0.4745070000000  0.5387980000000  0.6161350000000 1.0
C      1  0.4736410000000  0.4609730000000  0.3824230000000 1.0
C      1  0.5260250000000  0.4609920000000  0.6172880000000 1.0
C      1  0.4886270000000  0.5658480000000  0.4900230000000 1.0
C      1  0.5110410000000  0.5658470000000  0.5096140000000 1.0
C      1  0.5124570000000  0.4284040000000  0.4908210000000 1.0
C      1  0.4878910000000  0.4295050000000  0.5084000000000 1.0
C      1  0.4489330000000  0.4220630000000  0.5220430000000 1.0
C      1  0.5518370000000  0.4221030000000  0.4778100000000 1.0
C      1  0.5495380000000  0.5770860000000  0.5219190000000 1.0
C      1  0.4501680000000  0.5771460000000  0.4776580000000 1.0
C      1  0.4666370000000  0.4604330000000  0.5957050000000 1.0
C      1  0.5330530000000  0.4604100000000  0.4039200000000 1.0
C      1  0.5341170000000  0.5385530000000  0.5954360000000 1.0
C      1  0.4655230000000  0.5386230000000  0.4041100000000 1.0
C      1  0.5585930000000  0.5417270000000  0.5426700000000 1.0
C      1  0.4409580000000  0.5418100000000  0.4569340000000 1.0
C      1  0.4395110000000  0.4570900000000  0.5431890000000 1.0
C      1  0.5601270000000  0.4572400000000  0.4563770000000 1.0
C      1  0.5191000000000  0.4815270000000  0.5182100000000 1.0
C      1  0.4805370000000  0.4816780000000  0.4811190000000 1.0
C      1  0.4796910000000  0.5173070000000  0.5180730000000 1.0
C      1  0.5199290000000  0.5173660000000  0.4814630000000 1.0
C      1  0.4643950000000  0.4595140000000  0.5645600000000 1.0
C      1  0.5352840000000  0.4595790000000  0.4350520000000 1.0
C      1  0.5341940000000  0.5384500000000  0.5643210000000 1.0
C      1  0.4653790000000  0.5386110000000  0.4352490000000 1.0
C      1  0.4266900000000  0.4978080000000  0.5013200000000 1.0
C      1  0.5728620000000  0.4977150000000  0.4982600000000 1.0
C      1  0.4998030000000  0.4997550000000  0.4997200000000 1.0
END
