TITL C-862134-6730-427 -8.58909472197349e-06 125000 -172.48589714233 0 0 39 (C1) n - 1
REM
REM in /home/nfs/bkarasulu/CARBON/AIRSS/Generating-Clusters/TERSOFF/Higher-Symm/FIRE-HFTN
REM
REM
REM
REM
REM
REM ./C.cell (b20cbc046b6831c77cfcea5457e17084)
REM AIRSS Version 0.9.1 bugfix July 2018 build 013d7b7c2542+ Fri, 06 Jul 2018 19:26:36 +0100
REM compiler GCC version 9.2.1 20190827 (Red Hat 9.2.1-1)
REM options -cpp -mtune=generic -march=x86-64 -g -O0 -fpre-include=/usr/include/finclude/math-vector-fortran.h
REM seed -1703050756 -702892078 -1603818890 -376912496 558406710 -858870559 -1692523711 -292722394 1494626965 1034519684 -414748431 -1528594453 -317839163 1888311655 118611601 -1367511344 -1169483674 -263327383 -1021767815 1812026500 -1151287225 221962807 461247056 -2133142335 1952142174 1283019947 718838598 -2125871216 -1978651824 715374645 1431281773 -592846537 -501910344
REM
CELL 1.54180   50.00000   50.00000   50.00000   90.00000   90.00000   90.00000
LATT -1
SFAC C  
C      1  0.4637040000000  0.5517780000000  0.5025530000000 1.0
C      1  0.4914540000000  0.5520000000000  0.5335660000000 1.0
C      1  0.5295080000000  0.5523100000000  0.5167430000000 1.0
C      1  0.5252580000000  0.5522760000000  0.4753570000000 1.0
C      1  0.4845930000000  0.5520840000000  0.4665620000000 1.0
C      1  0.5171140000000  0.4682060000000  0.4517480000000 1.0
C      1  0.4593950000000  0.4684250000000  0.4668710000000 1.0
C      1  0.4561170000000  0.4683600000000  0.5265840000000 1.0
C      1  0.5118400000000  0.4681520000000  0.5479570000000 1.0
C      1  0.5493420000000  0.4679760000000  0.5017430000000 1.0
C      1  0.5578370000000  0.5173840000000  0.4972540000000 1.0
C      1  0.5154830000000  0.5174030000000  0.4424290000000 1.0
C      1  0.4502520000000  0.5172180000000  0.4658190000000 1.0
C      1  0.4522420000000  0.5173890000000  0.5350550000000 1.0
C      1  0.5187710000000  0.5174730000000  0.5545360000000 1.0
C      1  0.5263510000000  0.4540120000000  0.5215230000000 1.0
C      1  0.5287500000000  0.4540050000000  0.4797210000000 1.0
C      1  0.4897140000000  0.4547070000000  0.4646030000000 1.0
C      1  0.4631170000000  0.4546570000000  0.4969340000000 1.0
C      1  0.4858450000000  0.4546700000000  0.5320930000000 1.0
C      1  0.5299540000000  0.5227410000000  0.4814560000000 1.0
C      1  0.4918510000000  0.5225010000000  0.4641040000000 1.0
C      1  0.4635300000000  0.5221950000000  0.4949270000000 1.0
C      1  0.4841490000000  0.5224100000000  0.5313510000000 1.0
C      1  0.5251810000000  0.5227450000000  0.5230550000000 1.0
C      1  0.5573110000000  0.4909270000000  0.4802280000000 1.0
C      1  0.4991110000000  0.4910010000000  0.4373300000000 1.0
C      1  0.4399230000000  0.4909570000000  0.4798080000000 1.0
C      1  0.4624790000000  0.4910270000000  0.5488800000000 1.0
C      1  0.5347810000000  0.4910070000000  0.5487950000000 1.0
C      1  0.4935260000000  0.4963870000000  0.5545300000000 1.0
C      1  0.5498750000000  0.4963830000000  0.5211990000000 1.0
C      1  0.5357620000000  0.4964300000000  0.4573290000000 1.0
C      1  0.4706140000000  0.4965130000000  0.4507860000000 1.0
C      1  0.4442420000000  0.4963990000000  0.5111210000000 1.0
C      1  0.4988170000000  0.5619770000000  0.4989730000000 1.0
C      1  0.4985500000000  0.4471860000000  0.4989600000000 1.0
C      1  0.4989150000000  0.5131090000000  0.4989670000000 1.0
C      1  0.5039400000000  0.4816560000000  0.4992620000000 1.0
END
