TITL C-862506-1665-76 0.00175210313065769 125000 -934.133028548137 0 0 167 (Cs) n - 1
REM
REM in /home/nfs/bkarasulu/CARBON/AIRSS/Generating-Clusters/TERSOFF/Higher-Symm/FIRE-HFTN
REM
REM
REM
REM
REM
REM ./C.cell (b20cbc046b6831c77cfcea5457e17084)
REM AIRSS Version 0.9.1 bugfix July 2018 build 013d7b7c2542+ Fri, 06 Jul 2018 19:26:36 +0100
REM compiler GCC version 9.2.1 20190827 (Red Hat 9.2.1-1)
REM options -cpp -mtune=generic -march=x86-64 -g -O0 -fpre-include=/usr/include/finclude/math-vector-fortran.h
REM seed 1301775654 -97227003 1301955067 -784343818 1737765024 -633465223 1443301813 1258422324 1943820512 -1023764781 1579069574 -54780998 -715124832 1541972037 -896378310 -478013151 -560054093 468214235 570773736 -373642128 -1821275915 980639218 -641028136 -1819098006 164914289 650379382 -656491120 238050061 844970899 299605086 1336559246 1918007115 398081949
REM
CELL 1.54180   50.00000   50.00000   50.00000   90.00000   90.00000   90.00000
LATT -1
SFAC C  
C      1  0.4387000000000  0.6074090000000  0.5349800000000 1.0
C      1  0.5602010000000  0.6073820000000  0.5369590000000 1.0
C      1  0.5020980000000  0.6072650000000  0.4287950000000 1.0
C      1  0.4387000000000  0.3932490000000  0.5349790000000 1.0
C      1  0.5602010000000  0.3932760000000  0.5369590000000 1.0
C      1  0.5020980000000  0.3933930000000  0.4287940000000 1.0
C      1  0.5217060000000  0.5161880000000  0.4153630000000 1.0
C      1  0.4167820000000  0.5160860000000  0.5221550000000 1.0
C      1  0.5611480000000  0.5160910000000  0.5611020000000 1.0
C      1  0.5217060000000  0.4844690000000  0.4153630000000 1.0
C      1  0.4167820000000  0.4845720000000  0.5221550000000 1.0
C      1  0.5611480000000  0.4845660000000  0.5611020000000 1.0
C      1  0.3858010000000  0.4837030000000  0.4823730000000 1.0
C      1  0.5415940000000  0.4840220000000  0.6078940000000 1.0
C      1  0.5722040000000  0.4839850000000  0.4094510000000 1.0
C      1  0.3858010000000  0.5169550000000  0.4823730000000 1.0
C      1  0.5415940000000  0.5166360000000  0.6078940000000 1.0
C      1  0.5722040000000  0.5166730000000  0.4094510000000 1.0
C      1  0.5614630000000  0.4095920000000  0.4739400000000 1.0
C      1  0.4488970000000  0.4091030000000  0.4603050000000 1.0
C      1  0.4908330000000  0.4108490000000  0.5667750000000 1.0
C      1  0.5614630000000  0.5910660000000  0.4739400000000 1.0
C      1  0.4488970000000  0.5915550000000  0.4603050000000 1.0
C      1  0.4908330000000  0.5898090000000  0.5667750000000 1.0
C      1  0.4598420000000  0.5587030000000  0.4189250000000 1.0
C      1  0.4490960000000  0.5589800000000  0.5732970000000 1.0
C      1  0.5889020000000  0.5591140000000  0.5061650000000 1.0
C      1  0.4598420000000  0.4419550000000  0.4189250000000 1.0
C      1  0.4490960000000  0.4416770000000  0.5732970000000 1.0
C      1  0.5889020000000  0.4415430000000  0.5061650000000 1.0
C      1  0.5148720000000  0.5791140000000  0.5520880000000 1.0
C      1  0.5366840000000  0.5796990000000  0.4605860000000 1.0
C      1  0.4515780000000  0.5806990000000  0.4889250000000 1.0
C      1  0.5148720000000  0.4215430000000  0.5520880000000 1.0
C      1  0.5366840000000  0.4209590000000  0.4605860000000 1.0
C      1  0.4515780000000  0.4199580000000  0.4889250000000 1.0
C      1  0.5915850000000  0.5141510000000  0.5179840000000 1.0
C      1  0.4690390000000  0.5141550000000  0.4105400000000 1.0
C      1  0.4378630000000  0.5141470000000  0.5703340000000 1.0
C      1  0.5915850000000  0.4865070000000  0.5179840000000 1.0
C      1  0.4690390000000  0.4865020000000  0.4105400000000 1.0
C      1  0.4378630000000  0.4865100000000  0.5703340000000 1.0
C      1  0.4402010000000  0.5295970000000  0.4162900000000 1.0
C      1  0.4568670000000  0.5296200000000  0.5926830000000 1.0
C      1  0.6014470000000  0.5296070000000  0.4902350000000 1.0
C      1  0.4402010000000  0.4710610000000  0.4162900000000 1.0
C      1  0.4568670000000  0.4710380000000  0.5926830000000 1.0
C      1  0.6014470000000  0.4710510000000  0.4902350000000 1.0
C      1  0.5869180000000  0.4279730000000  0.4760180000000 1.0
C      1  0.4357440000000  0.4273730000000  0.4375900000000 1.0
C      1  0.4761420000000  0.4293690000000  0.5869320000000 1.0
C      1  0.5869180000000  0.5726840000000  0.4760180000000 1.0
C      1  0.4357440000000  0.5732850000000  0.4375900000000 1.0
C      1  0.4761420000000  0.5712880000000  0.5869330000000 1.0
C      1  0.4737310000000  0.5560100000000  0.5232850000000 1.0
C      1  0.5337220000000  0.5561810000000  0.5104110000000 1.0
C      1  0.4924780000000  0.5543570000000  0.4637990000000 1.0
C      1  0.4737310000000  0.4446480000000  0.5232850000000 1.0
C      1  0.5337220000000  0.4444760000000  0.5104110000000 1.0
C      1  0.4924780000000  0.4463010000000  0.4637990000000 1.0
C      1  0.4330620000000  0.5272380000000  0.4936900000000 1.0
C      1  0.5282350000000  0.5271100000000  0.5617140000000 1.0
C      1  0.5388820000000  0.5271960000000  0.4439200000000 1.0
C      1  0.4330620000000  0.4734200000000  0.4936900000000 1.0
C      1  0.5282350000000  0.4735470000000  0.5617140000000 1.0
C      1  0.5388820000000  0.4734620000000  0.4439200000000 1.0
C      1  0.4242170000000  0.4846870000000  0.4654300000000 1.0
C      1  0.5076110000000  0.4848480000000  0.5828040000000 1.0
C      1  0.5675410000000  0.4848170000000  0.4511820000000 1.0
C      1  0.4242170000000  0.5159710000000  0.4654300000000 1.0
C      1  0.5076110000000  0.5158100000000  0.5828040000000 1.0
C      1  0.5675410000000  0.5158410000000  0.4511830000000 1.0
C      1  0.5729490000000  0.5229790000000  0.4802370000000 1.0
C      1  0.4463930000000  0.5228460000000  0.4458520000000 1.0
C      1  0.4798160000000  0.5231190000000  0.5729490000000 1.0
C      1  0.5729490000000  0.4776790000000  0.4802370000000 1.0
C      1  0.4463930000000  0.4778120000000  0.4458520000000 1.0
C      1  0.4798160000000  0.4775390000000  0.5729490000000 1.0
C      1  0.4872820000000  0.5289420000000  0.5257240000000 1.0
C      1  0.5284430000000  0.5292190000000  0.4970620000000 1.0
C      1  0.4833190000000  0.5283750000000  0.4758060000000 1.0
C      1  0.4872820000000  0.4717150000000  0.5257240000000 1.0
C      1  0.5284430000000  0.4714380000000  0.4970620000000 1.0
C      1  0.4833190000000  0.4722830000000  0.4758060000000 1.0
C      1  0.5124800000000  0.4286360000000  0.5221670000000 1.0
C      1  0.5108570000000  0.4289500000000  0.4788160000000 1.0
C      1  0.4848550000000  0.4236130000000  0.5023950000000 1.0
C      1  0.5124800000000  0.5720220000000  0.5221670000000 1.0
C      1  0.5108570000000  0.5717080000000  0.4788160000000 1.0
C      1  0.4848550000000  0.5770450000000  0.5023960000000 1.0
C      1  0.4230670000000  0.4724340000000  0.5497230000000 1.0
C      1  0.5815740000000  0.4723550000000  0.5413290000000 1.0
C      1  0.4942260000000  0.4723270000000  0.4072780000000 1.0
C      1  0.4230670000000  0.5282240000000  0.5497230000000 1.0
C      1  0.5815740000000  0.5283020000000  0.5413290000000 1.0
C      1  0.4942260000000  0.5283310000000  0.4072780000000 1.0
C      1  0.4849040000000  0.4535590000000  0.6070470000000 1.0
C      1  0.5997020000000  0.4531740000000  0.4590910000000 1.0
C      1  0.4147740000000  0.4528860000000  0.4339500000000 1.0
C      1  0.4849040000000  0.5470980000000  0.6070470000000 1.0
C      1  0.5997020000000  0.5474840000000  0.4590910000000 1.0
C      1  0.4147740000000  0.5477720000000  0.4339500000000 1.0
C      1  0.4728610000000  0.4862420000000  0.4523630000000 1.0
C      1  0.4725160000000  0.4861220000000  0.5466090000000 1.0
C      1  0.5537660000000  0.4860930000000  0.4997210000000 1.0
C      1  0.4728610000000  0.5144160000000  0.4523630000000 1.0
C      1  0.4725160000000  0.5145360000000  0.5466090000000 1.0
C      1  0.5537660000000  0.5145640000000  0.4997210000000 1.0
C      1  0.4662700000000  0.3998920000000  0.5476210000000 1.0
C      1  0.5575280000000  0.4000870000000  0.5063880000000 1.0
C      1  0.4775430000000  0.4013370000000  0.4456730000000 1.0
C      1  0.4662700000000  0.6007660000000  0.5476220000000 1.0
C      1  0.5575280000000  0.6005700000000  0.5063880000000 1.0
C      1  0.4775430000000  0.5993210000000  0.4456740000000 1.0
C      1  0.3939450000000  0.4681440000000  0.5079650000000 1.0
C      1  0.5602450000000  0.4688410000000  0.5884520000000 1.0
C      1  0.5461340000000  0.4686740000000  0.4028610000000 1.0
C      1  0.3939450000000  0.5325140000000  0.5079650000000 1.0
C      1  0.5602450000000  0.5318170000000  0.5884520000000 1.0
C      1  0.5461340000000  0.5319840000000  0.4028610000000 1.0
C      1  0.4603630000000  0.5702140000000  0.5456580000000 1.0
C      1  0.5594110000000  0.5700620000000  0.5101420000000 1.0
C      1  0.4790210000000  0.5688050000000  0.4420850000000 1.0
C      1  0.4603630000000  0.4304430000000  0.5456580000000 1.0
C      1  0.5594110000000  0.4305950000000  0.5101420000000 1.0
C      1  0.4790210000000  0.4318530000000  0.4420850000000 1.0
C      1  0.4284450000000  0.5941970000000  0.5107670000000 1.0
C      1  0.5451360000000  0.5936680000000  0.5587720000000 1.0
C      1  0.5283460000000  0.5939690000000  0.4308250000000 1.0
C      1  0.4284450000000  0.4064610000000  0.5107670000000 1.0
C      1  0.5451360000000  0.4069890000000  0.5587720000000 1.0
C      1  0.5283450000000  0.4066880000000  0.4308250000000 1.0
C      1  0.4298220000000  0.4443820000000  0.4930340000000 1.0
C      1  0.5295250000000  0.4448420000000  0.5676960000000 1.0
C      1  0.5433750000000  0.4446650000000  0.4401790000000 1.0
C      1  0.4298220000000  0.5562750000000  0.4930340000000 1.0
C      1  0.5295250000000  0.5558150000000  0.5676960000000 1.0
C      1  0.5433750000000  0.5559920000000  0.4401790000000 1.0
C      1  0.5563090000000  0.5667320000000  0.5805060000000 1.0
C      1  0.5415690000000  0.5668890000000  0.4105050000000 1.0
C      1  0.4043540000000  0.5670700000000  0.5083830000000 1.0
C      1  0.5563090000000  0.4339260000000  0.5805060000000 1.0
C      1  0.5415690000000  0.4337690000000  0.4105050000000 1.0
C      1  0.4043540000000  0.4335880000000  0.5083830000000 1.0
C      1  0.5122470000000  0.5298910000000  0.6099950000000 1.0
C      1  0.5888480000000  0.5301420000000  0.4337040000000 1.0
C      1  0.3983370000000  0.5302390000000  0.4558330000000 1.0
C      1  0.5122470000000  0.4707670000000  0.6099950000000 1.0
C      1  0.5888480000000  0.4705150000000  0.4337040000000 1.0
C      1  0.3983370000000  0.4704190000000  0.4558330000000 1.0
C      1  0.4589200000000  0.4857610000000  0.4919760000000 1.0
C      1  0.5138690000000  0.4855200000000  0.5393090000000 1.0
C      1  0.5268320000000  0.4855040000000  0.4675040000000 1.0
C      1  0.4589200000000  0.5148970000000  0.4919760000000 1.0
C      1  0.5138690000000  0.5151370000000  0.5393090000000 1.0
C      1  0.5268320000000  0.5151530000000  0.4675040000000 1.0
C      1  0.4881570000000  0.5566120000000  0.4029940000000 1.0
C      1  0.4221450000000  0.5564980000000  0.5563030000000 1.0
C      1  0.5876030000000  0.5565700000000  0.5381570000000 1.0
C      1  0.4881570000000  0.4440460000000  0.4029940000000 1.0
C      1  0.4221450000000  0.4441600000000  0.5563030000000 1.0
C      1  0.5876030000000  0.4440870000000  0.5381570000000 1.0
C      1  0.4525590000000  0.5003290000000  0.6074010000000 1.0
C      1  0.4292200000000  0.5003290000000  0.4055850000000 1.0
C      1  0.6163120000000  0.5003290000000  0.4864680000000 1.0
C      1  0.5000730000000  0.4843660000000  0.4997480000000 1.0
C      1  0.5000730000000  0.5162910000000  0.4997480000000 1.0
END
