TITL C-862502-1143-201 0.00238826501190976 125000 -286.54186500339 0 0 57 (C2) n - 1
REM
REM in /home/nfs/bkarasulu/CARBON/AIRSS/Generating-Clusters/TERSOFF/Higher-Symm/FIRE-HFTN
REM
REM
REM
REM
REM
REM ./C.cell (b20cbc046b6831c77cfcea5457e17084)
REM AIRSS Version 0.9.1 bugfix July 2018 build 013d7b7c2542+ Fri, 06 Jul 2018 19:26:36 +0100
REM compiler GCC version 9.2.1 20190827 (Red Hat 9.2.1-1)
REM options -cpp -mtune=generic -march=x86-64 -g -O0 -fpre-include=/usr/include/finclude/math-vector-fortran.h
REM seed 1284932220 -1405527575 1696577765 -780013167 -983998429 -2037685092 -898768801 -1575081386 1664494420 -1948275926 134515207 1269063249 -226218204 -1865280444 1133125554 234021460 -2031109138 -813513869 -2090255002 -1325644620 -193480024 -1791999804 -714317847 -360316158 457033669 -1122606805 -1666076531 -1949068300 922837662 1015755072 -1239625781 -1979135776 610085101
REM
CELL 1.54180   50.00000   50.00000   50.00000   90.00000   90.00000   90.00000
LATT -1
SFAC C  
C      1  0.5700900000000  0.5286920000000  0.4983270000000 1.0
C      1  0.4974450000000  0.4710890000000  0.4281060000000 1.0
C      1  0.4284220000000  0.5286910000000  0.5015130000000 1.0
C      1  0.5010680000000  0.4710930000000  0.5717370000000 1.0
C      1  0.4561230000000  0.4782010000000  0.4587480000000 1.0
C      1  0.4566330000000  0.5225920000000  0.5447450000000 1.0
C      1  0.5423900000000  0.4782040000000  0.5410940000000 1.0
C      1  0.5418780000000  0.5225910000000  0.4550950000000 1.0
C      1  0.4769270000000  0.5440380000000  0.5540580000000 1.0
C      1  0.5519480000000  0.4571670000000  0.5206910000000 1.0
C      1  0.5215840000000  0.5440360000000  0.4457800000000 1.0
C      1  0.4465650000000  0.4571640000000  0.4791530000000 1.0
C      1  0.5202550000000  0.4938730000000  0.5244720000000 1.0
C      1  0.5239070000000  0.5075780000000  0.4763260000000 1.0
C      1  0.4782570000000  0.4938710000000  0.4753690000000 1.0
C      1  0.4746050000000  0.5075790000000  0.5235140000000 1.0
C      1  0.4514280000000  0.5648400000000  0.5279660000000 1.0
C      1  0.5273200000000  0.4358510000000  0.5472030000000 1.0
C      1  0.5470830000000  0.5648400000000  0.4718710000000 1.0
C      1  0.4711940000000  0.4358480000000  0.4526420000000 1.0
C      1  0.4376430000000  0.5392230000000  0.5274490000000 1.0
C      1  0.5268050000000  0.4613840000000  0.5612370000000 1.0
C      1  0.5608680000000  0.5392220000000  0.4723900000000 1.0
C      1  0.4717080000000  0.4613800000000  0.4386070000000 1.0
C      1  0.4914700000000  0.5007360000000  0.5678260000000 1.0
C      1  0.5639720000000  0.4992570000000  0.5076080000000 1.0
C      1  0.5070430000000  0.5007320000000  0.4320150000000 1.0
C      1  0.4345400000000  0.4992550000000  0.4922330000000 1.0
C      1  0.4701160000000  0.4658680000000  0.5583800000000 1.0
C      1  0.5569570000000  0.5342400000000  0.5297030000000 1.0
C      1  0.5283970000000  0.4658660000000  0.4414630000000 1.0
C      1  0.4415550000000  0.5342360000000  0.4701360000000 1.0
C      1  0.4624200000000  0.4478480000000  0.5351530000000 1.0
C      1  0.5342030000000  0.5526550000000  0.5381800000000 1.0
C      1  0.5360940000000  0.4478460000000  0.4646910000000 1.0
C      1  0.4643080000000  0.5526520000000  0.4616590000000 1.0
C      1  0.4903120000000  0.4209960000000  0.5189160000000 1.0
C      1  0.5182830000000  0.5780370000000  0.5087840000000 1.0
C      1  0.5082020000000  0.4209950000000  0.4809300000000 1.0
C      1  0.4802280000000  0.5780360000000  0.4910530000000 1.0
C      1  0.5013790000000  0.5124090000000  0.5413720000000 1.0
C      1  0.5369090000000  0.4884440000000  0.4971460000000 1.0
C      1  0.4971330000000  0.5124060000000  0.4584690000000 1.0
C      1  0.4616030000000  0.4884440000000  0.5026960000000 1.0
C      1  0.5037510000000  0.5465450000000  0.5353250000000 1.0
C      1  0.5323010000000  0.4545290000000  0.4945950000000 1.0
C      1  0.4947600000000  0.5465430000000  0.4645140000000 1.0
C      1  0.4662120000000  0.4545280000000  0.5052490000000 1.0
C      1  0.5401100000000  0.4974840000000  0.4352040000000 1.0
C      1  0.4359130000000  0.5025860000000  0.4589740000000 1.0
C      1  0.4584020000000  0.4974870000000  0.5646370000000 1.0
C      1  0.5626000000000  0.5025900000000  0.5408670000000 1.0
C      1  0.4813630000000  0.4336680000000  0.4798930000000 1.0
C      1  0.4790010000000  0.5669380000000  0.5186680000000 1.0
C      1  0.5171510000000  0.4336700000000  0.5199520000000 1.0
C      1  0.5195090000000  0.5669380000000  0.4811700000000 1.0
C      1  0.4992560000000  0.5067580000000  0.4999200000000 1.0
END
