TITL C-862507-1800-720 444522.327491861 125000 -167.146579499338 0 0 34 (C1) n - 1
REM
REM in /home/nfs/bkarasulu/CARBON/AIRSS/Generating-Clusters/TERSOFF/Higher-Symm/FIRE-HFTN
REM
REM
REM
REM
REM
REM ./C.cell (b20cbc046b6831c77cfcea5457e17084)
REM AIRSS Version 0.9.1 bugfix July 2018 build 013d7b7c2542+ Fri, 06 Jul 2018 19:26:36 +0100
REM compiler GCC version 9.2.1 20190827 (Red Hat 9.2.1-1)
REM options -cpp -mtune=generic -march=x86-64 -g -O0 -fpre-include=/usr/include/finclude/math-vector-fortran.h
REM seed -1821433854 1164145987 -1458163168 -1293580363 -1709092950 1668775061 -77327684 782064078 -209935851 1224587120 -260724752 -493820891 311904371 -551912191 2035863141 765631661 -324241254 -1326083432 -1002158987 -1637712713 2075126121 920303652 -1514792145 578312617 -1774694547 811006385 -1726099652 -455199479 -2069432084 -55888291 1171334205 2020941861 1067452916
REM
CELL 1.54180   50.00000   50.00000   50.00000   90.00000   90.00000   90.00000
LATT -1
SFAC C  
C      1  0.4509200000000  0.4437990000000  0.5492310000000 1.0
C      1  0.5193410000000  0.5130280000000  0.5446620000000 1.0
C      1  0.4552100000000  0.4952030000000  0.5474360000000 1.0
C      1  0.5383710000000  0.5350050000000  0.4368610000000 1.0
C      1  0.4759330000000  0.5465000000000  0.5139820000000 1.0
C      1  0.4923360000000  0.4506060000000  0.5507650000000 1.0
C      1  0.5515840000000  0.4993540000000  0.4955400000000 1.0
C      1  0.5010860000000  0.4832460000000  0.4689550000000 1.0
C      1  0.5397540000000  0.4498750000000  0.4763860000000 1.0
C      1  0.4681080000000  0.5196410000000  0.5311270000000 1.0
C      1  0.5037800000000  0.4968850000000  0.4398650000000 1.0
C      1  0.4974610000000  0.4634660000000  0.4988640000000 1.0
C      1  0.4673070000000  0.4703870000000  0.5072390000000 1.0
C      1  0.5505190000000  0.5280070000000  0.4995440000000 1.0
C      1  0.4493350000000  0.5354530000000  0.4712900000000 1.0
C      1  0.4544000000000  0.5536010000000  0.4940080000000 1.0
C      1  0.5472560000000  0.4790470000000  0.5168670000000 1.0
C      1  0.4989060000000  0.5498690000000  0.4658120000000 1.0
C      1  0.5243460000000  0.4863410000000  0.5351530000000 1.0
C      1  0.5246480000000  0.4653000000000  0.4580520000000 1.0
C      1  0.4976790000000  0.5354300000000  0.4947600000000 1.0
C      1  0.5234170000000  0.5549690000000  0.4514860000000 1.0
C      1  0.4847290000000  0.5689960000000  0.5309280000000 1.0
C      1  0.5317610000000  0.4531410000000  0.5046740000000 1.0
C      1  0.5281580000000  0.5088580000000  0.4293510000000 1.0
C      1  0.5341310000000  0.4289220000000  0.5213440000000 1.0
C      1  0.4433470000000  0.5097120000000  0.4836570000000 1.0
C      1  0.4872920000000  0.5108190000000  0.4758920000000 1.0
C      1  0.5023410000000  0.4686130000000  0.5303140000000 1.0
C      1  0.4744500000000  0.5320050000000  0.4538760000000 1.0
C      1  0.5720180000000  0.4719060000000  0.5313390000000 1.0
C      1  0.4929200000000  0.5238890000000  0.5496350000000 1.0
C      1  0.4596680000000  0.4996260000000  0.5054790000000 1.0
C      1  0.4574880000000  0.4685020000000  0.5356240000000 1.0
END
