TITL C-862130-1496-1384 28.7782163896115 125000 -1043.0551216717 0 0 180 (C3) n - 1
REM
REM in /home/nfs/bkarasulu/CARBON/AIRSS/Generating-Clusters/TERSOFF/Higher-Symm/FIRE-HFTN
REM
REM
REM
REM
REM
REM ./C.cell (b20cbc046b6831c77cfcea5457e17084)
REM AIRSS Version 0.9.1 bugfix July 2018 build 013d7b7c2542+ Fri, 06 Jul 2018 19:26:36 +0100
REM compiler GCC version 9.2.1 20190827 (Red Hat 9.2.1-1)
REM options -cpp -mtune=generic -march=x86-64 -g -O0 -fpre-include=/usr/include/finclude/math-vector-fortran.h
REM seed -756848913 -864839768 2052564859 1456719022 -732240271 273600623 -1927293075 -924796439 -281772279 431223685 997236320 1695192007 1909874012 -2011607557 -751553411 1263985521 -1138170477 1999607634 -1492265932 -2137493081 123888844 -1230714182 -556705036 -1405008771 -1410569366 -202714518 -859954027 2102893113 1974319978 645679405 1839014161 1494324847 -1553891984
REM
CELL 1.54180   50.00000   50.00000   50.00000   90.00000   90.00000   90.00000
LATT -1
SFAC C  
C      1  0.5296750000000  0.4821640000000  0.5242400000000 1.0
C      1  0.4697150000000  0.4832190000000  0.5242400000000 1.0
C      1  0.5006090000000  0.5346180000000  0.5242390000000 1.0
C      1  0.4471880000000  0.5158360000000  0.4617370000000 1.0
C      1  0.5401210000000  0.5378180000000  0.4617380000000 1.0
C      1  0.5126910000000  0.4463450000000  0.4617390000000 1.0
C      1  0.6211370000000  0.5793690000000  0.5035570000000 1.0
C      1  0.5081670000000  0.3554080000000  0.5035590000000 1.0
C      1  0.3706960000000  0.5652230000000  0.5035550000000 1.0
C      1  0.4649560000000  0.5101470000000  0.5639320000000 1.0
C      1  0.5263080000000  0.5252770000000  0.5639330000000 1.0
C      1  0.5087350000000  0.4645790000000  0.5639330000000 1.0
C      1  0.3772390000000  0.5009150000000  0.4480710000000 1.0
C      1  0.5621750000000  0.6058560000000  0.4480710000000 1.0
C      1  0.5605880000000  0.3932270000000  0.4480740000000 1.0
C      1  0.5997800000000  0.5172210000000  0.4566850000000 1.0
C      1  0.4650250000000  0.4049770000000  0.4566860000000 1.0
C      1  0.4351960000000  0.5778000000000  0.4566830000000 1.0
C      1  0.4588540000000  0.5099890000000  0.4345990000000 1.0
C      1  0.5292250000000  0.5306380000000  0.4345990000000 1.0
C      1  0.5119220000000  0.4593700000000  0.4346000000000 1.0
C      1  0.4907670000000  0.4171420000000  0.5791120000000 1.0
C      1  0.4328580000000  0.5494270000000  0.5791090000000 1.0
C      1  0.5763740000000  0.5334350000000  0.5791110000000 1.0
C      1  0.5927940000000  0.5393550000000  0.5252350000000 1.0
C      1  0.4876850000000  0.3999610000000  0.5252370000000 1.0
C      1  0.4195210000000  0.5606850000000  0.5252340000000 1.0
C      1  0.5752240000000  0.5671980000000  0.5401510000000 1.0
C      1  0.5205820000000  0.4012550000000  0.5401530000000 1.0
C      1  0.4041930000000  0.5315490000000  0.5401500000000 1.0
C      1  0.4368810000000  0.4674000000000  0.5737500000000 1.0
C      1  0.5033250000000  0.5709640000000  0.5737490000000 1.0
C      1  0.5597920000000  0.4616400000000  0.5737510000000 1.0
C      1  0.5037790000000  0.6170480000000  0.4636440000000 1.0
C      1  0.5994780000000  0.4382020000000  0.4636480000000 1.0
C      1  0.3967430000000  0.4447480000000  0.4636460000000 1.0
C      1  0.5869770000000  0.4646720000000  0.4591520000000 1.0
C      1  0.4259180000000  0.4423390000000  0.4591520000000 1.0
C      1  0.4871060000000  0.5929870000000  0.4591500000000 1.0
C      1  0.5134220000000  0.4435910000000  0.5180530000000 1.0
C      1  0.4444370000000  0.5165810000000  0.5180510000000 1.0
C      1  0.5421410000000  0.5398290000000  0.5180520000000 1.0
C      1  0.5280170000000  0.5639740000000  0.5119800000000 1.0
C      1  0.5413940000000  0.4437500000000  0.5119820000000 1.0
C      1  0.4305890000000  0.4922770000000  0.5119800000000 1.0
C      1  0.4537350000000  0.4599400000000  0.5253770000000 1.0
C      1  0.4884390000000  0.5600960000000  0.5253760000000 1.0
C      1  0.5578250000000  0.4799640000000  0.5253770000000 1.0
C      1  0.4944040000000  0.4617290000000  0.3863140000000 1.0
C      1  0.4696570000000  0.5239800000000  0.3863120000000 1.0
C      1  0.5359410000000  0.5142860000000  0.3863130000000 1.0
C      1  0.5633520000000  0.5900830000000  0.5238970000000 1.0
C      1  0.5463370000000  0.4000940000000  0.5239000000000 1.0
C      1  0.3903100000000  0.5098240000000  0.5238970000000 1.0
C      1  0.4706710000000  0.4519890000000  0.4572690000000 1.0
C      1  0.4730870000000  0.5494040000000  0.4572670000000 1.0
C      1  0.5562430000000  0.4986050000000  0.4572690000000 1.0
C      1  0.4902730000000  0.5695650000000  0.3860550000000 1.0
C      1  0.5651110000000  0.4736390000000  0.3860570000000 1.0
C      1  0.4446180000000  0.4567910000000  0.3860560000000 1.0
C      1  0.5890620000000  0.4183370000000  0.4837640000000 1.0
C      1  0.3847470000000  0.4637010000000  0.4837620000000 1.0
C      1  0.5261910000000  0.6179610000000  0.4837610000000 1.0
C      1  0.6078360000000  0.4442720000000  0.5248580000000 1.0
C      1  0.3978200000000  0.4344760000000  0.5248560000000 1.0
C      1  0.4943440000000  0.6212530000000  0.5248540000000 1.0
C      1  0.5254180000000  0.5211630000000  0.5958430000000 1.0
C      1  0.5056170000000  0.4674070000000  0.5958440000000 1.0
C      1  0.4689630000000  0.5114340000000  0.5958430000000 1.0
C      1  0.4782850000000  0.6037180000000  0.5423280000000 1.0
C      1  0.6006790000000  0.4669480000000  0.5423310000000 1.0
C      1  0.4210350000000  0.4293360000000  0.5423300000000 1.0
C      1  0.5060040000000  0.5234660000000  0.4975920000000 1.0
C      1  0.5173200000000  0.4830680000000  0.4975930000000 1.0
C      1  0.4766760000000  0.4934660000000  0.4975920000000 1.0
C      1  0.5626730000000  0.5023430000000  0.4280060000000 1.0
C      1  0.4706940000000  0.4445510000000  0.4280060000000 1.0
C      1  0.4666340000000  0.5531030000000  0.4280050000000 1.0
C      1  0.5497980000000  0.3852140000000  0.4982780000000 1.0
C      1  0.3756930000000  0.5142670000000  0.4982750000000 1.0
C      1  0.5745090000000  0.6005190000000  0.4982750000000 1.0
C      1  0.4799900000000  0.5741950000000  0.4126100000000 1.0
C      1  0.5742620000000  0.4802300000000  0.4126120000000 1.0
C      1  0.4457500000000  0.4455710000000  0.4126120000000 1.0
C      1  0.4167940000000  0.5940300000000  0.4725750000000 1.0
C      1  0.6230360000000  0.5250430000000  0.4725780000000 1.0
C      1  0.4601710000000  0.3809250000000  0.4725790000000 1.0
C      1  0.4303140000000  0.5503420000000  0.4974430000000 1.0
C      1  0.5784400000000  0.5351790000000  0.4974440000000 1.0
C      1  0.4912460000000  0.4144800000000  0.4974460000000 1.0
C      1  0.4688700000000  0.4655480000000  0.3732800000000 1.0
C      1  0.4857310000000  0.5441830000000  0.3732790000000 1.0
C      1  0.5454010000000  0.4902640000000  0.3732810000000 1.0
C      1  0.5604760000000  0.4253330000000  0.5226330000000 1.0
C      1  0.4050980000000  0.4849600000000  0.5226310000000 1.0
C      1  0.5344260000000  0.5897080000000  0.5226300000000 1.0
C      1  0.5358810000000  0.5703420000000  0.5793150000000 1.0
C      1  0.5429760000000  0.4337560000000  0.5793170000000 1.0
C      1  0.4211420000000  0.4959050000000  0.5793150000000 1.0
C      1  0.5347980000000  0.3608240000000  0.4933460000000 1.0
C      1  0.3620720000000  0.5394520000000  0.4933420000000 1.0
C      1  0.6031310000000  0.5997230000000  0.4933430000000 1.0
C      1  0.5021260000000  0.4428760000000  0.5443950000000 1.0
C      1  0.4494650000000  0.5267220000000  0.5443930000000 1.0
C      1  0.5484080000000  0.5304040000000  0.5443940000000 1.0
C      1  0.4312420000000  0.4914230000000  0.4699960000000 1.0
C      1  0.5269520000000  0.5638340000000  0.4699960000000 1.0
C      1  0.5418070000000  0.4447410000000  0.4699980000000 1.0
C      1  0.4909500000000  0.5781310000000  0.5478250000000 1.0
C      1  0.5721870000000  0.4687730000000  0.5478270000000 1.0
C      1  0.4368620000000  0.4530980000000  0.5478260000000 1.0
C      1  0.5341800000000  0.3852590000000  0.4383170000000 1.0
C      1  0.3835430000000  0.5277690000000  0.4383140000000 1.0
C      1  0.5822790000000  0.5869700000000  0.4383150000000 1.0
C      1  0.5348290000000  0.5503610000000  0.6019430000000 1.0
C      1  0.5261970000000  0.4446580000000  0.6019450000000 1.0
C      1  0.4389720000000  0.5049850000000  0.6019430000000 1.0
C      1  0.4961560000000  0.4160880000000  0.4552080000000 1.0
C      1  0.4292530000000  0.5452850000000  0.4552060000000 1.0
C      1  0.5745920000000  0.5386250000000  0.4552070000000 1.0
C      1  0.4560680000000  0.4589080000000  0.5956300000000 1.0
C      1  0.4863770000000  0.5585940000000  0.5956290000000 1.0
C      1  0.5575530000000  0.4825020000000  0.5956300000000 1.0
C      1  0.5548950000000  0.6095210000000  0.4762690000000 1.0
C      1  0.5674020000000  0.3976990000000  0.4762720000000 1.0
C      1  0.3777040000000  0.4927790000000  0.4762690000000 1.0
C      1  0.4405660000000  0.4197960000000  0.4453630000000 1.0
C      1  0.4602600000000  0.5915720000000  0.4453600000000 1.0
C      1  0.5991750000000  0.4886290000000  0.4453630000000 1.0
C      1  0.5650200000000  0.5485770000000  0.4091450000000 1.0
C      1  0.5095610000000  0.4194010000000  0.4091470000000 1.0
C      1  0.4254210000000  0.5320180000000  0.4091450000000 1.0
C      1  0.5205720000000  0.4135150000000  0.5680940000000 1.0
C      1  0.4148140000000  0.5254280000000  0.5680910000000 1.0
C      1  0.5646130000000  0.5610610000000  0.5680920000000 1.0
C      1  0.4484770000000  0.6046130000000  0.5425620000000 1.0
C      1  0.6163580000000  0.4923150000000  0.5425650000000 1.0
C      1  0.4351640000000  0.4030740000000  0.5425650000000 1.0
C      1  0.4720110000000  0.4341420000000  0.4859220000000 1.0
C      1  0.4569600000000  0.5571680000000  0.4859200000000 1.0
C      1  0.5710290000000  0.5086890000000  0.4859220000000 1.0
C      1  0.3891890000000  0.5689590000000  0.5256370000000 1.0
C      1  0.6151250000000  0.5614860000000  0.5256390000000 1.0
C      1  0.4956860000000  0.3695560000000  0.5256410000000 1.0
C      1  0.4423120000000  0.4634320000000  0.4720000000000 1.0
C      1  0.4971760000000  0.5682430000000  0.4719990000000 1.0
C      1  0.5605130000000  0.4683240000000  0.4720010000000 1.0
C      1  0.6304080000000  0.5132460000000  0.4980640000000 1.0
C      1  0.4462670000000  0.3804410000000  0.4980650000000 1.0
C      1  0.4233250000000  0.6063130000000  0.4980620000000 1.0
C      1  0.5592010000000  0.5159150000000  0.5958870000000 1.0
C      1  0.4841800000000  0.4407750000000  0.5958870000000 1.0
C      1  0.4566170000000  0.5433150000000  0.5958860000000 1.0
C      1  0.4796650000000  0.5701680000000  0.5003620000000 1.0
C      1  0.5709350000000  0.4825270000000  0.5003640000000 1.0
C      1  0.4494000000000  0.4473050000000  0.5003640000000 1.0
C      1  0.4956670000000  0.5296070000000  0.6028750000000 1.0
C      1  0.5278050000000  0.4889510000000  0.6028750000000 1.0
C      1  0.4765270000000  0.4814470000000  0.6028750000000 1.0
C      1  0.3925540000000  0.4606780000000  0.5121570000000 1.0
C      1  0.5196690000000  0.6127120000000  0.5121560000000 1.0
C      1  0.5877760000000  0.4266100000000  0.5121590000000 1.0
C      1  0.4822290000000  0.4928360000000  0.5477540000000 1.0
C      1  0.5026800000000  0.5189730000000  0.5477540000000 1.0
C      1  0.5150900000000  0.4881930000000  0.5477540000000 1.0
C      1  0.4399080000000  0.5537700000000  0.5499240000000 1.0
C      1  0.5766110000000  0.5251570000000  0.5499260000000 1.0
C      1  0.4834800000000  0.4210760000000  0.5499270000000 1.0
C      1  0.5019730000000  0.4633810000000  0.4828410000000 1.0
C      1  0.4673010000000  0.5166010000000  0.4828400000000 1.0
C      1  0.5307270000000  0.5200170000000  0.4828410000000 1.0
C      1  0.4550660000000  0.5289000000000  0.4116520000000 1.0
C      1  0.5474970000000  0.5244630000000  0.4116530000000 1.0
C      1  0.4974390000000  0.4466340000000  0.4116540000000 1.0
C      1  0.4105180000000  0.5377890000000  0.4332890000000 1.0
C      1  0.5774690000000  0.5585980000000  0.4332900000000 1.0
C      1  0.5120150000000  0.4036100000000  0.4332910000000 1.0
C      1  0.4307270000000  0.5916580000000  0.5222020000000 1.0
C      1  0.6140140000000  0.5141630000000  0.5222040000000 1.0
C      1  0.4552580000000  0.3941790000000  0.5222050000000 1.0
END
