TITL C-862500-986-228 -4.04430265721341e-06 125000 -19.5398634737614 0 0 6 (D(inf)h) n - 1
REM
REM in /home/nfs/bkarasulu/CARBON/AIRSS/Generating-Clusters/TERSOFF/Higher-Symm/FIRE-HFTN
REM
REM
REM
REM
REM
REM ./C.cell (b20cbc046b6831c77cfcea5457e17084)
REM AIRSS Version 0.9.1 bugfix July 2018 build 013d7b7c2542+ Fri, 06 Jul 2018 19:26:36 +0100
REM compiler GCC version 9.2.1 20190827 (Red Hat 9.2.1-1)
REM options -cpp -mtune=generic -march=x86-64 -g -O0 -fpre-include=/usr/include/finclude/math-vector-fortran.h
REM seed 559267883 -1770892586 861921615 -161453906 -75167004 -617056013 1171857062 1772811891 -1459533883 1477954510 974728267 2029728717 295468228 393652235 1982319595 -656617691 817166809 386503832 2020494695 1597181239 374196315 321842390 1939545419 1876883660 -238334622 1546679841 -1485558268 2145184075 -2132413054 -1949233269 -604723927 -1660130793 1672400131
REM
CELL 1.54180   50.00000   50.00000   50.00000   90.00000   90.00000   90.00000
LATT -1
SFAC C  
C      1  0.4983060000000  0.5154940000000  0.4991360000000 1.0
C      1  0.4983060000000  0.4235840000000  0.4991360000000 1.0
C      1  0.4983060000000  0.4535170000000  0.4991360000000 1.0
C      1  0.4983060000000  0.5464830000000  0.4991360000000 1.0
C      1  0.4983060000000  0.5764160000000  0.4991360000000 1.0
C      1  0.4983060000000  0.4845060000000  0.4991360000000 1.0
END
