TITL C-862506-1665-1109 -34.7711640192931 125000 -635.019052063533 0 0 111 (C1) n - 1
REM
REM in /home/nfs/bkarasulu/CARBON/AIRSS/Generating-Clusters/TERSOFF/Higher-Symm/FIRE-HFTN
REM
REM
REM
REM
REM
REM ./C.cell (b20cbc046b6831c77cfcea5457e17084)
REM AIRSS Version 0.9.1 bugfix July 2018 build 013d7b7c2542+ Fri, 06 Jul 2018 19:26:36 +0100
REM compiler GCC version 9.2.1 20190827 (Red Hat 9.2.1-1)
REM options -cpp -mtune=generic -march=x86-64 -g -O0 -fpre-include=/usr/include/finclude/math-vector-fortran.h
REM seed -944711993 9492823 1580773170 471737648 -1576732645 -1714049613 1886833873 -1271624000 24123848 -2004725613 1352145970 -780235116 1374417408 -1831033774 1316334358 -532674655 -209038154 998697332 -1569990679 1323493077 1197720591 997370285 1149220644 409859959 -1030832112 -2039799412 -1122591887 1155815797 -331724515 -1230886834 974853374 -1287190484 1448135287
REM
CELL 1.54180   50.00000   50.00000   50.00000   90.00000   90.00000   90.00000
LATT -1
SFAC C  
C      1  0.5302320000000  0.5995580000000  0.5330190000000 1.0
C      1  0.4737300000000  0.4439820000000  0.5370830000000 1.0
C      1  0.4987850000000  0.4502330000000  0.4712950000000 1.0
C      1  0.4785420000000  0.4506930000000  0.4257680000000 1.0
C      1  0.5053380000000  0.4978500000000  0.4519880000000 1.0
C      1  0.4556170000000  0.4968590000000  0.4388350000000 1.0
C      1  0.5465760000000  0.5732340000000  0.5303330000000 1.0
C      1  0.4898600000000  0.4871960000000  0.4031770000000 1.0
C      1  0.5384190000000  0.5714810000000  0.4347070000000 1.0
C      1  0.4553240000000  0.4666480000000  0.4341230000000 1.0
C      1  0.5142290000000  0.4774590000000  0.5871980000000 1.0
C      1  0.4097140000000  0.4772150000000  0.5355580000000 1.0
C      1  0.4281120000000  0.4654180000000  0.4660790000000 1.0
C      1  0.4700940000000  0.5010270000000  0.5614990000000 1.0
C      1  0.5163910000000  0.4548190000000  0.5673980000000 1.0
C      1  0.5027360000000  0.5256270000000  0.5805640000000 1.0
C      1  0.4513070000000  0.5789130000000  0.5379860000000 1.0
C      1  0.4449210000000  0.4410450000000  0.5434170000000 1.0
C      1  0.5555400000000  0.4370800000000  0.5191380000000 1.0
C      1  0.5157870000000  0.4920020000000  0.4859670000000 1.0
C      1  0.5787160000000  0.4545390000000  0.4595120000000 1.0
C      1  0.5576160000000  0.4286340000000  0.5759130000000 1.0
C      1  0.5796270000000  0.4825270000000  0.5262140000000 1.0
C      1  0.4742760000000  0.4561460000000  0.4850410000000 1.0
C      1  0.5382220000000  0.5903310000000  0.4569290000000 1.0
C      1  0.4099520000000  0.4558070000000  0.5120790000000 1.0
C      1  0.5290240000000  0.4301830000000  0.5758280000000 1.0
C      1  0.4429000000000  0.5369350000000  0.5401250000000 1.0
C      1  0.5494000000000  0.5703740000000  0.5001140000000 1.0
C      1  0.5230460000000  0.5109840000000  0.5073450000000 1.0
C      1  0.5709490000000  0.4564200000000  0.5365450000000 1.0
C      1  0.4810420000000  0.5800950000000  0.5386050000000 1.0
C      1  0.4272430000000  0.6018360000000  0.4987170000000 1.0
C      1  0.4399190000000  0.4721170000000  0.5831640000000 1.0
C      1  0.4099560000000  0.4729870000000  0.4861980000000 1.0
C      1  0.5273710000000  0.5771630000000  0.4818960000000 1.0
C      1  0.4439110000000  0.4194050000000  0.4728610000000 1.0
C      1  0.5414110000000  0.4933320000000  0.5517310000000 1.0
C      1  0.5266360000000  0.4745930000000  0.4493430000000 1.0
C      1  0.5625620000000  0.4923310000000  0.5950530000000 1.0
C      1  0.5371120000000  0.5015650000000  0.5814530000000 1.0
C      1  0.4143990000000  0.5332360000000  0.4465500000000 1.0
C      1  0.5841730000000  0.5087600000000  0.4848350000000 1.0
C      1  0.5391760000000  0.5197630000000  0.4381950000000 1.0
C      1  0.5264220000000  0.4179120000000  0.4811190000000 1.0
C      1  0.5032170000000  0.5181830000000  0.5277830000000 1.0
C      1  0.5150400000000  0.4928930000000  0.3900640000000 1.0
C      1  0.5243240000000  0.4286380000000  0.4334810000000 1.0
C      1  0.4149530000000  0.5328740000000  0.5322990000000 1.0
C      1  0.4305160000000  0.4301890000000  0.5196130000000 1.0
C      1  0.5279640000000  0.4686620000000  0.5439150000000 1.0
C      1  0.5065770000000  0.6044560000000  0.5160300000000 1.0
C      1  0.5405260000000  0.4448460000000  0.4162060000000 1.0
C      1  0.4997760000000  0.4028450000000  0.4850030000000 1.0
C      1  0.4064660000000  0.5064970000000  0.5212710000000 1.0
C      1  0.4395650000000  0.5548490000000  0.4470990000000 1.0
C      1  0.5213430000000  0.5505050000000  0.4714180000000 1.0
C      1  0.5501270000000  0.5168620000000  0.5119830000000 1.0
C      1  0.5733620000000  0.4507640000000  0.5655150000000 1.0
C      1  0.5000560000000  0.5666420000000  0.5573770000000 1.0
C      1  0.5695910000000  0.5317970000000  0.5534140000000 1.0
C      1  0.4876940000000  0.4202100000000  0.5304560000000 1.0
C      1  0.5685410000000  0.4780300000000  0.4433710000000 1.0
C      1  0.5690550000000  0.4264460000000  0.4544630000000 1.0
C      1  0.4837230000000  0.5020650000000  0.4286050000000 1.0
C      1  0.4522320000000  0.5099140000000  0.4675010000000 1.0
C      1  0.4647570000000  0.4882770000000  0.5878950000000 1.0
C      1  0.5356250000000  0.4679130000000  0.4809400000000 1.0
C      1  0.4892170000000  0.4811550000000  0.6017400000000 1.0
C      1  0.4339580000000  0.5763350000000  0.5117940000000 1.0
C      1  0.4939950000000  0.5503520000000  0.4346630000000 1.0
C      1  0.5894530000000  0.4840960000000  0.4989130000000 1.0
C      1  0.4838740000000  0.5295130000000  0.4190420000000 1.0
C      1  0.5862090000000  0.5340700000000  0.4991340000000 1.0
C      1  0.5238540000000  0.5461070000000  0.4427290000000 1.0
C      1  0.5935200000000  0.4602980000000  0.4834950000000 1.0
C      1  0.5024990000000  0.5879560000000  0.4920330000000 1.0
C      1  0.4466130000000  0.5397790000000  0.4726810000000 1.0
C      1  0.5403690000000  0.4912680000000  0.4032360000000 1.0
C      1  0.3988480000000  0.5235870000000  0.4710180000000 1.0
C      1  0.4576230000000  0.4824950000000  0.5414810000000 1.0
C      1  0.4792170000000  0.4072460000000  0.5065400000000 1.0
C      1  0.5356330000000  0.4418500000000  0.4965570000000 1.0
C      1  0.5677830000000  0.5090520000000  0.4558010000000 1.0
C      1  0.4337090000000  0.4676020000000  0.5533190000000 1.0
C      1  0.4057510000000  0.5020760000000  0.4917050000000 1.0
C      1  0.5635000000000  0.5063300000000  0.5354910000000 1.0
C      1  0.4689290000000  0.4956360000000  0.5032280000000 1.0
C      1  0.5671380000000  0.5424970000000  0.4597640000000 1.0
C      1  0.4617410000000  0.5409130000000  0.5186960000000 1.0
C      1  0.4727780000000  0.5658090000000  0.4510210000000 1.0
C      1  0.5403770000000  0.4178220000000  0.4550940000000 1.0
C      1  0.4552380000000  0.5586910000000  0.4966840000000 1.0
C      1  0.4766240000000  0.5753080000000  0.4807790000000 1.0
C      1  0.4920510000000  0.5523050000000  0.5810040000000 1.0
C      1  0.5718970000000  0.5592460000000  0.5415570000000 1.0
C      1  0.4988640000000  0.5083190000000  0.5566400000000 1.0
C      1  0.4788600000000  0.5197080000000  0.5139190000000 1.0
C      1  0.5421440000000  0.5332050000000  0.5680490000000 1.0
C      1  0.4496100000000  0.4474130000000  0.4710050000000 1.0
C      1  0.5713630000000  0.5557560000000  0.4868180000000 1.0
C      1  0.4743330000000  0.4680540000000  0.5152890000000 1.0
C      1  0.4999060000000  0.4419590000000  0.4435150000000 1.0
C      1  0.4485380000000  0.4115890000000  0.5001250000000 1.0
C      1  0.5455120000000  0.4724310000000  0.4247860000000 1.0
C      1  0.4357620000000  0.5088040000000  0.4198960000000 1.0
C      1  0.4102590000000  0.5583110000000  0.5178520000000 1.0
C      1  0.5810700000000  0.4724280000000  0.5839450000000 1.0
C      1  0.4695930000000  0.4709700000000  0.3900920000000 1.0
C      1  0.5272940000000  0.5561430000000  0.5494760000000 1.0
C      1  0.4531530000000  0.5248460000000  0.5631920000000 1.0
END
