TITL C-862502-1143-1391 0.000207005677274638 125000 -399.157942121649 0 0 88 (C1) n - 1
REM
REM in /home/nfs/bkarasulu/CARBON/AIRSS/Generating-Clusters/TERSOFF/Higher-Symm/FIRE-HFTN
REM
REM
REM
REM
REM
REM ./C.cell (b20cbc046b6831c77cfcea5457e17084)
REM AIRSS Version 0.9.1 bugfix July 2018 build 013d7b7c2542+ Fri, 06 Jul 2018 19:26:36 +0100
REM compiler GCC version 9.2.1 20190827 (Red Hat 9.2.1-1)
REM options -cpp -mtune=generic -march=x86-64 -g -O0 -fpre-include=/usr/include/finclude/math-vector-fortran.h
REM seed 1309873355 2125269350 1198441644 2016439660 646675681 -1271959158 933558786 477813684 -885832088 173785693 1490447640 -680009293 168914649 -940446421 2094462582 415607190 843975888 -506111946 -759303300 834037663 115792640 -308707952 -296197618 -1846803286 923897283 1666798274 1481141824 -406349873 1685263340 -550531834 -1809243197 614169392 -1596366524
REM
CELL 1.54180   50.00000   50.00000   50.00000   90.00000   90.00000   90.00000
LATT -1
SFAC C  
C      1  0.4493730000000  0.4776230000000  0.4987690000000 1.0
C      1  0.4814670000000  0.5042000000000  0.4605370000000 1.0
C      1  0.5032320000000  0.4557060000000  0.4802010000000 1.0
C      1  0.4488330000000  0.5264200000000  0.5060310000000 1.0
C      1  0.5549720000000  0.4802760000000  0.4963810000000 1.0
C      1  0.5540910000000  0.5220340000000  0.4988250000000 1.0
C      1  0.4794140000000  0.5006210000000  0.5408490000000 1.0
C      1  0.5213130000000  0.5006010000000  0.5379620000000 1.0
C      1  0.5230390000000  0.4994930000000  0.4573940000000 1.0
C      1  0.5034080000000  0.5462330000000  0.5197360000000 1.0
C      1  0.4955010000000  0.4541250000000  0.5269250000000 1.0
C      1  0.5025610000000  0.5478020000000  0.4764280000000 1.0
C      1  0.4497530000000  0.5038890000000  0.4776430000000 1.0
C      1  0.4815550000000  0.4616630000000  0.5026310000000 1.0
C      1  0.4974100000000  0.4734730000000  0.4557960000000 1.0
C      1  0.4455370000000  0.4982090000000  0.5284950000000 1.0
C      1  0.5539860000000  0.5041610000000  0.4704020000000 1.0
C      1  0.5520610000000  0.4998250000000  0.5236400000000 1.0
C      1  0.4795950000000  0.5440610000000  0.4983030000000 1.0
C      1  0.5287690000000  0.5417270000000  0.4969160000000 1.0
C      1  0.5311680000000  0.4594550000000  0.4998770000000 1.0
C      1  0.4999290000000  0.5278110000000  0.5434350000000 1.0
C      1  0.5052390000000  0.5294970000000  0.4517290000000 1.0
C      1  0.5024990000000  0.4739480000000  0.5466980000000 1.0
C      1  0.5013390000000  0.5232360000000  0.5772860000000 1.0
C      1  0.5242410000000  0.5767520000000  0.4997960000000 1.0
C      1  0.5859650000000  0.5009400000000  0.5242960000000 1.0
C      1  0.5014090000000  0.4717750000000  0.4230490000000 1.0
C      1  0.4996400000000  0.5242910000000  0.4199610000000 1.0
C      1  0.4959290000000  0.4742480000000  0.5781500000000 1.0
C      1  0.5222720000000  0.4248470000000  0.5013850000000 1.0
C      1  0.4739820000000  0.5766240000000  0.5003240000000 1.0
C      1  0.4675630000000  0.4314890000000  0.4923000000000 1.0
C      1  0.5870920000000  0.4980930000000  0.4760750000000 1.0
C      1  0.4151360000000  0.4999960000000  0.4757310000000 1.0
C      1  0.4126700000000  0.4946580000000  0.5261860000000 1.0
C      1  0.4997700000000  0.5777010000000  0.5261180000000 1.0
C      1  0.5247890000000  0.4972700000000  0.5734060000000 1.0
C      1  0.5861410000000  0.5268520000000  0.4990590000000 1.0
C      1  0.4987420000000  0.4239620000000  0.4757400000000 1.0
C      1  0.5024770000000  0.4242320000000  0.5315170000000 1.0
C      1  0.4990060000000  0.5792690000000  0.4736040000000 1.0
C      1  0.5254700000000  0.4986600000000  0.4240030000000 1.0
C      1  0.4724440000000  0.5010070000000  0.5738730000000 1.0
C      1  0.4770210000000  0.4985460000000  0.4263760000000 1.0
C      1  0.5857970000000  0.4723110000000  0.5013440000000 1.0
C      1  0.4160660000000  0.4721730000000  0.4991060000000 1.0
C      1  0.4153640000000  0.5221980000000  0.5021930000000 1.0
C      1  0.4701290000000  0.4501130000000  0.5703310000000 1.0
C      1  0.4494310000000  0.5649810000000  0.4762860000000 1.0
C      1  0.5748840000000  0.4714250000000  0.4547720000000 1.0
C      1  0.4721050000000  0.5448380000000  0.4310810000000 1.0
C      1  0.5277530000000  0.4536770000000  0.4343690000000 1.0
C      1  0.5280030000000  0.5459490000000  0.5687630000000 1.0
C      1  0.4524330000000  0.4332980000000  0.5223980000000 1.0
C      1  0.5493810000000  0.5679950000000  0.5244040000000 1.0
C      1  0.5493450000000  0.4290650000000  0.4774060000000 1.0
C      1  0.5740830000000  0.5254970000000  0.5482830000000 1.0
C      1  0.4241820000000  0.4702080000000  0.5508890000000 1.0
C      1  0.4253810000000  0.5234370000000  0.4498160000000 1.0
C      1  0.4718800000000  0.5657630000000  0.4540860000000 1.0
C      1  0.4491850000000  0.4736560000000  0.5694580000000 1.0
C      1  0.5739000000000  0.4484670000000  0.4767000000000 1.0
C      1  0.4705070000000  0.4277630000000  0.5477410000000 1.0
C      1  0.5266090000000  0.4315090000000  0.4551100000000 1.0
C      1  0.5273490000000  0.5674580000000  0.5469230000000 1.0
C      1  0.4499530000000  0.5222480000000  0.4304160000000 1.0
C      1  0.5496910000000  0.5228910000000  0.5678440000000 1.0
C      1  0.5512180000000  0.4744310000000  0.4337990000000 1.0
C      1  0.5734300000000  0.5478160000000  0.5256370000000 1.0
C      1  0.4264410000000  0.5432510000000  0.4748740000000 1.0
C      1  0.4281930000000  0.4520400000000  0.5251250000000 1.0
C      1  0.4460780000000  0.5489030000000  0.5310300000000 1.0
C      1  0.5457500000000  0.4484230000000  0.5269250000000 1.0
C      1  0.5471980000000  0.5555000000000  0.4719180000000 1.0
C      1  0.4429080000000  0.5215080000000  0.5521750000000 1.0
C      1  0.5301420000000  0.4601640000000  0.5545840000000 1.0
C      1  0.5317950000000  0.5452840000000  0.4432040000000 1.0
C      1  0.5608660000000  0.5302080000000  0.4534390000000 1.0
C      1  0.5591150000000  0.4750420000000  0.5435590000000 1.0
C      1  0.4514740000000  0.4516830000000  0.4752740000000 1.0
C      1  0.4649300000000  0.4633260000000  0.4505970000000 1.0
C      1  0.4716230000000  0.5404460000000  0.5531550000000 1.0
C      1  0.4452630000000  0.4856530000000  0.4503990000000 1.0
C      1  0.5153700000000  0.4862740000000  0.5087320000000 1.0
C      1  0.4795900000000  0.5130500000000  0.5100080000000 1.0
C      1  0.5159360000000  0.5095100000000  0.4869440000000 1.0
C      1  0.4876940000000  0.4930090000000  0.4915480000000 1.0
END
