TITL C-862133-5440-733 15.2251733008717 125000 -595.864348294272 0 0 101 (C1) n - 1
REM
REM in /home/nfs/bkarasulu/CARBON/AIRSS/Generating-Clusters/TERSOFF/Higher-Symm/FIRE-HFTN
REM
REM
REM
REM
REM
REM ./C.cell (b20cbc046b6831c77cfcea5457e17084)
REM AIRSS Version 0.9.1 bugfix July 2018 build 013d7b7c2542+ Fri, 06 Jul 2018 19:26:36 +0100
REM compiler GCC version 9.2.1 20190827 (Red Hat 9.2.1-1)
REM options -cpp -mtune=generic -march=x86-64 -g -O0 -fpre-include=/usr/include/finclude/math-vector-fortran.h
REM seed -2048773830 -861757043 2122767690 242775678 -1202317469 -1690090412 -652102847 -2028838721 -1106911778 488855469 -502202811 -119293496 -182774799 -507441952 -574525950 958601974 -49211897 1004716483 447613512 626019736 1165242419 -164656630 -1935159705 561804335 1719575701 45841283 -1832670674 892515835 1458194964 1081016945 -12427976 -1078987017 2083982546
REM
CELL 1.54180   50.00000   50.00000   50.00000   90.00000   90.00000   90.00000
LATT -1
SFAC C  
C      1  0.4987550000000  0.5460090000000  0.4814770000000 1.0
C      1  0.5235270000000  0.5324520000000  0.5831370000000 1.0
C      1  0.4942250000000  0.4344250000000  0.5116800000000 1.0
C      1  0.5033470000000  0.5748840000000  0.5634480000000 1.0
C      1  0.4734430000000  0.4964330000000  0.5432510000000 1.0
C      1  0.4171000000000  0.4701460000000  0.5095160000000 1.0
C      1  0.5029100000000  0.5340990000000  0.6037390000000 1.0
C      1  0.5141680000000  0.4630070000000  0.5843960000000 1.0
C      1  0.4795580000000  0.5506370000000  0.5998960000000 1.0
C      1  0.5117280000000  0.4012630000000  0.4638470000000 1.0
C      1  0.5943000000000  0.5424800000000  0.5237380000000 1.0
C      1  0.4364120000000  0.5315560000000  0.5151290000000 1.0
C      1  0.5638250000000  0.4817030000000  0.4689570000000 1.0
C      1  0.5349660000000  0.4886920000000  0.4241590000000 1.0
C      1  0.5699700000000  0.5208310000000  0.4122740000000 1.0
C      1  0.4859900000000  0.4705140000000  0.5397650000000 1.0
C      1  0.4811120000000  0.4717280000000  0.4778840000000 1.0
C      1  0.4542660000000  0.4038350000000  0.5141890000000 1.0
C      1  0.4681470000000  0.4447150000000  0.5433070000000 1.0
C      1  0.6053300000000  0.5417690000000  0.4954500000000 1.0
C      1  0.5433160000000  0.4528590000000  0.5112060000000 1.0
C      1  0.4530060000000  0.4330740000000  0.5195050000000 1.0
C      1  0.5413360000000  0.4476120000000  0.5459180000000 1.0
C      1  0.4479610000000  0.5534100000000  0.4428930000000 1.0
C      1  0.4155350000000  0.4826440000000  0.5357860000000 1.0
C      1  0.4767020000000  0.5665610000000  0.5755820000000 1.0
C      1  0.5517070000000  0.5284440000000  0.4954780000000 1.0
C      1  0.5040670000000  0.5929650000000  0.5410290000000 1.0
C      1  0.4273270000000  0.5095230000000  0.4540860000000 1.0
C      1  0.5326390000000  0.5923720000000  0.5000910000000 1.0
C      1  0.5742780000000  0.5474670000000  0.4550080000000 1.0
C      1  0.5095850000000  0.5834640000000  0.5144750000000 1.0
C      1  0.5142270000000  0.4768450000000  0.5330890000000 1.0
C      1  0.5061930000000  0.4500610000000  0.4233240000000 1.0
C      1  0.4594400000000  0.4280050000000  0.4735720000000 1.0
C      1  0.4559210000000  0.4523770000000  0.4273120000000 1.0
C      1  0.5411220000000  0.5793070000000  0.4761390000000 1.0
C      1  0.5920030000000  0.5285330000000  0.4721420000000 1.0
C      1  0.4795330000000  0.4439610000000  0.4888190000000 1.0
C      1  0.4941250000000  0.5162790000000  0.5353010000000 1.0
C      1  0.4828910000000  0.5257380000000  0.4141600000000 1.0
C      1  0.5725840000000  0.5088940000000  0.4831020000000 1.0
C      1  0.4212940000000  0.4651070000000  0.5590490000000 1.0
C      1  0.5222380000000  0.5797800000000  0.4542230000000 1.0
C      1  0.5517360000000  0.5601100000000  0.5492480000000 1.0
C      1  0.5641780000000  0.4926940000000  0.4156300000000 1.0
C      1  0.4243570000000  0.5460670000000  0.4895560000000 1.0
C      1  0.4705350000000  0.3908970000000  0.4931060000000 1.0
C      1  0.5189770000000  0.5120630000000  0.4551600000000 1.0
C      1  0.4531210000000  0.4710140000000  0.4678680000000 1.0
C      1  0.4561690000000  0.5802940000000  0.4502840000000 1.0
C      1  0.5274790000000  0.5076620000000  0.5689000000000 1.0
C      1  0.4367860000000  0.4934340000000  0.4756200000000 1.0
C      1  0.4610470000000  0.5024740000000  0.5688510000000 1.0
C      1  0.5379970000000  0.4749390000000  0.4505340000000 1.0
C      1  0.5292720000000  0.4254460000000  0.4654420000000 1.0
C      1  0.5272570000000  0.5567830000000  0.5668700000000 1.0
C      1  0.5362800000000  0.4275560000000  0.4960670000000 1.0
C      1  0.5160320000000  0.4419830000000  0.5630530000000 1.0
C      1  0.5240560000000  0.4489940000000  0.4484770000000 1.0
C      1  0.5578190000000  0.5381150000000  0.4319630000000 1.0
C      1  0.4820240000000  0.4994020000000  0.4885790000000 1.0
C      1  0.4729420000000  0.4941680000000  0.5943490000000 1.0
C      1  0.5572710000000  0.5550110000000  0.4781330000000 1.0
C      1  0.5000680000000  0.5622050000000  0.4575130000000 1.0
C      1  0.4889190000000  0.4695270000000  0.5983720000000 1.0
C      1  0.4696290000000  0.5872590000000  0.4749430000000 1.0
C      1  0.5082680000000  0.4786110000000  0.4121110000000 1.0
C      1  0.5658400000000  0.5381310000000  0.5338210000000 1.0
C      1  0.4540410000000  0.4922130000000  0.5222150000000 1.0
C      1  0.5282260000000  0.5329450000000  0.4364190000000 1.0
C      1  0.4846610000000  0.5424110000000  0.5268810000000 1.0
C      1  0.5540430000000  0.5110450000000  0.5336050000000 1.0
C      1  0.5781700000000  0.4807250000000  0.4397710000000 1.0
C      1  0.5133960000000  0.4126660000000  0.5092890000000 1.0
C      1  0.4349690000000  0.5154010000000  0.5658740000000 1.0
C      1  0.4326620000000  0.4990890000000  0.4269070000000 1.0
C      1  0.5085140000000  0.5395580000000  0.4163340000000 1.0
C      1  0.5046980000000  0.5172040000000  0.4810560000000 1.0
C      1  0.4802830000000  0.4376480000000  0.4215200000000 1.0
C      1  0.5238830000000  0.5065190000000  0.5390560000000 1.0
C      1  0.4571570000000  0.5482840000000  0.5315720000000 1.0
C      1  0.4559710000000  0.4818680000000  0.4196350000000 1.0
C      1  0.4534010000000  0.5616490000000  0.5574230000000 1.0
C      1  0.4576100000000  0.5411780000000  0.4173800000000 1.0
C      1  0.5565310000000  0.4696700000000  0.5612210000000 1.0
C      1  0.4299700000000  0.5378720000000  0.4605450000000 1.0
C      1  0.4919560000000  0.4289320000000  0.5532450000000 1.0
C      1  0.4822180000000  0.4954790000000  0.4131090000000 1.0
C      1  0.4475090000000  0.4521440000000  0.5645360000000 1.0
C      1  0.5700900000000  0.4864940000000  0.5397440000000 1.0
C      1  0.4215960000000  0.5129110000000  0.5390340000000 1.0
C      1  0.5288630000000  0.5086710000000  0.4974330000000 1.0
C      1  0.4995870000000  0.3940410000000  0.4900430000000 1.0
C      1  0.5713100000000  0.4665720000000  0.5176000000000 1.0
C      1  0.4436710000000  0.4460870000000  0.4540120000000 1.0
C      1  0.4377150000000  0.4508420000000  0.5013230000000 1.0
C      1  0.5365560000000  0.4827230000000  0.5807720000000 1.0
C      1  0.5405980000000  0.4797270000000  0.4921670000000 1.0
C      1  0.4978000000000  0.5577440000000  0.5074270000000 1.0
C      1  0.4521750000000  0.5083890000000  0.4978710000000 1.0
END
