TITL C-862501-1041-1500 8.6919865663381e-06 125000 -444.701208745725 0 0 81 (C4) n - 1
REM
REM in /home/nfs/bkarasulu/CARBON/AIRSS/Generating-Clusters/TERSOFF/Higher-Symm/FIRE-HFTN
REM
REM
REM
REM
REM
REM ./C.cell (b20cbc046b6831c77cfcea5457e17084)
REM AIRSS Version 0.9.1 bugfix July 2018 build 013d7b7c2542+ Fri, 06 Jul 2018 19:26:36 +0100
REM compiler GCC version 9.2.1 20190827 (Red Hat 9.2.1-1)
REM options -cpp -mtune=generic -march=x86-64 -g -O0 -fpre-include=/usr/include/finclude/math-vector-fortran.h
REM seed 394291115 -1303024905 682782611 503074047 1612414090 1049882733 -1242847058 866433867 1850968278 452074384 -1410100401 -215877366 -754594880 1734847292 1080297817 -1251573067 -1908587290 1893206993 -959756013 1010185523 -1525105941 -2133729411 399971740 -496618291 521342747 -1052768635 -245317737 -1944871213 1944454071 1389455397 896414259 2008673714 -897616207
REM
CELL 1.54180   50.00000   50.00000   50.00000   90.00000   90.00000   90.00000
LATT -1
SFAC C  
C      1  0.5460400000000  0.4901290000000  0.4208710000000 1.0
C      1  0.5460380000000  0.4209040000000  0.5090860000000 1.0
C      1  0.5460340000000  0.5091190000000  0.5783110000000 1.0
C      1  0.5460370000000  0.5783440000000  0.4900960000000 1.0
C      1  0.4544200000000  0.4901250000000  0.5783070000000 1.0
C      1  0.4544230000000  0.4209040000000  0.4900900000000 1.0
C      1  0.4544250000000  0.5091210000000  0.4208680000000 1.0
C      1  0.4544210000000  0.5783430000000  0.5090850000000 1.0
C      1  0.5480030000000  0.5225940000000  0.4693920000000 1.0
C      1  0.5480030000000  0.4694250000000  0.4766210000000 1.0
C      1  0.5480010000000  0.4766550000000  0.5297900000000 1.0
C      1  0.5480010000000  0.5298230000000  0.5225600000000 1.0
C      1  0.4524560000000  0.5225920000000  0.5297870000000 1.0
C      1  0.4524570000000  0.4694230000000  0.5225560000000 1.0
C      1  0.4524590000000  0.4766550000000  0.4693880000000 1.0
C      1  0.4524580000000  0.5298230000000  0.4766190000000 1.0
C      1  0.4510730000000  0.5383080000000  0.5542300000000 1.0
C      1  0.4510760000000  0.5542660000000  0.4609020000000 1.0
C      1  0.4510770000000  0.4609380000000  0.4449450000000 1.0
C      1  0.4510740000000  0.4449810000000  0.5382730000000 1.0
C      1  0.5493860000000  0.5383120000000  0.4449500000000 1.0
C      1  0.5493830000000  0.5542650000000  0.5382780000000 1.0
C      1  0.5493830000000  0.4609370000000  0.5542320000000 1.0
C      1  0.5493870000000  0.4449830000000  0.4609040000000 1.0
C      1  0.4675220000000  0.4470100000000  0.5625440000000 1.0
C      1  0.4675210000000  0.5625800000000  0.5522010000000 1.0
C      1  0.4675260000000  0.5522370000000  0.4366310000000 1.0
C      1  0.4675260000000  0.4366670000000  0.4469740000000 1.0
C      1  0.5329390000000  0.4470130000000  0.4366320000000 1.0
C      1  0.5329370000000  0.5625830000000  0.4469790000000 1.0
C      1  0.5329330000000  0.5522350000000  0.5625490000000 1.0
C      1  0.5329340000000  0.4366650000000  0.5522010000000 1.0
C      1  0.4541620000000  0.4619550000000  0.5835520000000 1.0
C      1  0.4541620000000  0.5835880000000  0.5372560000000 1.0
C      1  0.4541670000000  0.5372910000000  0.4156230000000 1.0
C      1  0.4541660000000  0.4156590000000  0.4619190000000 1.0
C      1  0.5462990000000  0.4619590000000  0.4156250000000 1.0
C      1  0.5462960000000  0.5835900000000  0.4619260000000 1.0
C      1  0.5462920000000  0.5372890000000  0.5835570000000 1.0
C      1  0.5462940000000  0.4156580000000  0.5372560000000 1.0
C      1  0.4791590000000  0.5123710000000  0.4719960000000 1.0
C      1  0.4791590000000  0.4720310000000  0.4868410000000 1.0
C      1  0.4791580000000  0.4868760000000  0.5271810000000 1.0
C      1  0.4791580000000  0.5272160000000  0.5123360000000 1.0
C      1  0.5213000000000  0.5123700000000  0.5271830000000 1.0
C      1  0.5213010000000  0.4720310000000  0.5123360000000 1.0
C      1  0.5213020000000  0.4868770000000  0.4719970000000 1.0
C      1  0.5213010000000  0.5272170000000  0.4868430000000 1.0
C      1  0.5074770000000  0.5202240000000  0.4298870000000 1.0
C      1  0.5074760000000  0.4299220000000  0.4789890000000 1.0
C      1  0.5074720000000  0.4790240000000  0.5692920000000 1.0
C      1  0.5074730000000  0.5693260000000  0.5201890000000 1.0
C      1  0.4929820000000  0.5202210000000  0.5692920000000 1.0
C      1  0.4929850000000  0.4299210000000  0.5201860000000 1.0
C      1  0.4929880000000  0.4790270000000  0.4298860000000 1.0
C      1  0.4929850000000  0.5693270000000  0.4789920000000 1.0
C      1  0.5720030000000  0.4867420000000  0.5172370000000 1.0
C      1  0.5720030000000  0.5172690000000  0.5124740000000 1.0
C      1  0.5720040000000  0.5125070000000  0.4819470000000 1.0
C      1  0.5720050000000  0.4819790000000  0.4867090000000 1.0
C      1  0.4284560000000  0.4867410000000  0.4819410000000 1.0
C      1  0.4284560000000  0.5172690000000  0.4867050000000 1.0
C      1  0.4284550000000  0.5125050000000  0.5172320000000 1.0
C      1  0.4284550000000  0.4819780000000  0.5124680000000 1.0
C      1  0.4908140000000  0.4640530000000  0.5511820000000 1.0
C      1  0.4908140000000  0.5512170000000  0.5351590000000 1.0
C      1  0.4908170000000  0.5351940000000  0.4479960000000 1.0
C      1  0.4908170000000  0.4480300000000  0.4640180000000 1.0
C      1  0.5096460000000  0.4640550000000  0.4479950000000 1.0
C      1  0.5096450000000  0.5512180000000  0.4640210000000 1.0
C      1  0.5096420000000  0.5351920000000  0.5511840000000 1.0
C      1  0.5096430000000  0.4480290000000  0.5351580000000 1.0
C      1  0.4735450000000  0.5017400000000  0.5594780000000 1.0
C      1  0.4735470000000  0.5595140000000  0.4974720000000 1.0
C      1  0.4735500000000  0.4975070000000  0.4396980000000 1.0
C      1  0.4735480000000  0.4397330000000  0.5017050000000 1.0
C      1  0.5269140000000  0.5017430000000  0.4397000000000 1.0
C      1  0.5269120000000  0.5595140000000  0.5017090000000 1.0
C      1  0.5269100000000  0.4975050000000  0.5594800000000 1.0
C      1  0.5269130000000  0.4397340000000  0.4974710000000 1.0
C      1  0.5002300000000  0.4996240000000  0.4995890000000 1.0
END
