TITL C-862131-2149-1372 -0.0339798504112083 125000 -984.168322848153 0 0 162 (D2) n - 1
REM
REM in /home/nfs/bkarasulu/CARBON/AIRSS/Generating-Clusters/TERSOFF/Higher-Symm/FIRE-HFTN
REM
REM
REM
REM
REM
REM ./C.cell (b20cbc046b6831c77cfcea5457e17084)
REM AIRSS Version 0.9.1 bugfix July 2018 build 013d7b7c2542+ Fri, 06 Jul 2018 19:26:36 +0100
REM compiler GCC version 9.2.1 20190827 (Red Hat 9.2.1-1)
REM options -cpp -mtune=generic -march=x86-64 -g -O0 -fpre-include=/usr/include/finclude/math-vector-fortran.h
REM seed 646723070 1918337611 1323888281 -1891981210 1470336193 377115773 -1237513267 663862561 1950689653 685016706 1038475711 -126125532 -1258681418 -1272925438 -1374600613 -1835394500 -116295262 -40439485 -185622421 2101608642 -1438604306 -1851832598 474854857 1075551118 1070003368 -555401701 -1365722817 922547880 -1320431804 -1739601451 21533524 1998630660 225150029
REM
CELL 1.54180   50.00000   50.00000   50.00000   90.00000   90.00000   90.00000
LATT -1
SFAC C  
C      1  0.5565770000000  0.5705640000000  0.4942410000000 1.0
C      1  0.5565820000000  0.4294390000000  0.5057580000000 1.0
C      1  0.4419860000000  0.4294360000000  0.4942420000000 1.0
C      1  0.4419820000000  0.5705610000000  0.5057580000000 1.0
C      1  0.3844910000000  0.5275020000000  0.5223320000000 1.0
C      1  0.3844920000000  0.4724900000000  0.4776680000000 1.0
C      1  0.6140730000000  0.4724980000000  0.5223320000000 1.0
C      1  0.6140710000000  0.5275100000000  0.4776680000000 1.0
C      1  0.3683050000000  0.4768450000000  0.5029350000000 1.0
C      1  0.3683040000000  0.5231460000000  0.4970660000000 1.0
C      1  0.6302580000000  0.5231550000000  0.5029340000000 1.0
C      1  0.6302590000000  0.4768540000000  0.4970650000000 1.0
C      1  0.3913550000000  0.4245400000000  0.4656470000000 1.0
C      1  0.3913500000000  0.5754530000000  0.5343530000000 1.0
C      1  0.6072080000000  0.5754600000000  0.4656460000000 1.0
C      1  0.6072130000000  0.4245470000000  0.5343530000000 1.0
C      1  0.4861650000000  0.5064480000000  0.6342890000000 1.0
C      1  0.4861650000000  0.4935510000000  0.3657110000000 1.0
C      1  0.5123990000000  0.4935520000000  0.6342890000000 1.0
C      1  0.5123980000000  0.5064490000000  0.3657110000000 1.0
C      1  0.4679340000000  0.5372760000000  0.4067090000000 1.0
C      1  0.4679360000000  0.4627220000000  0.5932920000000 1.0
C      1  0.5306290000000  0.4627240000000  0.4067090000000 1.0
C      1  0.5306270000000  0.5372780000000  0.5932910000000 1.0
C      1  0.5082720000000  0.4715670000000  0.5224270000000 1.0
C      1  0.5082700000000  0.5284330000000  0.4775730000000 1.0
C      1  0.4902920000000  0.5284330000000  0.5224270000000 1.0
C      1  0.4902940000000  0.4715670000000  0.4775730000000 1.0
C      1  0.4532260000000  0.4250240000000  0.5668270000000 1.0
C      1  0.4532210000000  0.5749730000000  0.4331740000000 1.0
C      1  0.5453380000000  0.5749760000000  0.5668260000000 1.0
C      1  0.5453420000000  0.4250270000000  0.4331740000000 1.0
C      1  0.4321110000000  0.5575560000000  0.5586430000000 1.0
C      1  0.4321150000000  0.4424400000000  0.4413570000000 1.0
C      1  0.5664520000000  0.4424440000000  0.5586430000000 1.0
C      1  0.5664480000000  0.5575600000000  0.4413570000000 1.0
C      1  0.4015750000000  0.4500660000000  0.4750010000000 1.0
C      1  0.4015720000000  0.5499270000000  0.5249990000000 1.0
C      1  0.5969880000000  0.5499340000000  0.4750010000000 1.0
C      1  0.5969920000000  0.4500730000000  0.5249990000000 1.0
C      1  0.3870110000000  0.5456390000000  0.4542930000000 1.0
C      1  0.3870140000000  0.4543540000000  0.5457070000000 1.0
C      1  0.6115520000000  0.4543610000000  0.4542930000000 1.0
C      1  0.6115490000000  0.5456460000000  0.5457070000000 1.0
C      1  0.6074410000000  0.5046340000000  0.4602640000000 1.0
C      1  0.6074410000000  0.4953730000000  0.5397360000000 1.0
C      1  0.3911220000000  0.4953660000000  0.4602640000000 1.0
C      1  0.3911220000000  0.5046270000000  0.5397360000000 1.0
C      1  0.5290800000000  0.4795270000000  0.5041910000000 1.0
C      1  0.5290780000000  0.5204750000000  0.4958090000000 1.0
C      1  0.4694840000000  0.5204730000000  0.5041910000000 1.0
C      1  0.4694850000000  0.4795250000000  0.4958090000000 1.0
C      1  0.4295100000000  0.5467590000000  0.5181570000000 1.0
C      1  0.4295130000000  0.4532370000000  0.4818430000000 1.0
C      1  0.5690530000000  0.4532410000000  0.5181570000000 1.0
C      1  0.5690500000000  0.5467630000000  0.4818420000000 1.0
C      1  0.5065010000000  0.4500220000000  0.3967780000000 1.0
C      1  0.5064980000000  0.5499790000000  0.6032220000000 1.0
C      1  0.4920620000000  0.5499780000000  0.3967780000000 1.0
C      1  0.4920650000000  0.4500220000000  0.6032220000000 1.0
C      1  0.5476130000000  0.5253970000000  0.6136890000000 1.0
C      1  0.5476140000000  0.4746060000000  0.3863100000000 1.0
C      1  0.4509510000000  0.4746040000000  0.6136900000000 1.0
C      1  0.4509490000000  0.5253930000000  0.3863100000000 1.0
C      1  0.4084760000000  0.4129670000000  0.5273680000000 1.0
C      1  0.4084700000000  0.5870270000000  0.4726330000000 1.0
C      1  0.5900870000000  0.5870330000000  0.5273670000000 1.0
C      1  0.5900930000000  0.4129730000000  0.4726330000000 1.0
C      1  0.5200670000000  0.4120720000000  0.4755560000000 1.0
C      1  0.5200610000000  0.5879290000000  0.5244440000000 1.0
C      1  0.4784960000000  0.5879280000000  0.4755560000000 1.0
C      1  0.4785020000000  0.4120710000000  0.5244450000000 1.0
C      1  0.4367020000000  0.5298200000000  0.5674480000000 1.0
C      1  0.4367040000000  0.4701760000000  0.4325530000000 1.0
C      1  0.5618610000000  0.4701800000000  0.5674480000000 1.0
C      1  0.5618590000000  0.5298240000000  0.4325520000000 1.0
C      1  0.3822110000000  0.5219630000000  0.4701490000000 1.0
C      1  0.3822130000000  0.4780290000000  0.5298510000000 1.0
C      1  0.6163520000000  0.4780370000000  0.4701490000000 1.0
C      1  0.6163500000000  0.5219710000000  0.5298510000000 1.0
C      1  0.4722840000000  0.5753810000000  0.5344190000000 1.0
C      1  0.4722890000000  0.4246170000000  0.4655810000000 1.0
C      1  0.5262790000000  0.4246190000000  0.5344190000000 1.0
C      1  0.5262740000000  0.5753830000000  0.4655810000000 1.0
C      1  0.5883490000000  0.4373040000000  0.4567610000000 1.0
C      1  0.5883450000000  0.5627010000000  0.5432390000000 1.0
C      1  0.4102140000000  0.5626950000000  0.4567610000000 1.0
C      1  0.4102180000000  0.4372990000000  0.5432400000000 1.0
C      1  0.5463270000000  0.5295230000000  0.5435350000000 1.0
C      1  0.5463280000000  0.4704810000000  0.4564650000000 1.0
C      1  0.4522370000000  0.4704780000000  0.5435350000000 1.0
C      1  0.4522350000000  0.5295190000000  0.4564650000000 1.0
C      1  0.4679960000000  0.4744920000000  0.4229700000000 1.0
C      1  0.4679940000000  0.5255060000000  0.5770300000000 1.0
C      1  0.5305670000000  0.5255080000000  0.4229700000000 1.0
C      1  0.5305690000000  0.4744940000000  0.5770300000000 1.0
C      1  0.5808960000000  0.5063220000000  0.4431900000000 1.0
C      1  0.5808960000000  0.4936840000000  0.5568100000000 1.0
C      1  0.4176670000000  0.4936780000000  0.4431900000000 1.0
C      1  0.4176670000000  0.5063160000000  0.5568100000000 1.0
C      1  0.5287190000000  0.4764950000000  0.4324290000000 1.0
C      1  0.5287180000000  0.5235070000000  0.5675710000000 1.0
C      1  0.4698440000000  0.5235050000000  0.4324290000000 1.0
C      1  0.4698460000000  0.4764930000000  0.5675710000000 1.0
C      1  0.5621720000000  0.4960870000000  0.4630820000000 1.0
C      1  0.5621720000000  0.5039170000000  0.5369180000000 1.0
C      1  0.4363910000000  0.5039130000000  0.4630820000000 1.0
C      1  0.4363920000000  0.4960830000000  0.5369180000000 1.0
C      1  0.5618940000000  0.4454770000000  0.4460470000000 1.0
C      1  0.5618910000000  0.5545270000000  0.5539520000000 1.0
C      1  0.4366690000000  0.5545230000000  0.4460470000000 1.0
C      1  0.4366730000000  0.4454730000000  0.5539530000000 1.0
C      1  0.4675690000000  0.4618040000000  0.5192920000000 1.0
C      1  0.4675660000000  0.5381940000000  0.4807080000000 1.0
C      1  0.5309950000000  0.5381960000000  0.5192920000000 1.0
C      1  0.5309970000000  0.4618060000000  0.4807080000000 1.0
C      1  0.4939020000000  0.4441790000000  0.4686010000000 1.0
C      1  0.4938980000000  0.5558200000000  0.5313990000000 1.0
C      1  0.5046620000000  0.5558210000000  0.4686010000000 1.0
C      1  0.5046650000000  0.4441800000000  0.5313990000000 1.0
C      1  0.4881090000000  0.6111490000000  0.4905610000000 1.0
C      1  0.4881160000000  0.3888500000000  0.5094390000000 1.0
C      1  0.5104550000000  0.3888510000000  0.4905610000000 1.0
C      1  0.5104470000000  0.6111500000000  0.5094390000000 1.0
C      1  0.5549400000000  0.4813090000000  0.5174460000000 1.0
C      1  0.5549390000000  0.5186950000000  0.4825530000000 1.0
C      1  0.4436230000000  0.5186910000000  0.5174470000000 1.0
C      1  0.4436240000000  0.4813050000000  0.4825540000000 1.0
C      1  0.5175200000000  0.5502490000000  0.4106140000000 1.0
C      1  0.5175230000000  0.4497520000000  0.5893860000000 1.0
C      1  0.4810430000000  0.4497500000000  0.4106140000000 1.0
C      1  0.4810400000000  0.5502490000000  0.5893860000000 1.0
C      1  0.4238110000000  0.5910050000000  0.4964480000000 1.0
C      1  0.4238170000000  0.4089900000000  0.5035520000000 1.0
C      1  0.5747520000000  0.4089950000000  0.4964480000000 1.0
C      1  0.5747460000000  0.5910100000000  0.5035520000000 1.0
C      1  0.4842000000000  0.4992600000000  0.4310460000000 1.0
C      1  0.4842000000000  0.5007390000000  0.5689540000000 1.0
C      1  0.5143630000000  0.5007400000000  0.4310460000000 1.0
C      1  0.5143640000000  0.4992610000000  0.5689540000000 1.0
C      1  0.4605360000000  0.4922640000000  0.6347460000000 1.0
C      1  0.4605360000000  0.5077330000000  0.3652540000000 1.0
C      1  0.5380270000000  0.5077360000000  0.6347460000000 1.0
C      1  0.5380270000000  0.4922660000000  0.3652540000000 1.0
C      1  0.4653660000000  0.4340420000000  0.5105450000000 1.0
C      1  0.4653610000000  0.5659560000000  0.4894560000000 1.0
C      1  0.5331980000000  0.5659580000000  0.5105440000000 1.0
C      1  0.5332020000000  0.4340440000000  0.4894560000000 1.0
C      1  0.4691080000000  0.5755070000000  0.5822900000000 1.0
C      1  0.4691130000000  0.4244910000000  0.4177110000000 1.0
C      1  0.5294550000000  0.4244930000000  0.5822900000000 1.0
C      1  0.5294500000000  0.5755090000000  0.4177100000000 1.0
C      1  0.4543640000000  0.4233260000000  0.4424300000000 1.0
C      1  0.4543590000000  0.5766710000000  0.5575700000000 1.0
C      1  0.5441990000000  0.5766740000000  0.4424290000000 1.0
C      1  0.5442040000000  0.4233290000000  0.5575700000000 1.0
C      1  0.4740150000000  0.5896850000000  0.4468750000000 1.0
C      1  0.4740210000000  0.4103140000000  0.5531250000000 1.0
C      1  0.5245480000000  0.4103150000000  0.4468760000000 1.0
C      1  0.5245420000000  0.5896870000000  0.5531240000000 1.0
C      1  0.3505230000000  0.4999950000000  0.5000000000000 1.0
C      1  0.6480410000000  0.5000050000000  0.5000000000000 1.0
END
