TITL C-862503-991-737 -6.30049112364916e-06 125000 -430.811409459712 0 0 102 (Oh) n - 1
REM
REM in /home/nfs/bkarasulu/CARBON/AIRSS/Generating-Clusters/TERSOFF/Higher-Symm/FIRE-HFTN
REM
REM
REM
REM
REM
REM ./C.cell (b20cbc046b6831c77cfcea5457e17084)
REM AIRSS Version 0.9.1 bugfix July 2018 build 013d7b7c2542+ Fri, 06 Jul 2018 19:26:36 +0100
REM compiler GCC version 9.2.1 20190827 (Red Hat 9.2.1-1)
REM options -cpp -mtune=generic -march=x86-64 -g -O0 -fpre-include=/usr/include/finclude/math-vector-fortran.h
REM seed -1350867602 1103560025 2019777972 1535658306 2105662620 -912033945 -1096317114 559410551 285261513 -137303461 233461716 601990405 -763351297 1064549815 1587388579 2023191290 723918373 1150868492 1541403599 493341545 440872975 777901832 -782734309 896903641 1301891579 1040607959 1080949134 796496397 -563474046 1167430419 -779006247 246740513 -1018205703
REM
CELL 1.54180   50.00000   50.00000   50.00000   90.00000   90.00000   90.00000
LATT -1
SFAC C  
C      1  0.5179440000000  0.4444220000000  0.4442200000000 1.0
C      1  0.4441900000000  0.5181760000000  0.4442200000000 1.0
C      1  0.4441900000000  0.4444220000000  0.5179730000000 1.0
C      1  0.4817250000000  0.4444220000000  0.5555090000000 1.0
C      1  0.5179440000000  0.5557110000000  0.5555090000000 1.0
C      1  0.4817250000000  0.5557110000000  0.4442200000000 1.0
C      1  0.5554790000000  0.5181760000000  0.5555090000000 1.0
C      1  0.4441900000000  0.4819570000000  0.5555090000000 1.0
C      1  0.5554790000000  0.4819570000000  0.4442200000000 1.0
C      1  0.5554790000000  0.4444220000000  0.4817550000000 1.0
C      1  0.4441900000000  0.5557110000000  0.4817550000000 1.0
C      1  0.5554790000000  0.5557110000000  0.5179730000000 1.0
C      1  0.5179440000000  0.5557110000000  0.4442200000000 1.0
C      1  0.4441900000000  0.4819570000000  0.4442200000000 1.0
C      1  0.4441900000000  0.5557110000000  0.5179730000000 1.0
C      1  0.4817250000000  0.5557110000000  0.5555090000000 1.0
C      1  0.5179440000000  0.4444220000000  0.5555090000000 1.0
C      1  0.4817250000000  0.4444220000000  0.4442200000000 1.0
C      1  0.5554790000000  0.4819570000000  0.5555090000000 1.0
C      1  0.4441900000000  0.5181760000000  0.5555090000000 1.0
C      1  0.5554790000000  0.5181760000000  0.4442200000000 1.0
C      1  0.5554790000000  0.5557110000000  0.4817550000000 1.0
C      1  0.4441900000000  0.4444220000000  0.4817550000000 1.0
C      1  0.5554790000000  0.4444220000000  0.5179730000000 1.0
C      1  0.4152050000000  0.4833190000000  0.4831160000000 1.0
C      1  0.4830870000000  0.4154370000000  0.4831160000000 1.0
C      1  0.4830870000000  0.4833190000000  0.4152350000000 1.0
C      1  0.5844630000000  0.4833190000000  0.5166120000000 1.0
C      1  0.4152050000000  0.5168140000000  0.5166120000000 1.0
C      1  0.5844630000000  0.5168140000000  0.4831160000000 1.0
C      1  0.5165820000000  0.4154370000000  0.5166120000000 1.0
C      1  0.4830870000000  0.5846950000000  0.5166120000000 1.0
C      1  0.5165820000000  0.5846950000000  0.4831160000000 1.0
C      1  0.5165820000000  0.4833190000000  0.5844930000000 1.0
C      1  0.4830870000000  0.5168140000000  0.5844930000000 1.0
C      1  0.5165820000000  0.5168140000000  0.4152350000000 1.0
C      1  0.4152050000000  0.5168140000000  0.4831160000000 1.0
C      1  0.4830870000000  0.5846950000000  0.4831160000000 1.0
C      1  0.4830870000000  0.5168140000000  0.4152350000000 1.0
C      1  0.5844630000000  0.5168140000000  0.5166120000000 1.0
C      1  0.4152050000000  0.4833190000000  0.5166120000000 1.0
C      1  0.5844630000000  0.4833190000000  0.4831160000000 1.0
C      1  0.5165820000000  0.5846950000000  0.5166120000000 1.0
C      1  0.4830870000000  0.4154370000000  0.5166120000000 1.0
C      1  0.5165820000000  0.4154370000000  0.4831160000000 1.0
C      1  0.5165820000000  0.5168140000000  0.5844930000000 1.0
C      1  0.4830870000000  0.4833190000000  0.5844930000000 1.0
C      1  0.5165820000000  0.4833190000000  0.4152350000000 1.0
C      1  0.5207680000000  0.5505800000000  0.5207980000000 1.0
C      1  0.5207680000000  0.5210000000000  0.5503780000000 1.0
C      1  0.5503480000000  0.5210000000000  0.5207980000000 1.0
C      1  0.4789010000000  0.5505800000000  0.4789300000000 1.0
C      1  0.5207680000000  0.4495520000000  0.4789300000000 1.0
C      1  0.4789010000000  0.4495520000000  0.5207980000000 1.0
C      1  0.4789010000000  0.5210000000000  0.4493500000000 1.0
C      1  0.5207680000000  0.4791330000000  0.4493500000000 1.0
C      1  0.4789010000000  0.4791330000000  0.5503780000000 1.0
C      1  0.4493200000000  0.5210000000000  0.4789300000000 1.0
C      1  0.5503480000000  0.4791330000000  0.4789300000000 1.0
C      1  0.4493200000000  0.4791330000000  0.5207980000000 1.0
C      1  0.5207680000000  0.4495520000000  0.5207980000000 1.0
C      1  0.5207680000000  0.4791330000000  0.5503780000000 1.0
C      1  0.5503480000000  0.4791330000000  0.5207980000000 1.0
C      1  0.4789010000000  0.4495520000000  0.4789300000000 1.0
C      1  0.5207680000000  0.5505800000000  0.4789300000000 1.0
C      1  0.4789010000000  0.5505800000000  0.5207980000000 1.0
C      1  0.4789010000000  0.4791330000000  0.4493500000000 1.0
C      1  0.5207680000000  0.5210000000000  0.4493500000000 1.0
C      1  0.4789010000000  0.5210000000000  0.5503780000000 1.0
C      1  0.4493200000000  0.4791330000000  0.4789300000000 1.0
C      1  0.5503480000000  0.5210000000000  0.4789300000000 1.0
C      1  0.4493200000000  0.5210000000000  0.5207980000000 1.0
C      1  0.5415670000000  0.4202200000000  0.5415970000000 1.0
C      1  0.5415670000000  0.5417990000000  0.4200180000000 1.0
C      1  0.4199880000000  0.5417990000000  0.5415970000000 1.0
C      1  0.4581020000000  0.4202200000000  0.4581310000000 1.0
C      1  0.5415670000000  0.5799120000000  0.4581310000000 1.0
C      1  0.4581020000000  0.5799120000000  0.5415970000000 1.0
C      1  0.4581020000000  0.5417990000000  0.5797100000000 1.0
C      1  0.5415670000000  0.4583340000000  0.5797100000000 1.0
C      1  0.4581020000000  0.4583340000000  0.4200180000000 1.0
C      1  0.5796800000000  0.5417990000000  0.4581310000000 1.0
C      1  0.4199880000000  0.4583340000000  0.4581310000000 1.0
C      1  0.5796800000000  0.4583340000000  0.5415970000000 1.0
C      1  0.5415670000000  0.5799120000000  0.5415970000000 1.0
C      1  0.5415670000000  0.4583340000000  0.4200180000000 1.0
C      1  0.4199880000000  0.4583340000000  0.5415970000000 1.0
C      1  0.4581020000000  0.5799120000000  0.4581310000000 1.0
C      1  0.5415670000000  0.4202200000000  0.4581310000000 1.0
C      1  0.4581020000000  0.4202200000000  0.5415970000000 1.0
C      1  0.4581020000000  0.4583340000000  0.5797100000000 1.0
C      1  0.5415670000000  0.5417990000000  0.5797100000000 1.0
C      1  0.4581020000000  0.5417990000000  0.4200180000000 1.0
C      1  0.5796800000000  0.4583340000000  0.4581310000000 1.0
C      1  0.4199880000000  0.5417990000000  0.4581310000000 1.0
C      1  0.5796800000000  0.5417990000000  0.5415970000000 1.0
C      1  0.4998340000000  0.4645130000000  0.4998640000000 1.0
C      1  0.4998340000000  0.5000660000000  0.4643110000000 1.0
C      1  0.4642810000000  0.5000660000000  0.4998640000000 1.0
C      1  0.4998340000000  0.5356190000000  0.4998640000000 1.0
C      1  0.4998340000000  0.5000660000000  0.5354170000000 1.0
C      1  0.5353870000000  0.5000660000000  0.4998640000000 1.0
END
