TITL C-862506-1665-8 215707.421804801 125000 -576.432732173779 0 0 105 (C1) n - 1
REM
REM in /home/nfs/bkarasulu/CARBON/AIRSS/Generating-Clusters/TERSOFF/Higher-Symm/FIRE-HFTN
REM
REM
REM
REM
REM
REM ./C.cell (b20cbc046b6831c77cfcea5457e17084)
REM AIRSS Version 0.9.1 bugfix July 2018 build 013d7b7c2542+ Fri, 06 Jul 2018 19:26:36 +0100
REM compiler GCC version 9.2.1 20190827 (Red Hat 9.2.1-1)
REM options -cpp -mtune=generic -march=x86-64 -g -O0 -fpre-include=/usr/include/finclude/math-vector-fortran.h
REM seed 1246831107 1386574150 -1600608840 -666351576 2066818185 590916080 1416499035 1388766949 325691643 1032193507 -419599713 -195142653 -1572477586 -2109707882 -297710406 -965360557 -818652655 -1388166448 -556727429 -1795671896 -1039832590 669590283 -1490158283 904992531 -1646802692 -1127595623 -1443594533 -358321856 -842693879 1606888179 325138819 171250320 -413800181
REM
CELL 1.54180   50.00000   50.00000   50.00000   90.00000   90.00000   90.00000
LATT -1
SFAC C  
C      1  0.4393060000000  0.5054310000000  0.4472510000000 1.0
C      1  0.5035610000000  0.5078340000000  0.4188720000000 1.0
C      1  0.5652080000000  0.5078920000000  0.4533320000000 1.0
C      1  0.5770440000000  0.5053100000000  0.5228700000000 1.0
C      1  0.5283950000000  0.5062160000000  0.5704180000000 1.0
C      1  0.4603060000000  0.5041250000000  0.5716100000000 1.0
C      1  0.4226490000000  0.5063660000000  0.5143740000000 1.0
C      1  0.4393970000000  0.5879860000000  0.5104780000000 1.0
C      1  0.4530290000000  0.5878400000000  0.4601960000000 1.0
C      1  0.5023550000000  0.5910850000000  0.4408940000000 1.0
C      1  0.5487640000000  0.5918940000000  0.4687530000000 1.0
C      1  0.5594710000000  0.5783650000000  0.5218400000000 1.0
C      1  0.5212790000000  0.5882610000000  0.5568120000000 1.0
C      1  0.4829380000000  0.6171890000000  0.5277510000000 1.0
C      1  0.4633650000000  0.4644360000000  0.5070040000000 1.0
C      1  0.4718860000000  0.4623810000000  0.4752010000000 1.0
C      1  0.5018910000000  0.4660350000000  0.4621510000000 1.0
C      1  0.5303780000000  0.4650890000000  0.4782480000000 1.0
C      1  0.5349190000000  0.4611980000000  0.5116460000000 1.0
C      1  0.5145240000000  0.4542960000000  0.5345150000000 1.0
C      1  0.4839800000000  0.4612730000000  0.5333850000000 1.0
C      1  0.4713210000000  0.4064460000000  0.5569010000000 1.0
C      1  0.4386990000000  0.4084090000000  0.5127480000000 1.0
C      1  0.4527110000000  0.4075780000000  0.4593130000000 1.0
C      1  0.5033070000000  0.4100290000000  0.4372680000000 1.0
C      1  0.5520530000000  0.4095990000000  0.4632450000000 1.0
C      1  0.5622750000000  0.4072810000000  0.5172350000000 1.0
C      1  0.5265910000000  0.4065190000000  0.5596540000000 1.0
C      1  0.5562530000000  0.5351770000000  0.4605460000000 1.0
C      1  0.5633280000000  0.5310830000000  0.5210880000000 1.0
C      1  0.5221860000000  0.5350070000000  0.5629400000000 1.0
C      1  0.4661030000000  0.5303040000000  0.5595280000000 1.0
C      1  0.4326840000000  0.5344070000000  0.5120520000000 1.0
C      1  0.4475950000000  0.5326800000000  0.4549300000000 1.0
C      1  0.5032740000000  0.5351610000000  0.4301650000000 1.0
C      1  0.4706040000000  0.5387820000000  0.4742150000000 1.0
C      1  0.5017890000000  0.5408410000000  0.4597780000000 1.0
C      1  0.5313020000000  0.5407850000000  0.4767450000000 1.0
C      1  0.5338600000000  0.5356840000000  0.5105040000000 1.0
C      1  0.5093200000000  0.5431310000000  0.5357280000000 1.0
C      1  0.4803230000000  0.5332980000000  0.5333820000000 1.0
C      1  0.4628140000000  0.5416580000000  0.5092920000000 1.0
C      1  0.5653480000000  0.4584330000000  0.5182740000000 1.0
C      1  0.5262050000000  0.4574560000000  0.5623370000000 1.0
C      1  0.4676200000000  0.4576030000000  0.5598010000000 1.0
C      1  0.4332900000000  0.4594970000000  0.5121400000000 1.0
C      1  0.4492310000000  0.4587360000000  0.4551960000000 1.0
C      1  0.5035970000000  0.4612780000000  0.4319880000000 1.0
C      1  0.5548800000000  0.4608730000000  0.4599150000000 1.0
C      1  0.5129510000000  0.5018820000000  0.5297870000000 1.0
C      1  0.4863730000000  0.4918570000000  0.5303600000000 1.0
C      1  0.4671680000000  0.4999000000000  0.5083000000000 1.0
C      1  0.4755260000000  0.4937430000000  0.4795010000000 1.0
C      1  0.5029000000000  0.4996370000000  0.4673370000000 1.0
C      1  0.5298130000000  0.4991760000000  0.4821000000000 1.0
C      1  0.5319540000000  0.4919230000000  0.5113490000000 1.0
C      1  0.5339040000000  0.4056340000000  0.5097740000000 1.0
C      1  0.5147820000000  0.4049030000000  0.5324180000000 1.0
C      1  0.4851840000000  0.4052790000000  0.5310350000000 1.0
C      1  0.4676250000000  0.4075970000000  0.5071690000000 1.0
C      1  0.4751260000000  0.4070010000000  0.4785180000000 1.0
C      1  0.5021690000000  0.4092450000000  0.4667470000000 1.0
C      1  0.5283190000000  0.4082920000000  0.4806750000000 1.0
C      1  0.4226910000000  0.4326040000000  0.5137970000000 1.0
C      1  0.4411180000000  0.4317950000000  0.4480680000000 1.0
C      1  0.5045930000000  0.4343320000000  0.4212740000000 1.0
C      1  0.5638830000000  0.4341530000000  0.4531230000000 1.0
C      1  0.5769350000000  0.4319790000000  0.5208070000000 1.0
C      1  0.5316710000000  0.4313420000000  0.5739870000000 1.0
C      1  0.4623640000000  0.4308280000000  0.5697360000000 1.0
C      1  0.5925120000000  0.5708510000000  0.4684690000000 1.0
C      1  0.5973410000000  0.5576690000000  0.5492320000000 1.0
C      1  0.5075530000000  0.5690490000000  0.5986550000000 1.0
C      1  0.4346470000000  0.5704700000000  0.5663240000000 1.0
C      1  0.4050600000000  0.5684870000000  0.4851540000000 1.0
C      1  0.4441030000000  0.5704750000000  0.4201640000000 1.0
C      1  0.5297480000000  0.5718690000000  0.4056280000000 1.0
C      1  0.5012040000000  0.5739220000000  0.4649800000000 1.0
C      1  0.5284380000000  0.5744220000000  0.4810200000000 1.0
C      1  0.5324910000000  0.5704500000000  0.5117500000000 1.0
C      1  0.5102940000000  0.5751690000000  0.5325460000000 1.0
C      1  0.4864080000000  0.5887870000000  0.5223380000000 1.0
C      1  0.4656870000000  0.5745510000000  0.5067520000000 1.0
C      1  0.4720820000000  0.5722870000000  0.4766180000000 1.0
C      1  0.4826120000000  0.4832060000000  0.4218690000000 1.0
C      1  0.5499800000000  0.4840230000000  0.4377850000000 1.0
C      1  0.5793080000000  0.4821700000000  0.5005210000000 1.0
C      1  0.5484060000000  0.4814430000000  0.5616270000000 1.0
C      1  0.4811770000000  0.4802950000000  0.5780770000000 1.0
C      1  0.4280150000000  0.4816010000000  0.5343810000000 1.0
C      1  0.4285670000000  0.4814930000000  0.4651480000000 1.0
C      1  0.4127560000000  0.5555240000000  0.5098740000000 1.0
C      1  0.4337730000000  0.5550420000000  0.4423760000000 1.0
C      1  0.5052450000000  0.5577810000000  0.4118890000000 1.0
C      1  0.5725230000000  0.5578290000000  0.4520760000000 1.0
C      1  0.5764850000000  0.5561240000000  0.5291940000000 1.0
C      1  0.5276660000000  0.5557600000000  0.5826340000000 1.0
C      1  0.4576000000000  0.5543870000000  0.5735500000000 1.0
C      1  0.4559680000000  0.4820200000000  0.4333460000000 1.0
C      1  0.5245430000000  0.4839900000000  0.4237770000000 1.0
C      1  0.5742310000000  0.4832500000000  0.4720380000000 1.0
C      1  0.5682350000000  0.4809230000000  0.5409790000000 1.0
C      1  0.5097620000000  0.4810100000000  0.5779460000000 1.0
C      1  0.4443900000000  0.4802380000000  0.5579010000000 1.0
C      1  0.4209330000000  0.4820960000000  0.4930060000000 1.0
END
