TITL C-862503-991-922 1930651.93383939 125000 -937.85100588868 0 0 166 (C3h) n - 1
REM
REM in /home/nfs/bkarasulu/CARBON/AIRSS/Generating-Clusters/TERSOFF/Higher-Symm/FIRE-HFTN
REM
REM
REM
REM
REM
REM ./C.cell (b20cbc046b6831c77cfcea5457e17084)
REM AIRSS Version 0.9.1 bugfix July 2018 build 013d7b7c2542+ Fri, 06 Jul 2018 19:26:36 +0100
REM compiler GCC version 9.2.1 20190827 (Red Hat 9.2.1-1)
REM options -cpp -mtune=generic -march=x86-64 -g -O0 -fpre-include=/usr/include/finclude/math-vector-fortran.h
REM seed 607068607 -1660453749 -428717348 -2078979432 -803163501 1983286929 -1843253687 -1673615605 2048793556 -1503233140 -2014906516 1571456674 -1464521816 150934070 -1232962004 1257387451 -1454519535 -959379482 850084841 1168028839 1244394375 -670080494 -1228423225 1492399605 778724753 -1295691154 -1161875320 -1856178313 48909996 1747091500 -1808357823 -1612898009 -1307876112
REM
CELL 1.54180   50.00000   50.00000   50.00000   90.00000   90.00000   90.00000
LATT -1
SFAC C  
C      1  0.5710870000000  0.4198520000000  0.4392010000000 1.0
C      1  0.5172020000000  0.4198520000000  0.5925360000000 1.0
C      1  0.4113490000000  0.4198550000000  0.4692040000000 1.0
C      1  0.5710930000000  0.5800840000000  0.4392060000000 1.0
C      1  0.5171970000000  0.5800820000000  0.5925370000000 1.0
C      1  0.4113520000000  0.5800810000000  0.4691980000000 1.0
C      1  0.5421560000000  0.5557760000000  0.4573990000000 1.0
C      1  0.5159070000000  0.5557760000000  0.5583800000000 1.0
C      1  0.4415810000000  0.5557770000000  0.4851580000000 1.0
C      1  0.5421520000000  0.4441600000000  0.4573970000000 1.0
C      1  0.5159090000000  0.4441580000000  0.5583800000000 1.0
C      1  0.4415790000000  0.4441590000000  0.4851620000000 1.0
C      1  0.3950960000000  0.5603130000000  0.4873430000000 1.0
C      1  0.5635110000000  0.5603120000000  0.4160560000000 1.0
C      1  0.5410390000000  0.5603130000000  0.5975430000000 1.0
C      1  0.3950950000000  0.4396230000000  0.4873500000000 1.0
C      1  0.5635040000000  0.4396230000000  0.4160510000000 1.0
C      1  0.5410430000000  0.4396220000000  0.5975410000000 1.0
C      1  0.4374620000000  0.5319850000000  0.4693970000000 1.0
C      1  0.5578590000000  0.5319780000000  0.4617160000000 1.0
C      1  0.5043170000000  0.5319820000000  0.5698240000000 1.0
C      1  0.4374610000000  0.4679490000000  0.4693980000000 1.0
C      1  0.5578580000000  0.4679550000000  0.4617150000000 1.0
C      1  0.5043180000000  0.4679530000000  0.5698240000000 1.0
C      1  0.5516640000000  0.3985780000000  0.4451640000000 1.0
C      1  0.5217450000000  0.3985770000000  0.5727340000000 1.0
C      1  0.4262270000000  0.3985790000000  0.4830370000000 1.0
C      1  0.5516700000000  0.6013570000000  0.4451680000000 1.0
C      1  0.5217410000000  0.6013580000000  0.5727360000000 1.0
C      1  0.4262300000000  0.6013560000000  0.4830320000000 1.0
C      1  0.4037230000000  0.5258400000000  0.3830440000000 1.0
C      1  0.6495070000000  0.5258390000000  0.4756940000000 1.0
C      1  0.4463980000000  0.5258410000000  0.6422170000000 1.0
C      1  0.4037160000000  0.4740890000000  0.3830470000000 1.0
C      1  0.6495110000000  0.4740880000000  0.4756790000000 1.0
C      1  0.4464030000000  0.4740900000000  0.6422180000000 1.0
C      1  0.4223450000000  0.4853160000000  0.4871810000000 1.0
C      1  0.5500060000000  0.4853160000000  0.4397320000000 1.0
C      1  0.5272800000000  0.4853150000000  0.5740180000000 1.0
C      1  0.4223460000000  0.5146200000000  0.4871800000000 1.0
C      1  0.5500060000000  0.5146190000000  0.4397320000000 1.0
C      1  0.5272790000000  0.5146190000000  0.5740190000000 1.0
C      1  0.4710890000000  0.5856340000000  0.5450640000000 1.0
C      1  0.4755190000000  0.5856320000000  0.4530020000000 1.0
C      1  0.5530300000000  0.5856370000000  0.5028710000000 1.0
C      1  0.4710910000000  0.4143000000000  0.5450650000000 1.0
C      1  0.4755160000000  0.4143040000000  0.4530040000000 1.0
C      1  0.5530300000000  0.4142990000000  0.5028670000000 1.0
C      1  0.5815390000000  0.4647860000000  0.5792490000000 1.0
C      1  0.3906900000000  0.4647910000000  0.5315620000000 1.0
C      1  0.5274160000000  0.4647870000000  0.3901230000000 1.0
C      1  0.5815370000000  0.5351520000000  0.5792520000000 1.0
C      1  0.3906880000000  0.5351500000000  0.5315590000000 1.0
C      1  0.5274210000000  0.5351550000000  0.3901230000000 1.0
C      1  0.3954910000000  0.4720810000000  0.4893310000000 1.0
C      1  0.5615770000000  0.4720820000000  0.4154020000000 1.0
C      1  0.5425670000000  0.4720810000000  0.5962010000000 1.0
C      1  0.3954920000000  0.5278550000000  0.4893280000000 1.0
C      1  0.5615780000000  0.5278530000000  0.4154040000000 1.0
C      1  0.5425650000000  0.5278530000000  0.5962020000000 1.0
C      1  0.4445090000000  0.5552600000000  0.3883580000000 1.0
C      1  0.6244450000000  0.5551830000000  0.5083760000000 1.0
C      1  0.4306140000000  0.5552250000000  0.6042080000000 1.0
C      1  0.4444980000000  0.4446640000000  0.3883580000000 1.0
C      1  0.6244610000000  0.4447350000000  0.5083600000000 1.0
C      1  0.4306190000000  0.4447130000000  0.6042040000000 1.0
C      1  0.5345420000000  0.4789870000000  0.5428690000000 1.0
C      1  0.4456910000000  0.4789880000000  0.5090500000000 1.0
C      1  0.5194020000000  0.4789870000000  0.4490170000000 1.0
C      1  0.5345410000000  0.5209480000000  0.5428690000000 1.0
C      1  0.4456920000000  0.5209490000000  0.5090490000000 1.0
C      1  0.5194020000000  0.5209480000000  0.4490170000000 1.0
C      1  0.5805490000000  0.5825130000000  0.4909130000000 1.0
C      1  0.4676870000000  0.5825000000000  0.5748750000000 1.0
C      1  0.4514030000000  0.5824920000000  0.4351500000000 1.0
C      1  0.5805480000000  0.4174250000000  0.4909070000000 1.0
C      1  0.4676910000000  0.4174310000000  0.5748770000000 1.0
C      1  0.4513970000000  0.4174420000000  0.4351540000000 1.0
C      1  0.4480240000000  0.5861060000000  0.5260630000000 1.0
C      1  0.5035070000000  0.5861040000000  0.4425260000000 1.0
C      1  0.5481080000000  0.5861070000000  0.5323470000000 1.0
C      1  0.4480240000000  0.4138300000000  0.5260660000000 1.0
C      1  0.5035030000000  0.4138330000000  0.4425260000000 1.0
C      1  0.5481100000000  0.4138290000000  0.5323430000000 1.0
C      1  0.5327240000000  0.5585020000000  0.4081040000000 1.0
C      1  0.5633150000000  0.5585010000000  0.5748550000000 1.0
C      1  0.4036070000000  0.5585010000000  0.5179770000000 1.0
C      1  0.5327170000000  0.4414370000000  0.4081030000000 1.0
C      1  0.5633180000000  0.4414350000000  0.5748520000000 1.0
C      1  0.4036080000000  0.4414370000000  0.5179830000000 1.0
C      1  0.3791700000000  0.5149770000000  0.5118640000000 1.0
C      1  0.5502330000000  0.5149770000000  0.3899960000000 1.0
C      1  0.5702420000000  0.5149760000000  0.5990730000000 1.0
C      1  0.3791700000000  0.4849620000000  0.5118660000000 1.0
C      1  0.5502310000000  0.4849610000000  0.3899950000000 1.0
C      1  0.5702440000000  0.4849600000000  0.5990720000000 1.0
C      1  0.6052660000000  0.5143720000000  0.4672000000000 1.0
C      1  0.4758440000000  0.5143740000000  0.6081230000000 1.0
C      1  0.4185550000000  0.5143730000000  0.4255800000000 1.0
C      1  0.6052660000000  0.4855590000000  0.4672030000000 1.0
C      1  0.4758480000000  0.4855610000000  0.6081250000000 1.0
C      1  0.4185560000000  0.4855590000000  0.4255790000000 1.0
C      1  0.4396260000000  0.4776540000000  0.5374140000000 1.0
C      1  0.4978690000000  0.4776510000000  0.4295840000000 1.0
C      1  0.5621380000000  0.4776520000000  0.5339370000000 1.0
C      1  0.4396260000000  0.5222850000000  0.5374140000000 1.0
C      1  0.4978690000000  0.5222850000000  0.4295840000000 1.0
C      1  0.5621380000000  0.5222840000000  0.5339380000000 1.0
C      1  0.5209550000000  0.5610530000000  0.4356780000000 1.0
C      1  0.5453190000000  0.5610540000000  0.5508780000000 1.0
C      1  0.4333700000000  0.5610530000000  0.5143800000000 1.0
C      1  0.5209490000000  0.4388850000000  0.4356770000000 1.0
C      1  0.5453200000000  0.4388820000000  0.5508750000000 1.0
C      1  0.4333710000000  0.4388840000000  0.5143850000000 1.0
C      1  0.4366560000000  0.4691240000000  0.4407770000000 1.0
C      1  0.5830620000000  0.4691230000000  0.4752990000000 1.0
C      1  0.4799460000000  0.4691250000000  0.5848490000000 1.0
C      1  0.4366560000000  0.5308080000000  0.4407760000000 1.0
C      1  0.5830620000000  0.5308070000000  0.4753000000000 1.0
C      1  0.4799430000000  0.5308090000000  0.5848470000000 1.0
C      1  0.4972930000000  0.5829720000000  0.5326310000000 1.0
C      1  0.4731870000000  0.5829720000000  0.4819120000000 1.0
C      1  0.5291620000000  0.5829710000000  0.4863930000000 1.0
C      1  0.4972950000000  0.4169630000000  0.5326310000000 1.0
C      1  0.4731850000000  0.4169630000000  0.4819150000000 1.0
C      1  0.5291600000000  0.4169640000000  0.4863910000000 1.0
C      1  0.5152150000000  0.5557080000000  0.4895080000000 1.0
C      1  0.5015710000000  0.5557090000000  0.5189930000000 1.0
C      1  0.4828590000000  0.5557090000000  0.4924360000000 1.0
C      1  0.5152130000000  0.4442270000000  0.4895080000000 1.0
C      1  0.5015710000000  0.4442260000000  0.5189930000000 1.0
C      1  0.4828570000000  0.4442270000000  0.4924370000000 1.0
C      1  0.4514120000000  0.5966510000000  0.4973180000000 1.0
C      1  0.5267060000000  0.5966510000000  0.4598330000000 1.0
C      1  0.5215210000000  0.5966530000000  0.5437850000000 1.0
C      1  0.4514110000000  0.4032840000000  0.4973220000000 1.0
C      1  0.5267020000000  0.4032850000000  0.4598310000000 1.0
C      1  0.5215240000000  0.4032820000000  0.5437830000000 1.0
C      1  0.6122370000000  0.5564650000000  0.4593500000000 1.0
C      1  0.4791910000000  0.5564530000000  0.6181000000000 1.0
C      1  0.4082160000000  0.5564400000000  0.4235100000000 1.0
C      1  0.6122350000000  0.4434680000000  0.4593380000000 1.0
C      1  0.4791950000000  0.4434780000000  0.6181000000000 1.0
C      1  0.4082110000000  0.4434940000000  0.4235160000000 1.0
C      1  0.4519790000000  0.5461370000000  0.6217390000000 1.0
C      1  0.4186610000000  0.5461430000000  0.3981130000000 1.0
C      1  0.6289750000000  0.5461270000000  0.4811020000000 1.0
C      1  0.4519840000000  0.4537960000000  0.6217380000000 1.0
C      1  0.4186530000000  0.4537860000000  0.3981160000000 1.0
C      1  0.6289800000000  0.4537990000000  0.4810870000000 1.0
C      1  0.5874090000000  0.5717260000000  0.4630960000000 1.0
C      1  0.4883520000000  0.5717180000000  0.5947240000000 1.0
C      1  0.4238800000000  0.5717130000000  0.4431260000000 1.0
C      1  0.5874060000000  0.4282090000000  0.4630890000000 1.0
C      1  0.4883570000000  0.4282140000000  0.5947240000000 1.0
C      1  0.4238750000000  0.4282220000000  0.4431310000000 1.0
C      1  0.4738530000000  0.5253560000000  0.4987520000000 1.0
C      1  0.5142420000000  0.5253550000000  0.4785530000000 1.0
C      1  0.5115420000000  0.5253550000000  0.5236310000000 1.0
C      1  0.4738530000000  0.4745800000000  0.4987530000000 1.0
C      1  0.5142420000000  0.4745800000000  0.4785530000000 1.0
C      1  0.5115430000000  0.4745800000000  0.5236310000000 1.0
C      1  0.4597750000000  0.4999670000000  0.6441540000000 1.0
C      1  0.3953630000000  0.4999660000000  0.3936650000000 1.0
C      1  0.6445060000000  0.4999670000000  0.4631330000000 1.0
C      1  0.4998790000000  0.4999680000000  0.5003130000000 1.0
END
