TITL C-862506-1665-70 10.0040078082136 125000 -1051.18832186094 0 0 186 (S4) n - 1
REM
REM in /home/nfs/bkarasulu/CARBON/AIRSS/Generating-Clusters/TERSOFF/Higher-Symm/FIRE-HFTN
REM
REM
REM
REM
REM
REM ./C.cell (b20cbc046b6831c77cfcea5457e17084)
REM AIRSS Version 0.9.1 bugfix July 2018 build 013d7b7c2542+ Fri, 06 Jul 2018 19:26:36 +0100
REM compiler GCC version 9.2.1 20190827 (Red Hat 9.2.1-1)
REM options -cpp -mtune=generic -march=x86-64 -g -O0 -fpre-include=/usr/include/finclude/math-vector-fortran.h
REM seed 1682867018 -348958776 168936541 1118497459 909945972 1650131638 -952250986 -737631992 1796159419 -201368326 -108652012 2112235871 272898104 1102009249 547832111 -1495370314 -1196448897 1579410251 -1458610741 427115996 -1750983886 -164019650 1500745257 1038125534 -1390670565 1952789487 -719964571 -1581243222 1407121394 -851321458 -1394458477 1497215293 847850977
REM
CELL 1.54180   50.00000   50.00000   50.00000   90.00000   90.00000   90.00000
LATT -1
SFAC C  
C      1  0.4897360000000  0.5768060000000  0.4535820000000 1.0
C      1  0.4232440000000  0.4898450000000  0.5464180000000 1.0
C      1  0.5102040000000  0.4233540000000  0.4535820000000 1.0
C      1  0.5766960000000  0.5103140000000  0.5464180000000 1.0
C      1  0.5613730000000  0.5548860000000  0.4294460000000 1.0
C      1  0.4451640000000  0.5614820000000  0.5705540000000 1.0
C      1  0.4385670000000  0.4452730000000  0.4294460000000 1.0
C      1  0.5547760000000  0.4386770000000  0.5705540000000 1.0
C      1  0.3984850000000  0.4440150000000  0.5688760000000 1.0
C      1  0.5560350000000  0.3985940000000  0.4311240000000 1.0
C      1  0.6014550000000  0.5561450000000  0.5688760000000 1.0
C      1  0.4439050000000  0.6015650000000  0.4311240000000 1.0
C      1  0.4235820000000  0.4411290000000  0.5550710000000 1.0
C      1  0.5589210000000  0.4236910000000  0.4449290000000 1.0
C      1  0.5763580000000  0.5590300000000  0.5550710000000 1.0
C      1  0.4410190000000  0.5764680000000  0.4449290000000 1.0
C      1  0.5226520000000  0.5117120000000  0.5001570000000 1.0
C      1  0.4883380000000  0.5227620000000  0.4998430000000 1.0
C      1  0.4772880000000  0.4884470000000  0.5001570000000 1.0
C      1  0.5116030000000  0.4773980000000  0.4998430000000 1.0
C      1  0.5313180000000  0.4224710000000  0.4976750000000 1.0
C      1  0.5775780000000  0.5314270000000  0.5023250000000 1.0
C      1  0.4686220000000  0.5776880000000  0.4976750000000 1.0
C      1  0.4223620000000  0.4687320000000  0.5023250000000 1.0
C      1  0.3915020000000  0.5158140000000  0.5553920000000 1.0
C      1  0.4842350000000  0.3916120000000  0.4446080000000 1.0
C      1  0.6084380000000  0.4843450000000  0.5553920000000 1.0
C      1  0.5157050000000  0.6085480000000  0.4446080000000 1.0
C      1  0.4068500000000  0.4937870000000  0.5717660000000 1.0
C      1  0.5062620000000  0.4069590000000  0.4282340000000 1.0
C      1  0.5930910000000  0.5063720000000  0.5717660000000 1.0
C      1  0.4936780000000  0.5932000000000  0.4282340000000 1.0
C      1  0.4944770000000  0.3727200000000  0.4662210000000 1.0
C      1  0.6273300000000  0.4945860000000  0.5337790000000 1.0
C      1  0.5054640000000  0.6274390000000  0.4662210000000 1.0
C      1  0.3726100000000  0.5055730000000  0.5337790000000 1.0
C      1  0.4640640000000  0.5216480000000  0.5672390000000 1.0
C      1  0.4784020000000  0.4641740000000  0.4327610000000 1.0
C      1  0.5358760000000  0.4785110000000  0.5672390000000 1.0
C      1  0.5215380000000  0.5359850000000  0.4327610000000 1.0
C      1  0.5749130000000  0.5843260000000  0.4744210000000 1.0
C      1  0.4157240000000  0.5750220000000  0.5255790000000 1.0
C      1  0.4250280000000  0.4158330000000  0.4744210000000 1.0
C      1  0.5842170000000  0.4251370000000  0.5255790000000 1.0
C      1  0.5165390000000  0.5545330000000  0.6026470000000 1.0
C      1  0.4455170000000  0.5166480000000  0.3973530000000 1.0
C      1  0.4834020000000  0.4456260000000  0.6026470000000 1.0
C      1  0.5544230000000  0.4835110000000  0.3973530000000 1.0
C      1  0.5587070000000  0.4563040000000  0.5950000000000 1.0
C      1  0.5437460000000  0.5588160000000  0.4049990000000 1.0
C      1  0.4412330000000  0.5438560000000  0.5950000000000 1.0
C      1  0.4561940000000  0.4413430000000  0.4050000000000 1.0
C      1  0.5131570000000  0.4031100000000  0.5370210000000 1.0
C      1  0.5969400000000  0.5132670000000  0.4629790000000 1.0
C      1  0.4867830000000  0.5970490000000  0.5370210000000 1.0
C      1  0.4030000000000  0.4868920000000  0.4629790000000 1.0
C      1  0.4802770000000  0.4929460000000  0.5944480000000 1.0
C      1  0.5071030000000  0.4803870000000  0.4055520000000 1.0
C      1  0.5196630000000  0.5072130000000  0.5944480000000 1.0
C      1  0.4928370000000  0.5197720000000  0.4055520000000 1.0
C      1  0.4560260000000  0.4003240000000  0.4435730000000 1.0
C      1  0.5997260000000  0.4561360000000  0.5564270000000 1.0
C      1  0.5439140000000  0.5998350000000  0.4435720000000 1.0
C      1  0.4002150000000  0.5440240000000  0.5564280000000 1.0
C      1  0.5049100000000  0.4280200000000  0.4061240000000 1.0
C      1  0.5720300000000  0.5050200000000  0.5938760000000 1.0
C      1  0.4950300000000  0.5721390000000  0.4061240000000 1.0
C      1  0.4279110000000  0.4951390000000  0.5938760000000 1.0
C      1  0.4433580000000  0.4715580000000  0.6042790000000 1.0
C      1  0.5284910000000  0.4434680000000  0.3957210000000 1.0
C      1  0.5565820000000  0.5286010000000  0.6042790000000 1.0
C      1  0.4714490000000  0.5566920000000  0.3957210000000 1.0
C      1  0.4746920000000  0.5529730000000  0.5671600000000 1.0
C      1  0.4470770000000  0.4748020000000  0.4328400000000 1.0
C      1  0.5252480000000  0.4471860000000  0.5671600000000 1.0
C      1  0.5528630000000  0.5253580000000  0.4328400000000 1.0
C      1  0.5395790000000  0.5471240000000  0.5846520000000 1.0
C      1  0.4529260000000  0.5396880000000  0.4153470000000 1.0
C      1  0.4603610000000  0.4530360000000  0.5846530000000 1.0
C      1  0.5470140000000  0.4604710000000  0.4153470000000 1.0
C      1  0.4156700000000  0.5045620000000  0.5229430000000 1.0
C      1  0.4954880000000  0.4157800000000  0.4770570000000 1.0
C      1  0.5842700000000  0.4955970000000  0.5229430000000 1.0
C      1  0.5044530000000  0.5843800000000  0.4770560000000 1.0
C      1  0.5826070000000  0.5574500000000  0.5138210000000 1.0
C      1  0.4425990000000  0.5827160000000  0.4861790000000 1.0
C      1  0.4173330000000  0.4427090000000  0.5138210000000 1.0
C      1  0.5573410000000  0.4174430000000  0.4861790000000 1.0
C      1  0.4948980000000  0.4100890000000  0.5741910000000 1.0
C      1  0.5899600000000  0.4950070000000  0.4258090000000 1.0
C      1  0.5050430000000  0.5900700000000  0.5741910000000 1.0
C      1  0.4099800000000  0.5051520000000  0.4258090000000 1.0
C      1  0.5814160000000  0.4296810000000  0.4964430000000 1.0
C      1  0.5703690000000  0.5815250000000  0.5035560000000 1.0
C      1  0.4185240000000  0.5704790000000  0.4964430000000 1.0
C      1  0.4295710000000  0.4186340000000  0.5035570000000 1.0
C      1  0.5527520000000  0.5719580000000  0.5665110000000 1.0
C      1  0.4280910000000  0.5528610000000  0.4334890000000 1.0
C      1  0.4471880000000  0.4282010000000  0.5665110000000 1.0
C      1  0.5718490000000  0.4472980000000  0.4334890000000 1.0
C      1  0.4839700000000  0.4572180000000  0.6313860000000 1.0
C      1  0.5428320000000  0.4840790000000  0.3686140000000 1.0
C      1  0.5159700000000  0.5429410000000  0.6313860000000 1.0
C      1  0.4571080000000  0.5160800000000  0.3686140000000 1.0
C      1  0.5335950000000  0.5327410000000  0.5525050000000 1.0
C      1  0.4673090000000  0.5337040000000  0.4474950000000 1.0
C      1  0.4663460000000  0.4674180000000  0.5525050000000 1.0
C      1  0.5326310000000  0.4664550000000  0.4474950000000 1.0
C      1  0.5139720000000  0.5491690000000  0.4057370000000 1.0
C      1  0.4508810000000  0.5140810000000  0.5942630000000 1.0
C      1  0.4859680000000  0.4509900000000  0.4057370000000 1.0
C      1  0.5490590000000  0.4860780000000  0.5942630000000 1.0
C      1  0.6171870000000  0.4678740000000  0.4926520000000 1.0
C      1  0.5321760000000  0.6172970000000  0.5073480000000 1.0
C      1  0.3827530000000  0.5322850000000  0.4926520000000 1.0
C      1  0.4677640000000  0.3828620000000  0.5073480000000 1.0
C      1  0.3783420000000  0.5056920000000  0.5041790000000 1.0
C      1  0.4943580000000  0.3784510000000  0.4958210000000 1.0
C      1  0.6215980000000  0.4944680000000  0.5041790000000 1.0
C      1  0.5055820000000  0.6217080000000  0.4958210000000 1.0
C      1  0.4654030000000  0.5626070000000  0.4555150000000 1.0
C      1  0.4374430000000  0.4655130000000  0.5444860000000 1.0
C      1  0.5345370000000  0.4375530000000  0.4555150000000 1.0
C      1  0.5624970000000  0.5346460000000  0.5444850000000 1.0
C      1  0.5702870000000  0.5041130000000  0.4507770000000 1.0
C      1  0.4959370000000  0.5703960000000  0.5492230000000 1.0
C      1  0.4296540000000  0.4960460000000  0.4507770000000 1.0
C      1  0.5040030000000  0.4297630000000  0.5492230000000 1.0
C      1  0.5490660000000  0.5288440000000  0.4885750000000 1.0
C      1  0.4712060000000  0.5491760000000  0.5114240000000 1.0
C      1  0.4508740000000  0.4713150000000  0.4885760000000 1.0
C      1  0.5287350000000  0.4509830000000  0.5114250000000 1.0
C      1  0.4607800000000  0.4785780000000  0.6287560000000 1.0
C      1  0.5214710000000  0.4608890000000  0.3712440000000 1.0
C      1  0.5391610000000  0.5215810000000  0.6287560000000 1.0
C      1  0.4784690000000  0.5392700000000  0.3712440000000 1.0
C      1  0.5720760000000  0.4746080000000  0.5071850000000 1.0
C      1  0.5254420000000  0.5721860000000  0.4928150000000 1.0
C      1  0.4278640000000  0.5255510000000  0.5071850000000 1.0
C      1  0.4744980000000  0.4279740000000  0.4928150000000 1.0
C      1  0.4480540000000  0.5160590000000  0.4630810000000 1.0
C      1  0.4839910000000  0.4481630000000  0.5369190000000 1.0
C      1  0.5518860000000  0.4841000000000  0.4630810000000 1.0
C      1  0.5159490000000  0.5519960000000  0.5369190000000 1.0
C      1  0.4589030000000  0.4449720000000  0.4762470000000 1.0
C      1  0.5550770000000  0.4590120000000  0.5237530000000 1.0
C      1  0.5410370000000  0.5551870000000  0.4762470000000 1.0
C      1  0.4448630000000  0.5411470000000  0.5237530000000 1.0
C      1  0.3981420000000  0.4840330000000  0.4908400000000 1.0
C      1  0.5160170000000  0.3982520000000  0.5091600000000 1.0
C      1  0.6017980000000  0.5161270000000  0.4908400000000 1.0
C      1  0.4839230000000  0.6019070000000  0.5091600000000 1.0
C      1  0.5419460000000  0.5898090000000  0.5150550000000 1.0
C      1  0.4102410000000  0.5420560000000  0.4849450000000 1.0
C      1  0.4579940000000  0.4103500000000  0.5150560000000 1.0
C      1  0.5897000000000  0.4581030000000  0.4849440000000 1.0
C      1  0.4918310000000  0.4717850000000  0.3673980000000 1.0
C      1  0.5282650000000  0.4919410000000  0.6326020000000 1.0
C      1  0.5081090000000  0.5283740000000  0.3673980000000 1.0
C      1  0.4716760000000  0.5082190000000  0.6326020000000 1.0
C      1  0.5064880000000  0.4327600000000  0.5910280000000 1.0
C      1  0.5672900000000  0.5065980000000  0.4089720000000 1.0
C      1  0.4934520000000  0.5674000000000  0.5910280000000 1.0
C      1  0.4326500000000  0.4935610000000  0.4089720000000 1.0
C      1  0.6103710000000  0.5300750000000  0.5765640000000 1.0
C      1  0.4699740000000  0.6104800000000  0.4234350000000 1.0
C      1  0.3895700000000  0.4700840000000  0.5765650000000 1.0
C      1  0.5299660000000  0.3896790000000  0.4234360000000 1.0
C      1  0.4442110000000  0.4277250000000  0.4534390000000 1.0
C      1  0.5723250000000  0.4443200000000  0.5465610000000 1.0
C      1  0.5557290000000  0.5724340000000  0.4534390000000 1.0
C      1  0.4276160000000  0.5558390000000  0.5465610000000 1.0
C      1  0.5364620000000  0.5874040000000  0.5463620000000 1.0
C      1  0.4126460000000  0.5365710000000  0.4536380000000 1.0
C      1  0.4634780000000  0.4127560000000  0.5463620000000 1.0
C      1  0.5872940000000  0.4635880000000  0.4536380000000 1.0
C      1  0.5017770000000  0.4791960000000  0.6199370000000 1.0
C      1  0.5208530000000  0.5018860000000  0.3800630000000 1.0
C      1  0.4981630000000  0.5209630000000  0.6199370000000 1.0
C      1  0.4790870000000  0.4982730000000  0.3800630000000 1.0
C      1  0.5028000000000  0.4759480000000  0.4479900000000 1.0
C      1  0.5241010000000  0.5029100000000  0.5520100000000 1.0
C      1  0.4971400000000  0.5242110000000  0.4479900000000 1.0
C      1  0.4758390000000  0.4972500000000  0.5520100000000 1.0
C      1  0.4999700000000  0.5000800000000  0.4298920000000 1.0
C      1  0.4999700000000  0.5000800000000  0.5701080000000 1.0
END
