TITL C-862503-991-316 -0.00383404548783456 125000 -596.877711218001 0 0 101 (C3) n - 1
REM
REM in /home/nfs/bkarasulu/CARBON/AIRSS/Generating-Clusters/TERSOFF/Higher-Symm/FIRE-HFTN
REM
REM
REM
REM
REM
REM ./C.cell (b20cbc046b6831c77cfcea5457e17084)
REM AIRSS Version 0.9.1 bugfix July 2018 build 013d7b7c2542+ Fri, 06 Jul 2018 19:26:36 +0100
REM compiler GCC version 9.2.1 20190827 (Red Hat 9.2.1-1)
REM options -cpp -mtune=generic -march=x86-64 -g -O0 -fpre-include=/usr/include/finclude/math-vector-fortran.h
REM seed 88184372 1082948119 986892822 -1268954024 856886837 137994820 905965725 -1581757167 1615637503 1207978891 1757393492 1783763665 227290049 921358116 1030644438 -1508756243 -1581870258 -2131834563 -1017761569 -497687182 34155938 388139694 -2005790760 1778969731 -106848328 1527318530 609015179 -2074943605 494031838 1658029287 -78994170 -1118408568 1224227570
REM
CELL 1.54180   50.00000   50.00000   50.00000   90.00000   90.00000   90.00000
LATT -1
SFAC C  
C      1  0.5174820000000  0.4985160000000  0.4804590000000 1.0
C      1  0.4738610000000  0.4985160000000  0.4950850000000 1.0
C      1  0.5083380000000  0.4985170000000  0.5255480000000 1.0
C      1  0.4952290000000  0.5315000000000  0.4057680000000 1.0
C      1  0.4203040000000  0.5315040000000  0.5517010000000 1.0
C      1  0.5841480000000  0.5315020000000  0.5436210000000 1.0
C      1  0.4015970000000  0.5288840000000  0.5043810000000 1.0
C      1  0.5525220000000  0.5288840000000  0.5834820000000 1.0
C      1  0.5455630000000  0.5288810000000  0.4132270000000 1.0
C      1  0.4861190000000  0.5361520000000  0.5862970000000 1.0
C      1  0.5812030000000  0.5361490000000  0.4693260000000 1.0
C      1  0.4323610000000  0.5361500000000  0.4454660000000 1.0
C      1  0.4048820000000  0.5175020000000  0.5320870000000 1.0
C      1  0.5748730000000  0.5175010000000  0.5667850000000 1.0
C      1  0.5199270000000  0.5174980000000  0.4022190000000 1.0
C      1  0.4981490000000  0.4861460000000  0.5737840000000 1.0
C      1  0.5643490000000  0.4861430000000  0.4651650000000 1.0
C      1  0.4371830000000  0.4861440000000  0.4621440000000 1.0
C      1  0.5360420000000  0.4615550000000  0.5405820000000 1.0
C      1  0.5166480000000  0.4615540000000  0.4489510000000 1.0
C      1  0.4469900000000  0.4615560000000  0.5115620000000 1.0
C      1  0.5659770000000  0.5675400000000  0.5080940000000 1.0
C      1  0.4735490000000  0.5675400000000  0.4392670000000 1.0
C      1  0.4601570000000  0.5675420000000  0.5537260000000 1.0
C      1  0.5335350000000  0.5461520000000  0.5696640000000 1.0
C      1  0.5430900000000  0.5461490000000  0.4365790000000 1.0
C      1  0.4230580000000  0.5461520000000  0.4948470000000 1.0
C      1  0.4989590000000  0.5981880000000  0.5287230000000 1.0
C      1  0.5249240000000  0.5981860000000  0.4869920000000 1.0
C      1  0.4758010000000  0.5981870000000  0.4853710000000 1.0
C      1  0.5605750000000  0.5474670000000  0.4875730000000 1.0
C      1  0.4584770000000  0.5474670000000  0.4542070000000 1.0
C      1  0.4806300000000  0.5474690000000  0.5593100000000 1.0
C      1  0.5198180000000  0.4881280000000  0.4090170000000 1.0
C      1  0.4108220000000  0.4881310000000  0.5287840000000 1.0
C      1  0.5690410000000  0.4881300000000  0.5632930000000 1.0
C      1  0.5267510000000  0.5259350000000  0.5213630000000 1.0
C      1  0.5046520000000  0.5259340000000  0.4666050000000 1.0
C      1  0.4682790000000  0.5259360000000  0.5131220000000 1.0
C      1  0.4489560000000  0.5492690000000  0.5080630000000 1.0
C      1  0.5320310000000  0.5492690000000  0.5406270000000 1.0
C      1  0.5186960000000  0.5492670000000  0.4523990000000 1.0
C      1  0.5422310000000  0.5053790000000  0.5985550000000 1.0
C      1  0.5637610000000  0.5053750000000  0.4146030000000 1.0
C      1  0.3936890000000  0.5053780000000  0.4879340000000 1.0
C      1  0.5108320000000  0.4437990000000  0.5861720000000 1.0
C      1  0.5687350000000  0.4437950000000  0.4479880000000 1.0
C      1  0.4201120000000  0.4437970000000  0.4669350000000 1.0
C      1  0.4884550000000  0.4940550000000  0.5477430000000 1.0
C      1  0.5466440000000  0.4940530000000  0.4865820000000 1.0
C      1  0.4645820000000  0.4940530000000  0.4667680000000 1.0
C      1  0.4821720000000  0.4996580000000  0.4427930000000 1.0
C      1  0.4588970000000  0.4996610000000  0.5444970000000 1.0
C      1  0.5586130000000  0.4996590000000  0.5138020000000 1.0
C      1  0.4737460000000  0.5938280000000  0.5142110000000 1.0
C      1  0.5249620000000  0.5938270000000  0.5160830000000 1.0
C      1  0.5009760000000  0.5938260000000  0.4707930000000 1.0
C      1  0.5819020000000  0.4601300000000  0.5225300000000 1.0
C      1  0.4780840000000  0.4601290000000  0.4182610000000 1.0
C      1  0.4396940000000  0.4601320000000  0.5603040000000 1.0
C      1  0.4792840000000  0.3997130000000  0.4822840000000 1.0
C      1  0.4945370000000  0.3997140000000  0.5272550000000 1.0
C      1  0.5258570000000  0.3997130000000  0.4915600000000 1.0
C      1  0.5214580000000  0.4094600000000  0.5197480000000 1.0
C      1  0.5058950000000  0.4094590000000  0.4719990000000 1.0
C      1  0.4723250000000  0.4094600000000  0.5093510000000 1.0
C      1  0.4770390000000  0.5227680000000  0.4258230000000 1.0
C      1  0.4467670000000  0.5227710000000  0.5574270000000 1.0
C      1  0.5758760000000  0.5227690000000  0.5178410000000 1.0
C      1  0.5473420000000  0.4661830000000  0.4432550000000 1.0
C      1  0.4267100000000  0.4661850000000  0.4878280000000 1.0
C      1  0.5256280000000  0.4661860000000  0.5700120000000 1.0
C      1  0.5487570000000  0.4340090000000  0.4993500000000 1.0
C      1  0.4745820000000  0.4340090000000  0.4585560000000 1.0
C      1  0.4763400000000  0.4340110000000  0.5431900000000 1.0
C      1  0.5028830000000  0.4423010000000  0.4696050000000 1.0
C      1  0.4717590000000  0.4423020000000  0.5131560000000 1.0
C      1  0.5250370000000  0.4423020000000  0.5183350000000 1.0
C      1  0.5437250000000  0.5736780000000  0.5267280000000 1.0
C      1  0.5008130000000  0.5736770000000  0.4492220000000 1.0
C      1  0.4551460000000  0.5736790000000  0.5251380000000 1.0
C      1  0.5480130000000  0.4802360000000  0.4167400000000 1.0
C      1  0.4034130000000  0.4802390000000  0.5005040000000 1.0
C      1  0.5482550000000  0.4802390000000  0.5838490000000 1.0
C      1  0.4762560000000  0.5339380000000  0.4727230000000 1.0
C      1  0.4877750000000  0.5339390000000  0.5346550000000 1.0
C      1  0.5356510000000  0.5339380000000  0.4937130000000 1.0
C      1  0.4644300000000  0.4469650000000  0.5659280000000 1.0
C      1  0.5744040000000  0.4469630000000  0.4982960000000 1.0
C      1  0.4608460000000  0.4469630000000  0.4368720000000 1.0
C      1  0.4388320000000  0.4776060000000  0.5366740000000 1.0
C      1  0.5618690000000  0.4776050000000  0.5350910000000 1.0
C      1  0.4989790000000  0.4776030000000  0.4293290000000 1.0
C      1  0.5793950000000  0.5098350000000  0.4551750000000 1.0
C      1  0.4210080000000  0.5098370000000  0.4541090000000 1.0
C      1  0.4992790000000  0.5098390000000  0.5918080000000 1.0
C      1  0.4352350000000  0.4587470000000  0.4443520000000 1.0
C      1  0.4837140000000  0.4587490000000  0.5843670000000 1.0
C      1  0.5807310000000  0.4587460000000  0.4723760000000 1.0
C      1  0.4998930000000  0.4538550000000  0.5003650000000 1.0
C      1  0.4998940000000  0.4849550000000  0.5003640000000 1.0
END
