TITL C-862127-1500-726 3.55371412728383e-05 125000 -64.2254935887993 0 0 14 (C1) n - 1
REM
REM in /home/nfs/bkarasulu/CARBON/AIRSS/Generating-Clusters/TERSOFF/Higher-Symm/FIRE-HFTN
REM
REM
REM
REM
REM
REM ./C.cell (b20cbc046b6831c77cfcea5457e17084)
REM AIRSS Version 0.9.1 bugfix July 2018 build 013d7b7c2542+ Fri, 06 Jul 2018 19:26:36 +0100
REM compiler GCC version 9.2.1 20190827 (Red Hat 9.2.1-1)
REM options -cpp -mtune=generic -march=x86-64 -g -O0 -fpre-include=/usr/include/finclude/math-vector-fortran.h
REM seed -1595983568 -1248556310 1165767732 1113033746 -39541215 1077383219 -1291937386 568212767 301905126 -1000600849 108977960 857348354 -1328097238 1608925182 -482825319 -476643913 942050866 -2086031533 -1566312991 1322920422 1838459075 2051002285 883329578 1933534491 -149155851 -989537673 1616167244 -638628706 1541121587 -1228670880 -769890311 -558075186 -1585885787
REM
CELL 1.54180   50.00000   50.00000   50.00000   90.00000   90.00000   90.00000
LATT -1
SFAC C  
C      1  0.4699160000000  0.4887820000000  0.5226280000000 1.0
C      1  0.5043230000000  0.5233640000000  0.4658300000000 1.0
C      1  0.5326750000000  0.4629420000000  0.5007970000000 1.0
C      1  0.4928900000000  0.5608960000000  0.5203250000000 1.0
C      1  0.4856330000000  0.5204420000000  0.4886280000000 1.0
C      1  0.4775560000000  0.5463210000000  0.5005720000000 1.0
C      1  0.4821030000000  0.4585560000000  0.4891590000000 1.0
C      1  0.5330320000000  0.5200710000000  0.4674840000000 1.0
C      1  0.5518300000000  0.4715890000000  0.5207000000000 1.0
C      1  0.4576190000000  0.4757380000000  0.4965000000000 1.0
C      1  0.5485850000000  0.4947220000000  0.5377900000000 1.0
C      1  0.4612900000000  0.5024710000000  0.4817470000000 1.0
C      1  0.4963720000000  0.5000150000000  0.5104000000000 1.0
C      1  0.5061760000000  0.4740910000000  0.4974390000000 1.0
END
