TITL C-862128-1543-853 30.9140792034336 125000 -937.982296756898 0 0 163 (C1) n - 1
REM
REM in /home/nfs/bkarasulu/CARBON/AIRSS/Generating-Clusters/TERSOFF/Higher-Symm/FIRE-HFTN
REM
REM
REM
REM
REM
REM ./C.cell (b20cbc046b6831c77cfcea5457e17084)
REM AIRSS Version 0.9.1 bugfix July 2018 build 013d7b7c2542+ Fri, 06 Jul 2018 19:26:36 +0100
REM compiler GCC version 9.2.1 20190827 (Red Hat 9.2.1-1)
REM options -cpp -mtune=generic -march=x86-64 -g -O0 -fpre-include=/usr/include/finclude/math-vector-fortran.h
REM seed 1129686498 1362144074 -502352120 -1032302180 -1977736688 -124641454 1367971704 -919427606 -593979397 -1100543010 -1447842033 592226962 2107843723 -131831791 372813057 -1203462893 866066821 1243630706 -935009512 1645504815 -1369989880 1578909485 -1010880907 2111698279 -474165618 -35582839 1883952387 -757001236 375930282 6826269 -340704967 918967164 1388543337
REM
CELL 1.54180   50.00000   50.00000   50.00000   90.00000   90.00000   90.00000
LATT -1
SFAC C  
C      1  0.5620220000000  0.4971710000000  0.5774590000000 1.0
C      1  0.4044050000000  0.4276060000000  0.5269930000000 1.0
C      1  0.4568550000000  0.5201500000000  0.4438600000000 1.0
C      1  0.5492500000000  0.4429050000000  0.5743790000000 1.0
C      1  0.5685220000000  0.5499420000000  0.5822520000000 1.0
C      1  0.4351880000000  0.5086140000000  0.5743590000000 1.0
C      1  0.5640210000000  0.4264820000000  0.5145860000000 1.0
C      1  0.4540190000000  0.4267990000000  0.4687850000000 1.0
C      1  0.5329580000000  0.5633330000000  0.4274770000000 1.0
C      1  0.4626550000000  0.5421120000000  0.6040960000000 1.0
C      1  0.5465410000000  0.5702400000000  0.5774040000000 1.0
C      1  0.4142850000000  0.4945730000000  0.5588730000000 1.0
C      1  0.4681780000000  0.4601920000000  0.5557940000000 1.0
C      1  0.4864330000000  0.4533260000000  0.4718630000000 1.0
C      1  0.5300400000000  0.5091570000000  0.4027010000000 1.0
C      1  0.5005590000000  0.4216030000000  0.4127710000000 1.0
C      1  0.5410490000000  0.4895010000000  0.5531410000000 1.0
C      1  0.5354340000000  0.4637670000000  0.4589250000000 1.0
C      1  0.5109730000000  0.4949690000000  0.5511450000000 1.0
C      1  0.5186720000000  0.3851350000000  0.4791210000000 1.0
C      1  0.5702510000000  0.4638820000000  0.5697720000000 1.0
C      1  0.5406120000000  0.5883300000000  0.4742570000000 1.0
C      1  0.5401120000000  0.4560640000000  0.3964320000000 1.0
C      1  0.4773130000000  0.5590340000000  0.5836890000000 1.0
C      1  0.5476440000000  0.4853150000000  0.3934800000000 1.0
C      1  0.4635450000000  0.5717210000000  0.5595700000000 1.0
C      1  0.5153750000000  0.4258970000000  0.5027000000000 1.0
C      1  0.4819070000000  0.6120700000000  0.5329730000000 1.0
C      1  0.5157460000000  0.4485230000000  0.4421810000000 1.0
C      1  0.4461200000000  0.4940040000000  0.4128050000000 1.0
C      1  0.4903280000000  0.5095240000000  0.5675200000000 1.0
C      1  0.4697550000000  0.4287550000000  0.5507650000000 1.0
C      1  0.5257020000000  0.5636040000000  0.5977420000000 1.0
C      1  0.5377800000000  0.4597940000000  0.4881630000000 1.0
C      1  0.4678440000000  0.6028260000000  0.4883450000000 1.0
C      1  0.4451190000000  0.4556420000000  0.5210060000000 1.0
C      1  0.5990250000000  0.4919050000000  0.5397890000000 1.0
C      1  0.4982070000000  0.5414380000000  0.4622640000000 1.0
C      1  0.6037020000000  0.5033080000000  0.5128480000000 1.0
C      1  0.4586330000000  0.6118610000000  0.5145810000000 1.0
C      1  0.5945430000000  0.4959920000000  0.4564780000000 1.0
C      1  0.5879790000000  0.4413660000000  0.5248400000000 1.0
C      1  0.6128510000000  0.5183800000000  0.4621080000000 1.0
C      1  0.5438080000000  0.5980550000000  0.5054580000000 1.0
C      1  0.4137800000000  0.4654970000000  0.5595690000000 1.0
C      1  0.4192130000000  0.5933460000000  0.5430220000000 1.0
C      1  0.6037350000000  0.5463770000000  0.4589320000000 1.0
C      1  0.4185750000000  0.4732590000000  0.4543340000000 1.0
C      1  0.5176360000000  0.4038370000000  0.5203660000000 1.0
C      1  0.4592870000000  0.5818000000000  0.4409310000000 1.0
C      1  0.4942710000000  0.4907380000000  0.4352900000000 1.0
C      1  0.5479920000000  0.3907240000000  0.4797700000000 1.0
C      1  0.5116960000000  0.5889590000000  0.4702670000000 1.0
C      1  0.5216230000000  0.5269700000000  0.4607940000000 1.0
C      1  0.4349850000000  0.5366820000000  0.4349470000000 1.0
C      1  0.5233670000000  0.4542120000000  0.5674620000000 1.0
C      1  0.5092610000000  0.3790920000000  0.5069640000000 1.0
C      1  0.4832850000000  0.5961170000000  0.4277420000000 1.0
C      1  0.4069360000000  0.5611010000000  0.4721390000000 1.0
C      1  0.4481780000000  0.4429040000000  0.4268140000000 1.0
C      1  0.5867020000000  0.4698820000000  0.4940350000000 1.0
C      1  0.5458190000000  0.4160130000000  0.5612640000000 1.0
C      1  0.5092050000000  0.5814380000000  0.4163930000000 1.0
C      1  0.5870730000000  0.5442910000000  0.5590590000000 1.0
C      1  0.5061480000000  0.4670440000000  0.5875330000000 1.0
C      1  0.4725360000000  0.5084890000000  0.4220140000000 1.0
C      1  0.4536780000000  0.5828790000000  0.4717970000000 1.0
C      1  0.4192000000000  0.4512590000000  0.5348330000000 1.0
C      1  0.4703850000000  0.4203120000000  0.4248750000000 1.0
C      1  0.5301830000000  0.5349240000000  0.6067130000000 1.0
C      1  0.4933860000000  0.4647920000000  0.4191010000000 1.0
C      1  0.5523000000000  0.5711940000000  0.4514400000000 1.0
C      1  0.4626610000000  0.5542970000000  0.4005510000000 1.0
C      1  0.5671020000000  0.5289930000000  0.4321880000000 1.0
C      1  0.4469720000000  0.5040180000000  0.5343140000000 1.0
C      1  0.5109700000000  0.6073630000000  0.5174210000000 1.0
C      1  0.5657080000000  0.5296530000000  0.4786360000000 1.0
C      1  0.4457270000000  0.4647730000000  0.4066220000000 1.0
C      1  0.5874380000000  0.4638360000000  0.5447460000000 1.0
C      1  0.5442420000000  0.5365070000000  0.4132940000000 1.0
C      1  0.4322080000000  0.4664460000000  0.6061290000000 1.0
C      1  0.4809320000000  0.4931230000000  0.5121370000000 1.0
C      1  0.4300480000000  0.4925520000000  0.4719730000000 1.0
C      1  0.5375760000000  0.5256350000000  0.4834920000000 1.0
C      1  0.6213760000000  0.5693320000000  0.4590080000000 1.0
C      1  0.4168180000000  0.5124570000000  0.4187390000000 1.0
C      1  0.4307120000000  0.6118260000000  0.5232940000000 1.0
C      1  0.5220810000000  0.4990320000000  0.4296190000000 1.0
C      1  0.5735220000000  0.5480420000000  0.4555760000000 1.0
C      1  0.5533710000000  0.4923620000000  0.5256680000000 1.0
C      1  0.4679370000000  0.5564800000000  0.5324690000000 1.0
C      1  0.4205670000000  0.4516070000000  0.5842020000000 1.0
C      1  0.3903650000000  0.4625050000000  0.4934370000000 1.0
C      1  0.4882740000000  0.4824050000000  0.3929560000000 1.0
C      1  0.3939150000000  0.5279210000000  0.4344730000000 1.0
C      1  0.5616320000000  0.5366740000000  0.5430090000000 1.0
C      1  0.4897210000000  0.4822250000000  0.4652140000000 1.0
C      1  0.4721640000000  0.4085140000000  0.4531940000000 1.0
C      1  0.5022820000000  0.4023910000000  0.4595570000000 1.0
C      1  0.5967300000000  0.4285540000000  0.4365430000000 1.0
C      1  0.5400920000000  0.5791790000000  0.5491270000000 1.0
C      1  0.5112260000000  0.4476880000000  0.3996090000000 1.0
C      1  0.5630320000000  0.5188580000000  0.5214230000000 1.0
C      1  0.4156000000000  0.4173800000000  0.5018210000000 1.0
C      1  0.4274310000000  0.4236950000000  0.5814430000000 1.0
C      1  0.5165450000000  0.4183730000000  0.4391900000000 1.0
C      1  0.4440840000000  0.4099660000000  0.5058930000000 1.0
C      1  0.4901010000000  0.4407540000000  0.4988860000000 1.0
C      1  0.6109090000000  0.4419230000000  0.4581370000000 1.0
C      1  0.3969930000000  0.4905200000000  0.5082290000000 1.0
C      1  0.5001170000000  0.5571230000000  0.5241410000000 1.0
C      1  0.5696980000000  0.5009930000000  0.4415440000000 1.0
C      1  0.5195210000000  0.4081190000000  0.5489670000000 1.0
C      1  0.4809920000000  0.4548410000000  0.5954300000000 1.0
C      1  0.4538900000000  0.5040860000000  0.4662610000000 1.0
C      1  0.4385790000000  0.5491830000000  0.5129410000000 1.0
C      1  0.4457550000000  0.5618790000000  0.4231220000000 1.0
C      1  0.5592570000000  0.4709600000000  0.5049630000000 1.0
C      1  0.5841160000000  0.5231880000000  0.5011680000000 1.0
C      1  0.4986170000000  0.5683800000000  0.4552820000000 1.0
C      1  0.4605390000000  0.4678850000000  0.6114130000000 1.0
C      1  0.4992700000000  0.5746670000000  0.5964120000000 1.0
C      1  0.5203460000000  0.4560970000000  0.5383240000000 1.0
C      1  0.5063150000000  0.5152550000000  0.6068800000000 1.0
C      1  0.4635120000000  0.4303220000000  0.5165920000000 1.0
C      1  0.4812660000000  0.5315680000000  0.4823220000000 1.0
C      1  0.5257520000000  0.5401450000000  0.5097750000000 1.0
C      1  0.5172830000000  0.4879140000000  0.6043910000000 1.0
C      1  0.4295440000000  0.4440010000000  0.4558560000000 1.0
C      1  0.4733150000000  0.5145600000000  0.6066470000000 1.0
C      1  0.5600840000000  0.4171440000000  0.4861320000000 1.0
C      1  0.5873480000000  0.5696590000000  0.5392940000000 1.0
C      1  0.5605480000000  0.5787070000000  0.5269460000000 1.0
C      1  0.4947520000000  0.4156920000000  0.5630920000000 1.0
C      1  0.4017310000000  0.5087660000000  0.5356020000000 1.0
C      1  0.3956150000000  0.5359010000000  0.4625760000000 1.0
C      1  0.5882080000000  0.5100390000000  0.5616320000000 1.0
C      1  0.5870000000000  0.4416360000000  0.4124980000000 1.0
C      1  0.5062110000000  0.5039960000000  0.3854730000000 1.0
C      1  0.4090330000000  0.5398760000000  0.5316460000000 1.0
C      1  0.4789540000000  0.5306830000000  0.4029010000000 1.0
C      1  0.4958060000000  0.4559730000000  0.5245260000000 1.0
C      1  0.5656370000000  0.4350580000000  0.4640190000000 1.0
C      1  0.4969880000000  0.6032130000000  0.4895510000000 1.0
C      1  0.5569450000000  0.5250770000000  0.5953410000000 1.0
C      1  0.5520200000000  0.5569200000000  0.5074980000000 1.0
C      1  0.5061280000000  0.4966600000000  0.5231340000000 1.0
C      1  0.4766760000000  0.5020430000000  0.4847160000000 1.0
C      1  0.5429450000000  0.4889440000000  0.4463910000000 1.0
C      1  0.4459760000000  0.4134340000000  0.5618170000000 1.0
C      1  0.6003860000000  0.4458910000000  0.4849710000000 1.0
C      1  0.5131990000000  0.5818610000000  0.5363540000000 1.0
C      1  0.5613210000000  0.4363270000000  0.3999480000000 1.0
C      1  0.4082260000000  0.4841340000000  0.4295420000000 1.0
C      1  0.4188940000000  0.5037040000000  0.4948110000000 1.0
C      1  0.4632080000000  0.4984420000000  0.5812190000000 1.0
C      1  0.4979740000000  0.5353410000000  0.5797740000000 1.0
C      1  0.4384190000000  0.5179980000000  0.5112660000000 1.0
C      1  0.4333530000000  0.5640230000000  0.4850770000000 1.0
C      1  0.4099110000000  0.4399260000000  0.4826310000000 1.0
C      1  0.4609540000000  0.4791710000000  0.5310640000000 1.0
C      1  0.4777800000000  0.5981100000000  0.5576350000000 1.0
C      1  0.4346190000000  0.5776330000000  0.5621270000000 1.0
END
