TITL C-862130-1496-430 -0.008815636612643 125000 -189.917048718366 0 0 39 (Cs) n - 1
REM
REM in /home/nfs/bkarasulu/CARBON/AIRSS/Generating-Clusters/TERSOFF/Higher-Symm/FIRE-HFTN
REM
REM
REM
REM
REM
REM ./C.cell (b20cbc046b6831c77cfcea5457e17084)
REM AIRSS Version 0.9.1 bugfix July 2018 build 013d7b7c2542+ Fri, 06 Jul 2018 19:26:36 +0100
REM compiler GCC version 9.2.1 20190827 (Red Hat 9.2.1-1)
REM options -cpp -mtune=generic -march=x86-64 -g -O0 -fpre-include=/usr/include/finclude/math-vector-fortran.h
REM seed 1084303824 370344280 676988140 -925210328 1121355024 1863357343 -1293129734 -354168635 1659777286 2146886653 -1895060181 1313740028 -842415557 182378426 -771464803 -1483272692 359251806 -250088898 -1709410022 -226312804 -2114976003 -505079963 1367850747 -1238624527 -872067149 1970647619 1263646619 -1732756441 1053913154 -677527139 -2001267282 -43100081 740654011
REM
CELL 1.54180   50.00000   50.00000   50.00000   90.00000   90.00000   90.00000
LATT -1
SFAC C  
C      1  0.5028680000000  0.5502340000000  0.4779470000000 1.0
C      1  0.4569730000000  0.4783750000000  0.4801550000000 1.0
C      1  0.5412230000000  0.4717370000000  0.4801550000000 1.0
C      1  0.5028680000000  0.5502340000000  0.5243630000000 1.0
C      1  0.4569730000000  0.4783750000000  0.5221550000000 1.0
C      1  0.5412230000000  0.4717370000000  0.5221550000000 1.0
C      1  0.5043220000000  0.4488610000000  0.4781170000000 1.0
C      1  0.4555700000000  0.5219650000000  0.4781080000000 1.0
C      1  0.5403730000000  0.5282710000000  0.4801550000000 1.0
C      1  0.5043220000000  0.4488610000000  0.5241930000000 1.0
C      1  0.4555700000000  0.5219650000000  0.5242020000000 1.0
C      1  0.5403730000000  0.5282710000000  0.5221550000000 1.0
C      1  0.5286240000000  0.4851200000000  0.4565640000000 1.0
C      1  0.4990590000000  0.5317690000000  0.4544670000000 1.0
C      1  0.4741360000000  0.4825270000000  0.4560220000000 1.0
C      1  0.5286240000000  0.4851200000000  0.5457460000000 1.0
C      1  0.4990590000000  0.5317690000000  0.5478430000000 1.0
C      1  0.4741360000000  0.4825270000000  0.5462880000000 1.0
C      1  0.5283610000000  0.5145760000000  0.4564550000000 1.0
C      1  0.4996830000000  0.4675440000000  0.4549830000000 1.0
C      1  0.4733720000000  0.5166450000000  0.4544200000000 1.0
C      1  0.5283610000000  0.5145760000000  0.5458550000000 1.0
C      1  0.4996830000000  0.4675440000000  0.5473270000000 1.0
C      1  0.4733720000000  0.5166450000000  0.5478890000000 1.0
C      1  0.4569740000000  0.5167430000000  0.5760230000000 1.0
C      1  0.5070880000000  0.4540040000000  0.5760130000000 1.0
C      1  0.5333660000000  0.5293400000000  0.5731540000000 1.0
C      1  0.4569740000000  0.5167430000000  0.4262870000000 1.0
C      1  0.5070880000000  0.4540040000000  0.4262970000000 1.0
C      1  0.5333660000000  0.5293400000000  0.4291560000000 1.0
C      1  0.4582370000000  0.4863080000000  0.5730610000000 1.0
C      1  0.5074380000000  0.5453900000000  0.5761210000000 1.0
C      1  0.5329010000000  0.4702760000000  0.5730450000000 1.0
C      1  0.4582370000000  0.4863080000000  0.4292490000000 1.0
C      1  0.5074380000000  0.5453900000000  0.4261890000000 1.0
C      1  0.5329010000000  0.4702760000000  0.4292650000000 1.0
C      1  0.5236990000000  0.5454760000000  0.5011550000000 1.0
C      1  0.5252420000000  0.4539410000000  0.5011550000000 1.0
C      1  0.4499210000000  0.5012160000000  0.5011550000000 1.0
END
