TITL C-862502-1143-165 -8.98668071340856e-06 125000 -152.681402534191 0 0 30 (C2) n - 1
REM
REM in /home/nfs/bkarasulu/CARBON/AIRSS/Generating-Clusters/TERSOFF/Higher-Symm/FIRE-HFTN
REM
REM
REM
REM
REM
REM ./C.cell (b20cbc046b6831c77cfcea5457e17084)
REM AIRSS Version 0.9.1 bugfix July 2018 build 013d7b7c2542+ Fri, 06 Jul 2018 19:26:36 +0100
REM compiler GCC version 9.2.1 20190827 (Red Hat 9.2.1-1)
REM options -cpp -mtune=generic -march=x86-64 -g -O0 -fpre-include=/usr/include/finclude/math-vector-fortran.h
REM seed -747776108 845353350 1243875917 2147095306 -1753875929 -76830018 -1941666620 -977014115 -1976868490 1417168069 979368377 823382264 14288600 -136275606 1940181296 1771708252 1815585027 -947355459 1221594749 -2021240127 1464259249 -188597649 -34399899 829729726 -1345589461 -61026686 -1545324853 -1686117099 773912749 -1323530449 -1464519540 1252384090 -336521822
REM
CELL 1.54180   50.00000   50.00000   50.00000   90.00000   90.00000   90.00000
LATT -1
SFAC C  
C      1  0.5025760000000  0.4778990000000  0.5022580000000 1.0
C      1  0.4974240000000  0.5221010000000  0.5022580000000 1.0
C      1  0.4762390000000  0.5510700000000  0.4804880000000 1.0
C      1  0.5237610000000  0.4489300000000  0.4804880000000 1.0
C      1  0.5302210000000  0.5146980000000  0.5015710000000 1.0
C      1  0.4697790000000  0.4853020000000  0.5015710000000 1.0
C      1  0.5631420000000  0.4795180000000  0.4871610000000 1.0
C      1  0.4368580000000  0.5204820000000  0.4871610000000 1.0
C      1  0.5504190000000  0.4522270000000  0.4942520000000 1.0
C      1  0.4495810000000  0.5477730000000  0.4942520000000 1.0
C      1  0.5475510000000  0.4508120000000  0.5237060000000 1.0
C      1  0.4524490000000  0.5491880000000  0.5237060000000 1.0
C      1  0.4195180000000  0.5092380000000  0.5083150000000 1.0
C      1  0.5804820000000  0.4907620000000  0.5083150000000 1.0
C      1  0.5009990000000  0.5573390000000  0.5014530000000 1.0
C      1  0.4990010000000  0.4426610000000  0.5014530000000 1.0
C      1  0.5696070000000  0.4911330000000  0.5353130000000 1.0
C      1  0.4303930000000  0.5088670000000  0.5353130000000 1.0
C      1  0.5175040000000  0.4793540000000  0.4737160000000 1.0
C      1  0.4824960000000  0.5206460000000  0.4737160000000 1.0
C      1  0.4514220000000  0.4850120000000  0.4527130000000 1.0
C      1  0.5485780000000  0.5149880000000  0.4527130000000 1.0
C      1  0.5415120000000  0.4990290000000  0.4762270000000 1.0
C      1  0.4584880000000  0.5009710000000  0.4762270000000 1.0
C      1  0.4783190000000  0.5078360000000  0.5229250000000 1.0
C      1  0.5216810000000  0.4921640000000  0.5229250000000 1.0
C      1  0.5313800000000  0.5466960000000  0.5028930000000 1.0
C      1  0.4686200000000  0.4533040000000  0.5028930000000 1.0
C      1  0.5435560000000  0.4770160000000  0.5370070000000 1.0
C      1  0.4564440000000  0.5229840000000  0.5370070000000 1.0
END
