TITL C-862501-1041-219 -0.0010054403313305 125000 -667.687557324513 0 0 129 (C5) n - 1
REM
REM in /home/nfs/bkarasulu/CARBON/AIRSS/Generating-Clusters/TERSOFF/Higher-Symm/FIRE-HFTN
REM
REM
REM
REM
REM
REM ./C.cell (b20cbc046b6831c77cfcea5457e17084)
REM AIRSS Version 0.9.1 bugfix July 2018 build 013d7b7c2542+ Fri, 06 Jul 2018 19:26:36 +0100
REM compiler GCC version 9.2.1 20190827 (Red Hat 9.2.1-1)
REM options -cpp -mtune=generic -march=x86-64 -g -O0 -fpre-include=/usr/include/finclude/math-vector-fortran.h
REM seed -1877618701 143738885 1161896839 -1835308292 550866433 1535873642 1807228408 -2065969167 1923491398 -552697569 -1992141073 -317388999 109761154 -1681667955 403095733 -2061506228 684005855 -902163388 -1271340744 528720118 -596952916 -43697822 -659539031 -905600769 -280946748 -64627309 426567980 1957488940 636847528 -1278050694 -1638309440 677886937 240255113
REM
CELL 1.54180   50.00000   50.00000   50.00000   90.00000   90.00000   90.00000
LATT -1
SFAC C  
C      1  0.5498440000000  0.5563930000000  0.4827740000000 1.0
C      1  0.5695360000000  0.4701610000000  0.4827740000000 1.0
C      1  0.4936100000000  0.4247860000000  0.4827750000000 1.0
C      1  0.4269930000000  0.4829740000000  0.4827750000000 1.0
C      1  0.4617480000000  0.5643120000000  0.4827750000000 1.0
C      1  0.5341710000000  0.5106670000000  0.5863690000000 1.0
C      1  0.5212050000000  0.4709370000000  0.5863690000000 1.0
C      1  0.4794140000000  0.4709910000000  0.5863690000000 1.0
C      1  0.4665500000000  0.5107540000000  0.5863690000000 1.0
C      1  0.5003920000000  0.5352760000000  0.5863690000000 1.0
C      1  0.4816490000000  0.5185470000000  0.4104860000000 1.0
C      1  0.5124690000000  0.5233240000000  0.4104860000000 1.0
C      1  0.5265360000000  0.4954880000000  0.4104860000000 1.0
C      1  0.5044090000000  0.4735080000000  0.4104860000000 1.0
C      1  0.4766670000000  0.4877590000000  0.4104860000000 1.0
C      1  0.4652960000000  0.4946240000000  0.5547980000000 1.0
C      1  0.4846640000000  0.5314830000000  0.5547980000000 1.0
C      1  0.5257040000000  0.5244540000000  0.5547980000000 1.0
C      1  0.5317010000000  0.4832500000000  0.5547980000000 1.0
C      1  0.4943670000000  0.4648140000000  0.5547980000000 1.0
C      1  0.4903900000000  0.5237620000000  0.4995210000000 1.0
C      1  0.5201300000000  0.5166220000000  0.4995210000000 1.0
C      1  0.5225290000000  0.4861310000000  0.4995210000000 1.0
C      1  0.4942730000000  0.4744270000000  0.4995210000000 1.0
C      1  0.4744090000000  0.4976840000000  0.4995210000000 1.0
C      1  0.4528490000000  0.4583560000000  0.4863090000000 1.0
C      1  0.4463240000000  0.5321140000000  0.4863090000000 1.0
C      1  0.5144560000000  0.5611120000000  0.4863090000000 1.0
C      1  0.5630890000000  0.5052760000000  0.4863090000000 1.0
C      1  0.5250130000000  0.4417690000000  0.4863090000000 1.0
C      1  0.5683860000000  0.4940150000000  0.5208670000000 1.0
C      1  0.5159420000000  0.4332510000000  0.5208670000000 1.0
C      1  0.4419450000000  0.4643520000000  0.5208670000000 1.0
C      1  0.4486570000000  0.5443370000000  0.5208670000000 1.0
C      1  0.5268020000000  0.5626710000000  0.5208670000000 1.0
C      1  0.4709770000000  0.5038870000000  0.4488230000000 1.0
C      1  0.4952290000000  0.5289430000000  0.4488230000000 1.0
C      1  0.5265520000000  0.5136200000000  0.4488220000000 1.0
C      1  0.5216590000000  0.4790950000000  0.4488230000000 1.0
C      1  0.4873120000000  0.4730800000000  0.4488230000000 1.0
C      1  0.5404040000000  0.4790560000000  0.5246650000000 1.0
C      1  0.4930670000000  0.4552410000000  0.5246660000000 1.0
C      1  0.4557900000000  0.4929020000000  0.5246660000000 1.0
C      1  0.4800890000000  0.5399920000000  0.5246660000000 1.0
C      1  0.5323830000000  0.5314350000000  0.5246650000000 1.0
C      1  0.4854290000000  0.6005870000000  0.4622340000000 1.0
C      1  0.5916620000000  0.5450800000000  0.4622340000000 1.0
C      1  0.5716990000000  0.4268940000000  0.4622340000000 1.0
C      1  0.4531290000000  0.4093580000000  0.4622340000000 1.0
C      1  0.3998110000000  0.5167070000000  0.4622340000000 1.0
C      1  0.4325600000000  0.5076750000000  0.5086680000000 1.0
C      1  0.4869600000000  0.5666510000000  0.5086680000000 1.0
C      1  0.5598600000000  0.5331370000000  0.5086680000000 1.0
C      1  0.5505140000000  0.4534490000000  0.5086680000000 1.0
C      1  0.4718380000000  0.4377130000000  0.5086680000000 1.0
C      1  0.4896220000000  0.5424560000000  0.4747630000000 1.0
C      1  0.5376710000000  0.5231290000000  0.4747620000000 1.0
C      1  0.5341390000000  0.4714590000000  0.4747620000000 1.0
C      1  0.4839060000000  0.4588520000000  0.4747630000000 1.0
C      1  0.4563930000000  0.5027300000000  0.4747630000000 1.0
C      1  0.4344580000000  0.5767710000000  0.4986990000000 1.0
C      1  0.5532610000000  0.5861970000000  0.4986980000000 1.0
C      1  0.5989370000000  0.4761220000000  0.4986980000000 1.0
C      1  0.5083640000000  0.3986660000000  0.4986980000000 1.0
C      1  0.4067110000000  0.4608700000000  0.4986990000000 1.0
C      1  0.4445050000000  0.4274810000000  0.5241150000000 1.0
C      1  0.4143820000000  0.5305090000000  0.5241150000000 1.0
C      1  0.5030590000000  0.5909950000000  0.5241140000000 1.0
C      1  0.5879870000000  0.5253490000000  0.5241140000000 1.0
C      1  0.5517990000000  0.4242920000000  0.5241140000000 1.0
C      1  0.5528720000000  0.5562310000000  0.5548000000000 1.0
C      1  0.5703180000000  0.4672320000000  0.5548000000000 1.0
C      1  0.4910660000000  0.4231370000000  0.5548010000000 1.0
C      1  0.4246390000000  0.4848850000000  0.5548010000000 1.0
C      1  0.4628370000000  0.5671410000000  0.5548010000000 1.0
C      1  0.4520920000000  0.4757470000000  0.4241830000000 1.0
C      1  0.4626300000000  0.5382080000000  0.4241830000000 1.0
C      1  0.5252900000000  0.5474870000000  0.4241830000000 1.0
C      1  0.5534780000000  0.4907610000000  0.4241830000000 1.0
C      1  0.5082390000000  0.4464230000000  0.4241830000000 1.0
C      1  0.4530000000000  0.5340700000000  0.5654040000000 1.0
C      1  0.5183800000000  0.5553670000000  0.5654040000000 1.0
C      1  0.5588380000000  0.4997690000000  0.5654040000000 1.0
C      1  0.5184630000000  0.4441100000000  0.5654040000000 1.0
C      1  0.4530520000000  0.4653090000000  0.5654040000000 1.0
C      1  0.4756500000000  0.5636620000000  0.4346100000000 1.0
C      1  0.5535220000000  0.5429700000000  0.4346090000000 1.0
C      1  0.5579060000000  0.4625150000000  0.4346090000000 1.0
C      1  0.4827440000000  0.4334840000000  0.4346100000000 1.0
C      1  0.4319070000000  0.4959960000000  0.4346100000000 1.0
C      1  0.5659530000000  0.5585430000000  0.4570430000000 1.0
C      1  0.5765590000000  0.4555050000000  0.4570430000000 1.0
C      1  0.4818420000000  0.4135780000000  0.4570430000000 1.0
C      1  0.4126970000000  0.4907030000000  0.4570430000000 1.0
C      1  0.4646810000000  0.5802960000000  0.4570430000000 1.0
C      1  0.5600400000000  0.5747990000000  0.5288510000000 1.0
C      1  0.5901920000000  0.4661520000000  0.5288510000000 1.0
C      1  0.4961800000000  0.4039020000000  0.5288520000000 1.0
C      1  0.4079260000000  0.4740760000000  0.5288520000000 1.0
C      1  0.4473930000000  0.5796970000000  0.5288520000000 1.0
C      1  0.5684900000000  0.5267900000000  0.5514380000000 1.0
C      1  0.5471440000000  0.4432800000000  0.5514380000000 1.0
C      1  0.4611250000000  0.4377750000000  0.5514380000000 1.0
C      1  0.4293090000000  0.5178830000000  0.5514390000000 1.0
C      1  0.4956640000000  0.5728970000000  0.5514380000000 1.0
C      1  0.5352760000000  0.4411260000000  0.4371980000000 1.0
C      1  0.4554090000000  0.4483960000000  0.4371980000000 1.0
C      1  0.4376430000000  0.5266010000000  0.4371980000000 1.0
C      1  0.5065310000000  0.5676650000000  0.4371980000000 1.0
C      1  0.5668710000000  0.5148380000000  0.4371980000000 1.0
C      1  0.4211210000000  0.4333750000000  0.4972350000000 1.0
C      1  0.4127610000000  0.5545700000000  0.4972350000000 1.0
C      1  0.5254410000000  0.5999710000000  0.4972340000000 1.0
C      1  0.6034410000000  0.5068360000000  0.4972340000000 1.0
C      1  0.5389670000000  0.4038740000000  0.4972340000000 1.0
C      1  0.4373880000000  0.4354530000000  0.4657330000000 1.0
C      1  0.4197640000000  0.5397410000000  0.4657330000000 1.0
C      1  0.5135020000000  0.5887280000000  0.4657330000000 1.0
C      1  0.5890590000000  0.5147170000000  0.4657330000000 1.0
C      1  0.5420180000000  0.4199870000000  0.4657330000000 1.0
C      1  0.4710680000000  0.6009440000000  0.5268830000000 1.0
C      1  0.5875640000000  0.5588490000000  0.5268820000000 1.0
C      1  0.5835280000000  0.4350470000000  0.5268820000000 1.0
C      1  0.4645380000000  0.4006280000000  0.5268830000000 1.0
C      1  0.3950340000000  0.5031580000000  0.5268830000000 1.0
C      1  0.5003460000000  0.4997250000000  0.5322570000000 1.0
C      1  0.5003460000000  0.4997250000000  0.4665680000000 1.0
C      1  0.5003460000000  0.4997250000000  0.5613580000000 1.0
C      1  0.5003470000000  0.4997250000000  0.5947830000000 1.0
END
