TITL C-862129-6180-86 0.0373756337174176 125000 -187.660268917888 0 0 38 (C1) n - 1
REM
REM in /home/nfs/bkarasulu/CARBON/AIRSS/Generating-Clusters/TERSOFF/Higher-Symm/FIRE-HFTN
REM
REM
REM
REM
REM
REM ./C.cell (b20cbc046b6831c77cfcea5457e17084)
REM AIRSS Version 0.9.1 bugfix July 2018 build 013d7b7c2542+ Fri, 06 Jul 2018 19:26:36 +0100
REM compiler GCC version 9.2.1 20190827 (Red Hat 9.2.1-1)
REM options -cpp -mtune=generic -march=x86-64 -g -O0 -fpre-include=/usr/include/finclude/math-vector-fortran.h
REM seed 497756640 -453266838 1033102584 75024099 164752157 -68345099 330450879 -1970266768 1195336397 491914361 940505766 -842955854 -1994418381 2140428992 2038618988 602578794 862277499 -2058760692 -1882913872 601622886 -929557171 1807649305 1821503686 708838932 1045978755 -609580528 -1382011423 204485765 98495935 204119888 1116765636 -2106629753 -744978712
REM
CELL 1.54180   50.00000   50.00000   50.00000   90.00000   90.00000   90.00000
LATT -1
SFAC C  
C      1  0.5416570000000  0.4933670000000  0.5096700000000 1.0
C      1  0.4747430000000  0.4641050000000  0.5082420000000 1.0
C      1  0.4828770000000  0.5366960000000  0.5078550000000 1.0
C      1  0.4873480000000  0.5415370000000  0.4558550000000 1.0
C      1  0.5459210000000  0.4875630000000  0.4577510000000 1.0
C      1  0.4698940000000  0.4638010000000  0.4560510000000 1.0
C      1  0.5287460000000  0.5033940000000  0.5346120000000 1.0
C      1  0.4887580000000  0.4700400000000  0.5338880000000 1.0
C      1  0.4798820000000  0.5213510000000  0.5332500000000 1.0
C      1  0.4982860000000  0.5274700000000  0.5570710000000 1.0
C      1  0.5238000000000  0.4841720000000  0.5580580000000 1.0
C      1  0.4735520000000  0.4837120000000  0.5568110000000 1.0
C      1  0.5003360000000  0.4621360000000  0.4607590000000 1.0
C      1  0.4705060000000  0.5159620000000  0.4595800000000 1.0
C      1  0.5320280000000  0.5148990000000  0.4611200000000 1.0
C      1  0.4985570000000  0.4560060000000  0.4917340000000 1.0
C      1  0.4647150000000  0.5202760000000  0.4903700000000 1.0
C      1  0.5372860000000  0.5174690000000  0.4922000000000 1.0
C      1  0.5180940000000  0.4598930000000  0.5369890000000 1.0
C      1  0.4563220000000  0.5009890000000  0.5351180000000 1.0
C      1  0.5227990000000  0.5339590000000  0.5365050000000 1.0
C      1  0.4556570000000  0.4865900000000  0.4671000000000 1.0
C      1  0.5136850000000  0.5423710000000  0.4680920000000 1.0
C      1  0.5329560000000  0.4642220000000  0.4692060000000 1.0
C      1  0.5145860000000  0.5417760000000  0.5028290000000 1.0
C      1  0.5304510000000  0.4634140000000  0.5038600000000 1.0
C      1  0.4546710000000  0.4888380000000  0.5017670000000 1.0
C      1  0.4822800000000  0.5135900000000  0.3588990000000 1.0
C      1  0.4958680000000  0.5226820000000  0.6175220000000 1.0
C      1  0.5010630000000  0.4976310000000  0.4562270000000 1.0
C      1  0.4956980000000  0.5229480000000  0.6464640000000 1.0
C      1  0.4953680000000  0.5199920000000  0.4080850000000 1.0
C      1  0.4974530000000  0.4988080000000  0.6012340000000 1.0
C      1  0.5007900000000  0.5215080000000  0.3796940000000 1.0
C      1  0.4981820000000  0.4985700000000  0.5719200000000 1.0
C      1  0.5002040000000  0.4979110000000  0.4907250000000 1.0
C      1  0.4994220000000  0.4981660000000  0.5221320000000 1.0
C      1  0.5018410000000  0.4973770000000  0.4249500000000 1.0
END
