TITL C-862134-6730-1222 -241299.061867274 125000 -1066.75625483876 0 0 182 (C1) n - 1
REM
REM in /home/nfs/bkarasulu/CARBON/AIRSS/Generating-Clusters/TERSOFF/Higher-Symm/FIRE-HFTN
REM
REM
REM
REM
REM
REM ./C.cell (b20cbc046b6831c77cfcea5457e17084)
REM AIRSS Version 0.9.1 bugfix July 2018 build 013d7b7c2542+ Fri, 06 Jul 2018 19:26:36 +0100
REM compiler GCC version 9.2.1 20190827 (Red Hat 9.2.1-1)
REM options -cpp -mtune=generic -march=x86-64 -g -O0 -fpre-include=/usr/include/finclude/math-vector-fortran.h
REM seed 390148330 -314003362 -1420051058 1250081208 -668596910 -106440950 -472263691 -1004933968 1245074653 -1145768445 -1496575047 2046478864 740160225 -303972473 2022220147 -1999178243 1596609059 1842239759 -266074201 631236449 1586244505 -1871823517 1564547602 -2033861976 -1290416328 1981288246 367221998 -777594755 -1601601247 2017492549 1468645624 1603864222 -2000519696
REM
CELL 1.54180   50.00000   50.00000   50.00000   90.00000   90.00000   90.00000
LATT -1
SFAC C  
C      1  0.4648820000000  0.4849180000000  0.6165930000000 1.0
C      1  0.3768900000000  0.4962800000000  0.4448560000000 1.0
C      1  0.5586460000000  0.5057380000000  0.4911800000000 1.0
C      1  0.4180640000000  0.4310330000000  0.5341850000000 1.0
C      1  0.4177470000000  0.4531450000000  0.4421660000000 1.0
C      1  0.4537180000000  0.5357430000000  0.6101490000000 1.0
C      1  0.5499630000000  0.5457550000000  0.3830940000000 1.0
C      1  0.4324400000000  0.5053120000000  0.4955870000000 1.0
C      1  0.4153420000000  0.5767910000000  0.5452120000000 1.0
C      1  0.4340740000000  0.4793040000000  0.5079000000000 1.0
C      1  0.4573580000000  0.4219420000000  0.5699400000000 1.0
C      1  0.4599860000000  0.5477290000000  0.4350550000000 1.0
C      1  0.4925780000000  0.4353590000000  0.4691010000000 1.0
C      1  0.5449800000000  0.4371740000000  0.4844620000000 1.0
C      1  0.6326600000000  0.5136490000000  0.5201100000000 1.0
C      1  0.4607610000000  0.4026350000000  0.4773250000000 1.0
C      1  0.5300990000000  0.4638770000000  0.5669610000000 1.0
C      1  0.5267480000000  0.5047550000000  0.4008020000000 1.0
C      1  0.6229590000000  0.4690940000000  0.4318130000000 1.0
C      1  0.5164550000000  0.4832290000000  0.5472630000000 1.0
C      1  0.4367930000000  0.4664680000000  0.4232990000000 1.0
C      1  0.4838170000000  0.4044860000000  0.5610580000000 1.0
C      1  0.4697680000000  0.5782180000000  0.4900550000000 1.0
C      1  0.4930090000000  0.4746270000000  0.5322480000000 1.0
C      1  0.3867860000000  0.4684050000000  0.5223150000000 1.0
C      1  0.5450130000000  0.5195320000000  0.5795860000000 1.0
C      1  0.5023980000000  0.4036460000000  0.5130590000000 1.0
C      1  0.4965800000000  0.5420560000000  0.3888870000000 1.0
C      1  0.5339680000000  0.4076860000000  0.4330440000000 1.0
C      1  0.4519750000000  0.4079290000000  0.5251500000000 1.0
C      1  0.4678490000000  0.4882360000000  0.3884140000000 1.0
C      1  0.5278880000000  0.4499910000000  0.3823030000000 1.0
C      1  0.5690240000000  0.5555480000000  0.4968150000000 1.0
C      1  0.4845450000000  0.4664900000000  0.3976780000000 1.0
C      1  0.5768950000000  0.4266300000000  0.4592980000000 1.0
C      1  0.4068000000000  0.5418400000000  0.4740900000000 1.0
C      1  0.5127460000000  0.4904930000000  0.6180140000000 1.0
C      1  0.5671120000000  0.4996650000000  0.5430220000000 1.0
C      1  0.5525250000000  0.6047520000000  0.4671250000000 1.0
C      1  0.4639970000000  0.5132890000000  0.6258430000000 1.0
C      1  0.5173720000000  0.5268160000000  0.4594170000000 1.0
C      1  0.5018290000000  0.5414320000000  0.5697810000000 1.0
C      1  0.5048530000000  0.5903940000000  0.5740150000000 1.0
C      1  0.4549280000000  0.5212670000000  0.4981930000000 1.0
C      1  0.4705210000000  0.5555890000000  0.4644030000000 1.0
C      1  0.4206390000000  0.5589290000000  0.5687250000000 1.0
C      1  0.5385520000000  0.3942060000000  0.4824070000000 1.0
C      1  0.4887330000000  0.5186390000000  0.5809920000000 1.0
C      1  0.5420470000000  0.5814550000000  0.4544420000000 1.0
C      1  0.5516110000000  0.3915220000000  0.5092420000000 1.0
C      1  0.5870000000000  0.4197600000000  0.5087460000000 1.0
C      1  0.4711100000000  0.5284090000000  0.4753770000000 1.0
C      1  0.5986870000000  0.5181760000000  0.5803850000000 1.0
C      1  0.4906640000000  0.5089980000000  0.4642130000000 1.0
C      1  0.4886170000000  0.3900740000000  0.5351910000000 1.0
C      1  0.5069290000000  0.5591060000000  0.4258120000000 1.0
C      1  0.4917750000000  0.5722400000000  0.4492270000000 1.0
C      1  0.4109300000000  0.4593350000000  0.5366820000000 1.0
C      1  0.5419340000000  0.4849320000000  0.6215320000000 1.0
C      1  0.5242170000000  0.5299360000000  0.3834110000000 1.0
C      1  0.4496550000000  0.6032470000000  0.4444230000000 1.0
C      1  0.4367980000000  0.4229160000000  0.4775190000000 1.0
C      1  0.4091760000000  0.5411560000000  0.4445050000000 1.0
C      1  0.5702340000000  0.5310170000000  0.4796020000000 1.0
C      1  0.5436230000000  0.5640480000000  0.5546210000000 1.0
C      1  0.5082720000000  0.3933360000000  0.4856710000000 1.0
C      1  0.5617350000000  0.4340790000000  0.5083100000000 1.0
C      1  0.4104340000000  0.4656070000000  0.4666340000000 1.0
C      1  0.5358760000000  0.4021710000000  0.5590770000000 1.0
C      1  0.4870500000000  0.4463750000000  0.5304920000000 1.0
C      1  0.5739590000000  0.5198930000000  0.4259850000000 1.0
C      1  0.5569270000000  0.4209940000000  0.5630700000000 1.0
C      1  0.4995740000000  0.5070670000000  0.4168570000000 1.0
C      1  0.5932520000000  0.4766140000000  0.5012060000000 1.0
C      1  0.5621320000000  0.4870260000000  0.5999340000000 1.0
C      1  0.5010440000000  0.4067400000000  0.4371370000000 1.0
C      1  0.6130550000000  0.4313320000000  0.4978130000000 1.0
C      1  0.5060200000000  0.5330640000000  0.5037470000000 1.0
C      1  0.4588050000000  0.5693060000000  0.5476740000000 1.0
C      1  0.5388890000000  0.6136860000000  0.4910680000000 1.0
C      1  0.5738450000000  0.4558760000000  0.4560510000000 1.0
C      1  0.4419750000000  0.6139540000000  0.5695000000000 1.0
C      1  0.5390340000000  0.4783220000000  0.3931670000000 1.0
C      1  0.5350910000000  0.5048360000000  0.5372290000000 1.0
C      1  0.6090110000000  0.5273320000000  0.5308560000000 1.0
C      1  0.5871820000000  0.5017290000000  0.6021270000000 1.0
C      1  0.5236630000000  0.4681740000000  0.4400470000000 1.0
C      1  0.4073910000000  0.5309970000000  0.5291710000000 1.0
C      1  0.4898740000000  0.5367060000000  0.5267590000000 1.0
C      1  0.4270930000000  0.4558020000000  0.4896250000000 1.0
C      1  0.5520570000000  0.4475850000000  0.5540800000000 1.0
C      1  0.5105690000000  0.4144580000000  0.5699350000000 1.0
C      1  0.4509500000000  0.4434640000000  0.4099760000000 1.0
C      1  0.4073680000000  0.5168680000000  0.4880090000000 1.0
C      1  0.4495850000000  0.5495790000000  0.5702260000000 1.0
C      1  0.4471890000000  0.5601790000000  0.5216460000000 1.0
C      1  0.5249920000000  0.5383900000000  0.4357650000000 1.0
C      1  0.4185350000000  0.5140880000000  0.5777090000000 1.0
C      1  0.4862920000000  0.4893070000000  0.5089940000000 1.0
C      1  0.5205720000000  0.5554640000000  0.4922450000000 1.0
C      1  0.5893370000000  0.5755960000000  0.5018150000000 1.0
C      1  0.4330450000000  0.5856170000000  0.4271790000000 1.0
C      1  0.5123420000000  0.4420790000000  0.5814640000000 1.0
C      1  0.4945360000000  0.4649700000000  0.4301490000000 1.0
C      1  0.5297910000000  0.5900090000000  0.5576250000000 1.0
C      1  0.5090900000000  0.6106180000000  0.4888100000000 1.0
C      1  0.5743180000000  0.5394260000000  0.3999780000000 1.0
C      1  0.6204350000000  0.4630530000000  0.5061740000000 1.0
C      1  0.4548480000000  0.5072380000000  0.5456880000000 1.0
C      1  0.5906720000000  0.4738480000000  0.4710220000000 1.0
C      1  0.4805410000000  0.6002990000000  0.4464270000000 1.0
C      1  0.5692240000000  0.4670170000000  0.4298750000000 1.0
C      1  0.5123340000000  0.4447900000000  0.4875720000000 1.0
C      1  0.4776340000000  0.4862390000000  0.4459860000000 1.0
C      1  0.6321230000000  0.4936290000000  0.4986140000000 1.0
C      1  0.4955470000000  0.6192840000000  0.4637670000000 1.0
C      1  0.4901660000000  0.4494510000000  0.5983050000000 1.0
C      1  0.5358450000000  0.4321670000000  0.4095280000000 1.0
C      1  0.4595900000000  0.5204150000000  0.5715300000000 1.0
C      1  0.4469900000000  0.5969240000000  0.4938700000000 1.0
C      1  0.4915750000000  0.4705930000000  0.6184120000000 1.0
C      1  0.6290840000000  0.5027110000000  0.4693690000000 1.0
C      1  0.4705930000000  0.5619810000000  0.6044050000000 1.0
C      1  0.4459630000000  0.4715340000000  0.5944770000000 1.0
C      1  0.4656380000000  0.5225860000000  0.5241480000000 1.0
C      1  0.5368830000000  0.3848330000000  0.5347820000000 1.0
C      1  0.4430910000000  0.6103720000000  0.5196750000000 1.0
C      1  0.5345070000000  0.6404250000000  0.5534930000000 1.0
C      1  0.4352500000000  0.4794300000000  0.5415740000000 1.0
C      1  0.3963110000000  0.5164590000000  0.4315350000000 1.0
C      1  0.5301230000000  0.5397580000000  0.5644200000000 1.0
C      1  0.5323700000000  0.4930050000000  0.4846480000000 1.0
C      1  0.4518900000000  0.4910400000000  0.4306070000000 1.0
C      1  0.5437980000000  0.4620490000000  0.4192290000000 1.0
C      1  0.3998660000000  0.5243710000000  0.5569780000000 1.0
C      1  0.4579180000000  0.5080020000000  0.4069230000000 1.0
C      1  0.5060620000000  0.5757030000000  0.5260650000000 1.0
C      1  0.4308810000000  0.4867930000000  0.5734370000000 1.0
C      1  0.4170040000000  0.5583850000000  0.5196870000000 1.0
C      1  0.3870170000000  0.4291430000000  0.4933770000000 1.0
C      1  0.4995660000000  0.4513240000000  0.3786000000000 1.0
C      1  0.5019070000000  0.5153410000000  0.6078820000000 1.0
C      1  0.4084250000000  0.5649070000000  0.4917260000000 1.0
C      1  0.4293630000000  0.4173930000000  0.5592200000000 1.0
C      1  0.4595840000000  0.4361670000000  0.5304870000000 1.0
C      1  0.4322310000000  0.5562390000000  0.4303900000000 1.0
C      1  0.5504010000000  0.4885930000000  0.5727480000000 1.0
C      1  0.5910510000000  0.5162930000000  0.5514270000000 1.0
C      1  0.5053720000000  0.4322370000000  0.5141750000000 1.0
C      1  0.5534050000000  0.6107460000000  0.5167200000000 1.0
C      1  0.4275210000000  0.4254240000000  0.4479630000000 1.0
C      1  0.4889850000000  0.4065540000000  0.4648310000000 1.0
C      1  0.5182500000000  0.5684100000000  0.4651550000000 1.0
C      1  0.5594390000000  0.4539770000000  0.5277110000000 1.0
C      1  0.5421400000000  0.5219550000000  0.4205380000000 1.0
C      1  0.5703910000000  0.5626880000000  0.5434270000000 1.0
C      1  0.4906840000000  0.5655580000000  0.5811730000000 1.0
C      1  0.4611040000000  0.3921550000000  0.5035440000000 1.0
C      1  0.5436150000000  0.5623050000000  0.5065440000000 1.0
C      1  0.4133040000000  0.4190950000000  0.5045400000000 1.0
C      1  0.5392280000000  0.6138250000000  0.5427100000000 1.0
C      1  0.4772740000000  0.5310420000000  0.4127630000000 1.0
C      1  0.5720670000000  0.4780840000000  0.5221810000000 1.0
C      1  0.6160590000000  0.5280530000000  0.4601860000000 1.0
C      1  0.5814830000000  0.6005340000000  0.5154190000000 1.0
C      1  0.3830140000000  0.4775210000000  0.4708660000000 1.0
C      1  0.5865760000000  0.5303020000000  0.4545030000000 1.0
C      1  0.4375690000000  0.6095640000000  0.4698610000000 1.0
C      1  0.4629870000000  0.4455520000000  0.5881230000000 1.0
C      1  0.5037640000000  0.4340590000000  0.4206610000000 1.0
C      1  0.5310490000000  0.4676230000000  0.4700060000000 1.0
C      1  0.6145170000000  0.4815970000000  0.4565370000000 1.0
C      1  0.4954450000000  0.5877010000000  0.5018740000000 1.0
C      1  0.5835080000000  0.4913840000000  0.4210300000000 1.0
C      1  0.4458680000000  0.4185530000000  0.4252630000000 1.0
C      1  0.3786780000000  0.4574750000000  0.4959300000000 1.0
C      1  0.5053080000000  0.5045980000000  0.4928680000000 1.0
C      1  0.3844020000000  0.5009820000000  0.4886310000000 1.0
C      1  0.5523090000000  0.4062490000000  0.4570990000000 1.0
C      1  0.4403320000000  0.5965590000000  0.5457990000000 1.0
C      1  0.4262600000000  0.5318420000000  0.6003120000000 1.0
C      1  0.6037640000000  0.4202470000000  0.4702440000000 1.0
END
