TITL C-862131-2149-768 4.52762371989767 125000 -918.308214832283 0 0 165 (C1) n - 1
REM
REM in /home/nfs/bkarasulu/CARBON/AIRSS/Generating-Clusters/TERSOFF/Higher-Symm/FIRE-HFTN
REM
REM
REM
REM
REM
REM ./C.cell (b20cbc046b6831c77cfcea5457e17084)
REM AIRSS Version 0.9.1 bugfix July 2018 build 013d7b7c2542+ Fri, 06 Jul 2018 19:26:36 +0100
REM compiler GCC version 9.2.1 20190827 (Red Hat 9.2.1-1)
REM options -cpp -mtune=generic -march=x86-64 -g -O0 -fpre-include=/usr/include/finclude/math-vector-fortran.h
REM seed 1577060695 1120046143 1118104985 -1637924525 1532952303 578566359 -322829357 -1061739150 495657261 -1550799789 1957502806 -123999609 1770202886 -1224915808 1016870762 -1254599436 -742732790 591483958 -1919867372 477864668 -539842948 -978927653 166396643 -44641656 1170830053 -1744694568 -1211682905 -1577620066 -1277460357 -1491951939 -999880435 -1207095329 480515160
REM
CELL 1.54180   50.00000   50.00000   50.00000   90.00000   90.00000   90.00000
LATT -1
SFAC C  
C      1  0.4026430000000  0.5136890000000  0.5522130000000 1.0
C      1  0.5967660000000  0.5136760000000  0.4479680000000 1.0
C      1  0.5973720000000  0.5133240000000  0.5524080000000 1.0
C      1  0.4018780000000  0.5139240000000  0.4496130000000 1.0
C      1  0.5637990000000  0.4513300000000  0.5795640000000 1.0
C      1  0.4352990000000  0.4515670000000  0.4235160000000 1.0
C      1  0.4310920000000  0.4529470000000  0.5829670000000 1.0
C      1  0.5676440000000  0.4523090000000  0.4177700000000 1.0
C      1  0.4686510000000  0.4040490000000  0.5370190000000 1.0
C      1  0.5310850000000  0.4014930000000  0.4631410000000 1.0
C      1  0.5229870000000  0.4003240000000  0.5366230000000 1.0
C      1  0.4762430000000  0.3999800000000  0.4655970000000 1.0
C      1  0.5372420000000  0.5752770000000  0.4866260000000 1.0
C      1  0.4626120000000  0.5758830000000  0.5144370000000 1.0
C      1  0.4622350000000  0.5760790000000  0.4866610000000 1.0
C      1  0.5377450000000  0.5750440000000  0.5143800000000 1.0
C      1  0.5255750000000  0.5256600000000  0.5206900000000 1.0
C      1  0.4733720000000  0.5267660000000  0.4791140000000 1.0
C      1  0.4733110000000  0.5263580000000  0.5211010000000 1.0
C      1  0.5245180000000  0.5263550000000  0.4787160000000 1.0
C      1  0.5889870000000  0.4549850000000  0.5247870000000 1.0
C      1  0.4106370000000  0.4550710000000  0.4767830000000 1.0
C      1  0.4096060000000  0.4551430000000  0.5243470000000 1.0
C      1  0.5908670000000  0.4548380000000  0.4770800000000 1.0
C      1  0.5348660000000  0.4393440000000  0.5240950000000 1.0
C      1  0.4660160000000  0.4431890000000  0.4772980000000 1.0
C      1  0.4627700000000  0.4462990000000  0.5280810000000 1.0
C      1  0.5368100000000  0.4417110000000  0.4737660000000 1.0
C      1  0.4437200000000  0.4907200000000  0.5253080000000 1.0
C      1  0.5588860000000  0.4925490000000  0.4740930000000 1.0
C      1  0.5561640000000  0.4918350000000  0.5246830000000 1.0
C      1  0.4432930000000  0.4916620000000  0.4754080000000 1.0
C      1  0.5400670000000  0.5510740000000  0.4722270000000 1.0
C      1  0.4588480000000  0.5514790000000  0.5283320000000 1.0
C      1  0.4584220000000  0.5517880000000  0.4725240000000 1.0
C      1  0.5405250000000  0.5505400000000  0.5284030000000 1.0
C      1  0.5470700000000  0.3983280000000  0.4887280000000 1.0
C      1  0.4523200000000  0.3995440000000  0.5123660000000 1.0
C      1  0.4604130000000  0.3868760000000  0.4870930000000 1.0
C      1  0.5391850000000  0.3871190000000  0.5152740000000 1.0
C      1  0.5277660000000  0.4647660000000  0.3838560000000 1.0
C      1  0.4710020000000  0.4656470000000  0.6165410000000 1.0
C      1  0.4714590000000  0.4634550000000  0.3851560000000 1.0
C      1  0.5271780000000  0.4636370000000  0.6175650000000 1.0
C      1  0.4611850000000  0.5108890000000  0.5992390000000 1.0
C      1  0.5383690000000  0.5103660000000  0.4005580000000 1.0
C      1  0.5402390000000  0.5089390000000  0.6012330000000 1.0
C      1  0.4597080000000  0.5091790000000  0.4014600000000 1.0
C      1  0.4798560000000  0.6215060000000  0.5266760000000 1.0
C      1  0.5215650000000  0.6215730000000  0.4750730000000 1.0
C      1  0.5218530000000  0.6211690000000  0.5266210000000 1.0
C      1  0.4795690000000  0.6218960000000  0.4750390000000 1.0
C      1  0.4582240000000  0.4434160000000  0.4041790000000 1.0
C      1  0.5407110000000  0.4433360000000  0.5988920000000 1.0
C      1  0.5433030000000  0.4442660000000  0.4001950000000 1.0
C      1  0.4554370000000  0.4449780000000  0.6005550000000 1.0
C      1  0.4782760000000  0.5305710000000  0.4376140000000 1.0
C      1  0.5204640000000  0.5317480000000  0.5618960000000 1.0
C      1  0.5201170000000  0.5313630000000  0.4372850000000 1.0
C      1  0.4786230000000  0.5311970000000  0.5624570000000 1.0
C      1  0.5568210000000  0.5479020000000  0.5748490000000 1.0
C      1  0.4420860000000  0.5485320000000  0.4267270000000 1.0
C      1  0.4427880000000  0.5493090000000  0.5742990000000 1.0
C      1  0.5563460000000  0.5490530000000  0.4260430000000 1.0
C      1  0.5814180000000  0.5025200000000  0.5744780000000 1.0
C      1  0.4181500000000  0.5027260000000  0.4280540000000 1.0
C      1  0.4180760000000  0.5041790000000  0.5751980000000 1.0
C      1  0.5812620000000  0.5039120000000  0.4250510000000 1.0
C      1  0.4147780000000  0.4841020000000  0.4762050000000 1.0
C      1  0.5847810000000  0.4839200000000  0.5252170000000 1.0
C      1  0.5872400000000  0.4838560000000  0.4759470000000 1.0
C      1  0.4147710000000  0.4840510000000  0.5250440000000 1.0
C      1  0.4153960000000  0.4739100000000  0.4192750000000 1.0
C      1  0.5839450000000  0.4736630000000  0.5834910000000 1.0
C      1  0.5853900000000  0.4762970000000  0.4136960000000 1.0
C      1  0.4137000000000  0.4769790000000  0.5870210000000 1.0
C      1  0.4697640000000  0.5654850000000  0.4159870000000 1.0
C      1  0.5294400000000  0.5652070000000  0.5855360000000 1.0
C      1  0.5289450000000  0.5660730000000  0.4154670000000 1.0
C      1  0.4703930000000  0.5657710000000  0.5847590000000 1.0
C      1  0.5864670000000  0.5337620000000  0.4669630000000 1.0
C      1  0.4125670000000  0.5342790000000  0.5335990000000 1.0
C      1  0.4119180000000  0.5346120000000  0.4680100000000 1.0
C      1  0.5870000000000  0.5336610000000  0.5337680000000 1.0
C      1  0.4774110000000  0.4684590000000  0.4677080000000 1.0
C      1  0.5292210000000  0.4633000000000  0.5396040000000 1.0
C      1  0.5278230000000  0.4667200000000  0.4626770000000 1.0
C      1  0.4792710000000  0.4698350000000  0.5332310000000 1.0
C      1  0.5603490000000  0.5219130000000  0.4142810000000 1.0
C      1  0.4390870000000  0.5220760000000  0.5856030000000 1.0
C      1  0.4384360000000  0.5206560000000  0.4161720000000 1.0
C      1  0.5612660000000  0.5206210000000  0.5863970000000 1.0
C      1  0.5150040000000  0.5880490000000  0.5707670000000 1.0
C      1  0.4844540000000  0.5883200000000  0.4304100000000 1.0
C      1  0.4852810000000  0.5884510000000  0.5705940000000 1.0
C      1  0.5141770000000  0.5886340000000  0.4301080000000 1.0
C      1  0.4372690000000  0.4335950000000  0.4482230000000 1.0
C      1  0.5619640000000  0.4326970000000  0.5554880000000 1.0
C      1  0.5679300000000  0.4339510000000  0.4419590000000 1.0
C      1  0.4314220000000  0.4355870000000  0.5581380000000 1.0
C      1  0.5227450000000  0.4260840000000  0.5821750000000 1.0
C      1  0.4763310000000  0.4264850000000  0.4209090000000 1.0
C      1  0.4719120000000  0.4275060000000  0.5827500000000 1.0
C      1  0.5270940000000  0.4265170000000  0.4180350000000 1.0
C      1  0.4733150000000  0.4850510000000  0.5931320000000 1.0
C      1  0.5265670000000  0.4846030000000  0.4068810000000 1.0
C      1  0.5273470000000  0.4837880000000  0.5946770000000 1.0
C      1  0.4726440000000  0.4838270000000  0.4078540000000 1.0
C      1  0.5630480000000  0.5481930000000  0.5452490000000 1.0
C      1  0.4354900000000  0.5497360000000  0.4561980000000 1.0
C      1  0.4361500000000  0.5496240000000  0.5449100000000 1.0
C      1  0.5627000000000  0.5489040000000  0.4556060000000 1.0
C      1  0.5450250000000  0.6027760000000  0.5245670000000 1.0
C      1  0.4558480000000  0.6041840000000  0.4768900000000 1.0
C      1  0.4562220000000  0.6037960000000  0.5247020000000 1.0
C      1  0.5445910000000  0.6030920000000  0.4767560000000 1.0
C      1  0.5371030000000  0.4153410000000  0.5584820000000 1.0
C      1  0.4623290000000  0.4166050000000  0.4449940000000 1.0
C      1  0.4562400000000  0.4185530000000  0.5595040000000 1.0
C      1  0.5433410000000  0.4163050000000  0.4405610000000 1.0
C      1  0.4101870000000  0.6149980000000  0.5012590000000 1.0
C      1  0.5910010000000  0.6124170000000  0.5002840000000 1.0
C      1  0.4592600000000  0.4913640000000  0.5001490000000 1.0
C      1  0.5432580000000  0.4945570000000  0.4987080000000 1.0
C      1  0.5002570000000  0.5812560000000  0.5320480000000 1.0
C      1  0.4997870000000  0.5814030000000  0.4688760000000 1.0
C      1  0.4989800000000  0.5514330000000  0.4567760000000 1.0
C      1  0.4999430000000  0.5510050000000  0.5422280000000 1.0
C      1  0.4994020000000  0.5539540000000  0.4054200000000 1.0
C      1  0.4995310000000  0.5539910000000  0.5958270000000 1.0
C      1  0.5503110000000  0.4387810000000  0.4994370000000 1.0
C      1  0.4502100000000  0.4401910000000  0.5021360000000 1.0
C      1  0.5795960000000  0.4413970000000  0.5005900000000 1.0
C      1  0.4206180000000  0.4413110000000  0.5007640000000 1.0
C      1  0.5020230000000  0.4380140000000  0.4256610000000 1.0
C      1  0.4975690000000  0.4383750000000  0.5764250000000 1.0
C      1  0.5037990000000  0.3889690000000  0.4587930000000 1.0
C      1  0.4948190000000  0.3898810000000  0.5422170000000 1.0
C      1  0.5005320000000  0.5147380000000  0.5812570000000 1.0
C      1  0.4993770000000  0.5142760000000  0.4188770000000 1.0
C      1  0.5620720000000  0.6115150000000  0.5005480000000 1.0
C      1  0.4390690000000  0.6131300000000  0.5010130000000 1.0
C      1  0.4993090000000  0.4792700000000  0.6255710000000 1.0
C      1  0.4991170000000  0.4785080000000  0.3757240000000 1.0
C      1  0.4080090000000  0.5284770000000  0.5008010000000 1.0
C      1  0.5916610000000  0.5281940000000  0.5005810000000 1.0
C      1  0.5963840000000  0.4981560000000  0.5010130000000 1.0
C      1  0.4042760000000  0.4984080000000  0.5006840000000 1.0
C      1  0.4999920000000  0.4835190000000  0.4246660000000 1.0
C      1  0.5013730000000  0.4837280000000  0.5765800000000 1.0
C      1  0.5003360000000  0.5092120000000  0.6143270000000 1.0
C      1  0.4988870000000  0.5085700000000  0.3863520000000 1.0
C      1  0.5028790000000  0.4707690000000  0.5502270000000 1.0
C      1  0.5014950000000  0.4714180000000  0.4513200000000 1.0
C      1  0.5105030000000  0.4176650000000  0.4959830000000 1.0
C      1  0.4999970000000  0.3906160000000  0.5005820000000 1.0
C      1  0.5005140000000  0.5238940000000  0.5002440000000 1.0
C      1  0.5008730000000  0.5955740000000  0.5007610000000 1.0
C      1  0.5060090000000  0.4696770000000  0.4984440000000 1.0
C      1  0.5007500000000  0.6285140000000  0.5008790000000 1.0
C      1  0.4885270000000  0.4935140000000  0.4998070000000 1.0
C      1  0.5118850000000  0.3649820000000  0.4922970000000 1.0
C      1  0.5011170000000  0.6596750000000  0.5011540000000 1.0
C      1  0.4973600000000  0.5538690000000  0.5004070000000 1.0
C      1  0.4975990000000  0.4423320000000  0.5049670000000 1.0
END
