TITL C-862501-1041-1107 -0.000227251574935917 125000 -438.603426781616 0 0 82 (C3) n - 1
REM
REM in /home/nfs/bkarasulu/CARBON/AIRSS/Generating-Clusters/TERSOFF/Higher-Symm/FIRE-HFTN
REM
REM
REM
REM
REM
REM ./C.cell (b20cbc046b6831c77cfcea5457e17084)
REM AIRSS Version 0.9.1 bugfix July 2018 build 013d7b7c2542+ Fri, 06 Jul 2018 19:26:36 +0100
REM compiler GCC version 9.2.1 20190827 (Red Hat 9.2.1-1)
REM options -cpp -mtune=generic -march=x86-64 -g -O0 -fpre-include=/usr/include/finclude/math-vector-fortran.h
REM seed 1330102179 -860353715 -511532396 1597047320 -351181008 -238892156 -331795851 -1665300603 903129038 1149057199 -256427044 -555586794 219971202 -21340780 -89544918 1684647194 -486712775 -2033488867 -1895358990 31639141 -1977048007 -174040652 1879474789 -1437734828 -1746339544 -969683373 2089826002 145548542 1189454424 -1045298636 -1327354210 94961056 1001259992
REM
CELL 1.54180   50.00000   50.00000   50.00000   90.00000   90.00000   90.00000
LATT -1
SFAC C  
C      1  0.5015770000000  0.5163030000000  0.5465910000000 1.0
C      1  0.5015770000000  0.4512550000000  0.4903770000000 1.0
C      1  0.5015770000000  0.5324620000000  0.4621500000000 1.0
C      1  0.4691030000000  0.5702680000000  0.5011360000000 1.0
C      1  0.4691030000000  0.4636370000000  0.5598390000000 1.0
C      1  0.4691030000000  0.4661150000000  0.4381420000000 1.0
C      1  0.5524020000000  0.4870110000000  0.4535750000000 1.0
C      1  0.5524020000000  0.5464550000000  0.5115160000000 1.0
C      1  0.5524020000000  0.4665540000000  0.5340260000000 1.0
C      1  0.4478260000000  0.5091740000000  0.5467600000000 1.0
C      1  0.4478260000000  0.4546730000000  0.4841180000000 1.0
C      1  0.4478260000000  0.5361730000000  0.4682390000000 1.0
C      1  0.5373320000000  0.5230390000000  0.4280580000000 1.0
C      1  0.5373320000000  0.5505390000000  0.5554760000000 1.0
C      1  0.5373320000000  0.4264420000000  0.5155820000000 1.0
C      1  0.4764150000000  0.5008790000000  0.5388680000000 1.0
C      1  0.4764150000000  0.4656550000000  0.4808800000000 1.0
C      1  0.4764150000000  0.5334860000000  0.4793690000000 1.0
C      1  0.4452460000000  0.5313720000000  0.5215630000000 1.0
C      1  0.4452460000000  0.4653940000000  0.5159400000000 1.0
C      1  0.4452460000000  0.5032530000000  0.4616130000000 1.0
C      1  0.5503280000000  0.5168880000000  0.5587920000000 1.0
C      1  0.5503280000000  0.4403950000000  0.4847820000000 1.0
C      1  0.5503280000000  0.5427360000000  0.4555420000000 1.0
C      1  0.4203110000000  0.5018550000000  0.4798670000000 1.0
C      1  0.4203110000000  0.5162630000000  0.5112260000000 1.0
C      1  0.4203110000000  0.4819020000000  0.5080240000000 1.0
C      1  0.5237530000000  0.4766830000000  0.5311840000000 1.0
C      1  0.5237530000000  0.4844070000000  0.4637680000000 1.0
C      1  0.5237530000000  0.5389290000000  0.5041650000000 1.0
C      1  0.5435140000000  0.4937780000000  0.4262990000000 1.0
C      1  0.5435140000000  0.5666920000000  0.5310150000000 1.0
C      1  0.5435140000000  0.4395490000000  0.5418030000000 1.0
C      1  0.5232060000000  0.5611120000000  0.4658580000000 1.0
C      1  0.5232060000000  0.4987670000000  0.5695480000000 1.0
C      1  0.5232060000000  0.4401410000000  0.4637110000000 1.0
C      1  0.5076490000000  0.5555210000000  0.5603110000000 1.0
C      1  0.5076490000000  0.4197630000000  0.5174800000000 1.0
C      1  0.5076490000000  0.5247350000000  0.4213260000000 1.0
C      1  0.4526650000000  0.4247950000000  0.4865090000000 1.0
C      1  0.4526650000000  0.5490410000000  0.4411690000000 1.0
C      1  0.4526650000000  0.5261840000000  0.5714390000000 1.0
C      1  0.4881430000000  0.4945250000000  0.4257710000000 1.0
C      1  0.4881430000000  0.5667770000000  0.5319250000000 1.0
C      1  0.4881430000000  0.4387180000000  0.5414200000000 1.0
C      1  0.4438360000000  0.5530800000000  0.4971520000000 1.0
C      1  0.4438360000000  0.4756810000000  0.5469450000000 1.0
C      1  0.4438360000000  0.4712590000000  0.4550190000000 1.0
C      1  0.5203550000000  0.4691160000000  0.5774110000000 1.0
C      1  0.5203540000000  0.4481570000000  0.4341010000000 1.0
C      1  0.5203550000000  0.5827470000000  0.4876050000000 1.0
C      1  0.4981400000000  0.4176730000000  0.4883880000000 1.0
C      1  0.4981400000000  0.5509750000000  0.4340610000000 1.0
C      1  0.4981400000000  0.5313720000000  0.5766680000000 1.0
C      1  0.4805220000000  0.4379050000000  0.4425940000000 1.0
C      1  0.4805230000000  0.5805170000000  0.4744800000000 1.0
C      1  0.4805230000000  0.4815970000000  0.5820430000000 1.0
C      1  0.5649730000000  0.4877010000000  0.5520250000000 1.0
C      1  0.5649730000000  0.4608490000000  0.4628890000000 1.0
C      1  0.5649730000000  0.5514700000000  0.4842030000000 1.0
C      1  0.5245580000000  0.5044590000000  0.5280760000000 1.0
C      1  0.5245580000000  0.4732100000000  0.4893760000000 1.0
C      1  0.5245580000000  0.5223500000000  0.4816640000000 1.0
C      1  0.5184290000000  0.4452190000000  0.5584450000000 1.0
C      1  0.5184290000000  0.4765300000000  0.4228890000000 1.0
C      1  0.5184290000000  0.5782700000000  0.5177830000000 1.0
C      1  0.4592370000000  0.5502550000000  0.5461190000000 1.0
C      1  0.4592370000000  0.4346880000000  0.5200150000000 1.0
C      1  0.4592370000000  0.5150770000000  0.4329830000000 1.0
C      1  0.4757970000000  0.4203420000000  0.4680360000000 1.0
C      1  0.4757970000000  0.5672660000000  0.4465490000000 1.0
C      1  0.4757970000000  0.5124120000000  0.5845320000000 1.0
C      1  0.5543100000000  0.5119080000000  0.4720700000000 1.0
C      1  0.5543100000000  0.5179890000000  0.5238300000000 1.0
C      1  0.5543100000000  0.4701230000000  0.5032170000000 1.0
C      1  0.4764530000000  0.4787590000000  0.5207620000000 1.0
C      1  0.4764530000000  0.4923950000000  0.4707770000000 1.0
C      1  0.4764530000000  0.5288650000000  0.5075780000000 1.0
C      1  0.5000700000000  0.5381320000000  0.5228550000000 1.0
C      1  0.5000700000000  0.4608960000000  0.5211490000000 1.0
C      1  0.5000700000000  0.5009920000000  0.4551130000000 1.0
C      1  0.5623780000000  0.5000060000000  0.4997060000000 1.0
END
