TITL C-862131-2149-418 0.0544859005908428 125000 -957.728275820608 0 0 168 (C1) n - 1
REM
REM in /home/nfs/bkarasulu/CARBON/AIRSS/Generating-Clusters/TERSOFF/Higher-Symm/FIRE-HFTN
REM
REM
REM
REM
REM
REM ./C.cell (b20cbc046b6831c77cfcea5457e17084)
REM AIRSS Version 0.9.1 bugfix July 2018 build 013d7b7c2542+ Fri, 06 Jul 2018 19:26:36 +0100
REM compiler GCC version 9.2.1 20190827 (Red Hat 9.2.1-1)
REM options -cpp -mtune=generic -march=x86-64 -g -O0 -fpre-include=/usr/include/finclude/math-vector-fortran.h
REM seed 447598511 625183341 -1528595081 -640971078 -1890940072 1127239955 877579822 2136231527 -578957500 185902365 2127064564 346692628 -1136649503 365355000 1837187265 251396720 995051370 -308307991 -2134271719 209261172 -923362134 1096536758 -626616874 -585521181 246711616 -304278394 1043903928 -1898546341 819583742 -1345010333 -400256320 -143708955 -596219247
REM
CELL 1.54180   50.00000   50.00000   50.00000   90.00000   90.00000   90.00000
LATT -1
SFAC C  
C      1  0.6015020000000  0.4981150000000  0.4574590000000 1.0
C      1  0.6014800000000  0.4661790000000  0.4751370000000 1.0
C      1  0.6020130000000  0.4595480000000  0.5110500000000 1.0
C      1  0.6016410000000  0.4837150000000  0.5383500000000 1.0
C      1  0.6018450000000  0.5201920000000  0.5366970000000 1.0
C      1  0.6012570000000  0.5414030000000  0.5070540000000 1.0
C      1  0.6013300000000  0.5316020000000  0.4718720000000 1.0
C      1  0.4312650000000  0.4848190000000  0.4440530000000 1.0
C      1  0.4308720000000  0.4466830000000  0.4769980000000 1.0
C      1  0.4311090000000  0.4487060000000  0.5273020000000 1.0
C      1  0.4307720000000  0.4893440000000  0.5571590000000 1.0
C      1  0.4310750000000  0.5379290000000  0.5439790000000 1.0
C      1  0.4309510000000  0.5579640000000  0.4977330000000 1.0
C      1  0.4311720000000  0.5343290000000  0.4532810000000 1.0
C      1  0.4593100000000  0.5587550000000  0.5045040000000 1.0
C      1  0.4595100000000  0.5399830000000  0.4569700000000 1.0
C      1  0.4596600000000  0.4910040000000  0.4419640000000 1.0
C      1  0.4592390000000  0.4488470000000  0.4705970000000 1.0
C      1  0.4594760000000  0.4451930000000  0.5217630000000 1.0
C      1  0.4591160000000  0.4825160000000  0.5565050000000 1.0
C      1  0.4594170000000  0.5331940000000  0.5486950000000 1.0
C      1  0.5361080000000  0.5309920000000  0.4827170000000 1.0
C      1  0.5371490000000  0.5056790000000  0.4651760000000 1.0
C      1  0.5343990000000  0.4763030000000  0.4739520000000 1.0
C      1  0.5373910000000  0.4648630000000  0.5022960000000 1.0
C      1  0.5341860000000  0.4797840000000  0.5289700000000 1.0
C      1  0.5371720000000  0.5099480000000  0.5339420000000 1.0
C      1  0.5348410000000  0.5328130000000  0.5134460000000 1.0
C      1  0.5821940000000  0.4540350000000  0.5399730000000 1.0
C      1  0.5823670000000  0.5031600000000  0.5607400000000 1.0
C      1  0.5820570000000  0.5496250000000  0.5358280000000 1.0
C      1  0.5817880000000  0.5588080000000  0.4832160000000 1.0
C      1  0.5822200000000  0.5241220000000  0.4428680000000 1.0
C      1  0.5818630000000  0.4710630000000  0.4459440000000 1.0
C      1  0.5825090000000  0.4397990000000  0.4892230000000 1.0
C      1  0.4199490000000  0.5828930000000  0.4847470000000 1.0
C      1  0.4203220000000  0.5398170000000  0.4256190000000 1.0
C      1  0.4201900000000  0.4669610000000  0.4224110000000 1.0
C      1  0.4198560000000  0.4185810000000  0.4779450000000 1.0
C      1  0.4199730000000  0.4316020000000  0.5495310000000 1.0
C      1  0.4197560000000  0.4965800000000  0.5843300000000 1.0
C      1  0.4200400000000  0.5635110000000  0.5556200000000 1.0
C      1  0.5811800000000  0.4404820000000  0.5879740000000 1.0
C      1  0.5832310000000  0.5319470000000  0.6016160000000 1.0
C      1  0.5817470000000  0.5994680000000  0.5383900000000 1.0
C      1  0.5827290000000  0.5921160000000  0.4460830000000 1.0
C      1  0.5827440000000  0.5159550000000  0.3934900000000 1.0
C      1  0.5811320000000  0.4273810000000  0.4219230000000 1.0
C      1  0.5830740000000  0.3934430000000  0.5081300000000 1.0
C      1  0.5739390000000  0.4845120000000  0.6067290000000 1.0
C      1  0.5759040000000  0.5742500000000  0.5795390000000 1.0
C      1  0.5744460000000  0.6079870000000  0.4913100000000 1.0
C      1  0.5751610000000  0.5613640000000  0.4095000000000 1.0
C      1  0.5764540000000  0.4680940000000  0.3958080000000 1.0
C      1  0.5742430000000  0.3991500000000  0.4606540000000 1.0
C      1  0.5764120000000  0.4058780000000  0.5542670000000 1.0
C      1  0.4904160000000  0.5189950000000  0.3940060000000 1.0
C      1  0.4885370000000  0.4277710000000  0.4177960000000 1.0
C      1  0.4902880000000  0.3920250000000  0.5050220000000 1.0
C      1  0.4884320000000  0.4357460000000  0.5886970000000 1.0
C      1  0.4901860000000  0.5287310000000  0.6043460000000 1.0
C      1  0.4889880000000  0.6001780000000  0.5427730000000 1.0
C      1  0.4896530000000  0.5957390000000  0.4486200000000 1.0
C      1  0.4609320000000  0.6022990000000  0.5559940000000 1.0
C      1  0.4610380000000  0.6068720000000  0.4544410000000 1.0
C      1  0.4620450000000  0.5307260000000  0.3883820000000 1.0
C      1  0.4605480000000  0.4320230000000  0.4050590000000 1.0
C      1  0.4614660000000  0.3842720000000  0.4954100000000 1.0
C      1  0.4604600000000  0.4223140000000  0.5873990000000 1.0
C      1  0.4613270000000  0.5211140000000  0.6139860000000 1.0
C      1  0.4703120000000  0.5492310000000  0.4313610000000 1.0
C      1  0.4703510000000  0.4766460000000  0.4187750000000 1.0
C      1  0.4696630000000  0.4215720000000  0.4671970000000 1.0
C      1  0.4701860000000  0.4257630000000  0.5408320000000 1.0
C      1  0.4695060000000  0.4852980000000  0.5838640000000 1.0
C      1  0.4701910000000  0.5561110000000  0.5633430000000 1.0
C      1  0.4697670000000  0.5847440000000  0.4956640000000 1.0
C      1  0.5148170000000  0.4081400000000  0.4581870000000 1.0
C      1  0.5170100000000  0.4132560000000  0.5453910000000 1.0
C      1  0.5145850000000  0.4794900000000  0.5989980000000 1.0
C      1  0.5168390000000  0.5633060000000  0.5746980000000 1.0
C      1  0.5151610000000  0.6003850000000  0.4976690000000 1.0
C      1  0.5162560000000  0.5598190000000  0.4212710000000 1.0
C      1  0.5169860000000  0.4749070000000  0.4050950000000 1.0
C      1  0.4083160000000  0.5680150000000  0.4329480000000 1.0
C      1  0.4079570000000  0.4900840000000  0.4050160000000 1.0
C      1  0.4081330000000  0.4195700000000  0.4486160000000 1.0
C      1  0.4075370000000  0.4096170000000  0.5308650000000 1.0
C      1  0.4079620000000  0.4678010000000  0.5899140000000 1.0
C      1  0.4076800000000  0.5502080000000  0.5812780000000 1.0
C      1  0.4078880000000  0.5947430000000  0.5113670000000 1.0
C      1  0.5353700000000  0.4257100000000  0.4422370000000 1.0
C      1  0.5380340000000  0.4098340000000  0.5216390000000 1.0
C      1  0.5351700000000  0.4602190000000  0.5852530000000 1.0
C      1  0.5379270000000  0.5410820000000  0.5831950000000 1.0
C      1  0.5359260000000  0.5919120000000  0.5197880000000 1.0
C      1  0.5372270000000  0.5725090000000  0.4410960000000 1.0
C      1  0.5379740000000  0.4988650000000  0.4070140000000 1.0
C      1  0.5338250000000  0.4565150000000  0.4500500000000 1.0
C      1  0.5432060000000  0.4347350000000  0.5030860000000 1.0
C      1  0.5330020000000  0.4608620000000  0.5534900000000 1.0
C      1  0.5428970000000  0.5172730000000  0.5632060000000 1.0
C      1  0.5356800000000  0.5609060000000  0.5265090000000 1.0
C      1  0.5405000000000  0.5583270000000  0.4690670000000 1.0
C      1  0.5428700000000  0.5114440000000  0.4354950000000 1.0
C      1  0.5213160000000  0.3890030000000  0.5059690000000 1.0
C      1  0.5192450000000  0.4345950000000  0.5928600000000 1.0
C      1  0.5212370000000  0.5305170000000  0.6070920000000 1.0
C      1  0.5197070000000  0.6048510000000  0.5429540000000 1.0
C      1  0.5206260000000  0.5983120000000  0.4458670000000 1.0
C      1  0.5212470000000  0.5188090000000  0.3902650000000 1.0
C      1  0.5193360000000  0.4240850000000  0.4156620000000 1.0
C      1  0.5838070000000  0.4556420000000  0.4205370000000 1.0
C      1  0.5841640000000  0.4102800000000  0.4851190000000 1.0
C      1  0.5839640000000  0.4327370000000  0.5607830000000 1.0
C      1  0.5841040000000  0.5057440000000  0.5903930000000 1.0
C      1  0.5839880000000  0.5746090000000  0.5520260000000 1.0
C      1  0.5838280000000  0.5870770000000  0.4741000000000 1.0
C      1  0.5842060000000  0.5346810000000  0.4149740000000 1.0
C      1  0.4892960000000  0.4898360000000  0.3978450000000 1.0
C      1  0.4869750000000  0.4121170000000  0.4428010000000 1.0
C      1  0.4893730000000  0.4026160000000  0.5325240000000 1.0
C      1  0.4867890000000  0.4635870000000  0.5984990000000 1.0
C      1  0.4892330000000  0.5532190000000  0.5879190000000 1.0
C      1  0.4874330000000  0.6034340000000  0.5134710000000 1.0
C      1  0.4885400000000  0.5744750000000  0.4281850000000 1.0
C      1  0.4485340000000  0.5452690000000  0.4107790000000 1.0
C      1  0.4481220000000  0.4588640000000  0.4086050000000 1.0
C      1  0.4478740000000  0.4027150000000  0.4761310000000 1.0
C      1  0.4479470000000  0.4197850000000  0.5604620000000 1.0
C      1  0.4477370000000  0.4982550000000  0.6002360000000 1.0
C      1  0.4481030000000  0.5767590000000  0.5646230000000 1.0
C      1  0.4478620000000  0.5980660000000  0.4797690000000 1.0
C      1  0.5646970000000  0.4938630000000  0.3939940000000 1.0
C      1  0.5629780000000  0.4145780000000  0.4396690000000 1.0
C      1  0.5648100000000  0.3983390000000  0.5295000000000 1.0
C      1  0.5628630000000  0.4605140000000  0.5964120000000 1.0
C      1  0.5646840000000  0.5515550000000  0.5923840000000 1.0
C      1  0.5633640000000  0.6035220000000  0.5170560000000 1.0
C      1  0.5641480000000  0.5786700000000  0.4291720000000 1.0
C      1  0.4959990000000  0.5339190000000  0.4205260000000 1.0
C      1  0.4953730000000  0.4575820000000  0.4239470000000 1.0
C      1  0.4955530000000  0.4139420000000  0.4838230000000 1.0
C      1  0.4951780000000  0.4352160000000  0.5582560000000 1.0
C      1  0.4953960000000  0.5031940000000  0.5876810000000 1.0
C      1  0.4953650000000  0.5707240000000  0.5503070000000 1.0
C      1  0.4954270000000  0.5844610000000  0.4769240000000 1.0
C      1  0.4161170000000  0.5196700000000  0.4732260000000 1.0
C      1  0.4162410000000  0.4913190000000  0.4679280000000 1.0
C      1  0.4159640000000  0.4694910000000  0.4868090000000 1.0
C      1  0.4161700000000  0.4706020000000  0.5156440000000 1.0
C      1  0.4159010000000  0.4938550000000  0.5327250000000 1.0
C      1  0.4161080000000  0.5217190000000  0.5252130000000 1.0
C      1  0.4160170000000  0.5331870000000  0.4987330000000 1.0
C      1  0.4012720000000  0.4466390000000  0.5689300000000 1.0
C      1  0.4008600000000  0.5207440000000  0.5846170000000 1.0
C      1  0.4012950000000  0.5790750000000  0.5367250000000 1.0
C      1  0.4012470000000  0.5777500000000  0.4609250000000 1.0
C      1  0.4014140000000  0.5182170000000  0.4146500000000 1.0
C      1  0.4014300000000  0.4447510000000  0.4326930000000 1.0
C      1  0.4008690000000  0.4128990000000  0.5013610000000 1.0
C      1  0.4750000000000  0.5232430000000  0.4755700000000 1.0
C      1  0.4751650000000  0.4951590000000  0.4666360000000 1.0
C      1  0.4749180000000  0.4706210000000  0.4829040000000 1.0
C      1  0.4750460000000  0.4682340000000  0.5122430000000 1.0
C      1  0.4748400000000  0.4895970000000  0.5325390000000 1.0
C      1  0.4749670000000  0.5187420000000  0.5283620000000 1.0
C      1  0.4749670000000  0.5337790000000  0.5030330000000 1.0
END
