TITL C-862131-2149-189 -27.5021535245914 125000 -1032.26271653045 0 0 172 (C1) n - 1
REM
REM in /home/nfs/bkarasulu/CARBON/AIRSS/Generating-Clusters/TERSOFF/Higher-Symm/FIRE-HFTN
REM
REM
REM
REM
REM
REM ./C.cell (b20cbc046b6831c77cfcea5457e17084)
REM AIRSS Version 0.9.1 bugfix July 2018 build 013d7b7c2542+ Fri, 06 Jul 2018 19:26:36 +0100
REM compiler GCC version 9.2.1 20190827 (Red Hat 9.2.1-1)
REM options -cpp -mtune=generic -march=x86-64 -g -O0 -fpre-include=/usr/include/finclude/math-vector-fortran.h
REM seed 1528157600 1728109628 -832379302 1716228509 1129016347 -453697348 152035481 1100308805 8801145 -1558177275 -738172862 -1795732880 -478452036 -1736702125 51644547 -1210635576 1393947741 -1414967565 792043672 826073413 -1774355310 -1849972828 746029580 -1045178738 963717141 -248632889 587153227 -107230684 -31187063 973730573 644290216 1099280470 -313592549
REM
CELL 1.54180   50.00000   50.00000   50.00000   90.00000   90.00000   90.00000
LATT -1
SFAC C  
C      1  0.4542390000000  0.5057850000000  0.5500440000000 1.0
C      1  0.5491260000000  0.5051540000000  0.5434120000000 1.0
C      1  0.5452300000000  0.5063650000000  0.4500870000000 1.0
C      1  0.4507710000000  0.5050680000000  0.4570030000000 1.0
C      1  0.5248470000000  0.5223620000000  0.5414330000000 1.0
C      1  0.5428330000000  0.5232690000000  0.4744110000000 1.0
C      1  0.4751070000000  0.5221900000000  0.4588550000000 1.0
C      1  0.4573500000000  0.5226950000000  0.5257160000000 1.0
C      1  0.5099590000000  0.5116530000000  0.5186240000000 1.0
C      1  0.5208310000000  0.5107270000000  0.4892500000000 1.0
C      1  0.4902170000000  0.5115500000000  0.4815700000000 1.0
C      1  0.4793780000000  0.5101090000000  0.5110420000000 1.0
C      1  0.6239470000000  0.5087190000000  0.5544010000000 1.0
C      1  0.5584800000000  0.5082190000000  0.3813150000000 1.0
C      1  0.3750600000000  0.5096080000000  0.4458770000000 1.0
C      1  0.4411540000000  0.5082020000000  0.6177740000000 1.0
C      1  0.4035530000000  0.5058400000000  0.5455520000000 1.0
C      1  0.5439560000000  0.5045620000000  0.5936980000000 1.0
C      1  0.5956270000000  0.5054590000000  0.4543470000000 1.0
C      1  0.4560170000000  0.5047030000000  0.4060380000000 1.0
C      1  0.5545200000000  0.4647120000000  0.4019240000000 1.0
C      1  0.4001060000000  0.4684400000000  0.4460360000000 1.0
C      1  0.4453020000000  0.4648930000000  0.5968550000000 1.0
C      1  0.5979410000000  0.4679790000000  0.5537110000000 1.0
C      1  0.5683630000000  0.3971940000000  0.4932480000000 1.0
C      1  0.4891280000000  0.3962140000000  0.4289660000000 1.0
C      1  0.4319790000000  0.3964170000000  0.5076370000000 1.0
C      1  0.5151240000000  0.3926000000000  0.5734730000000 1.0
C      1  0.4837140000000  0.3900260000000  0.5116860000000 1.0
C      1  0.5108710000000  0.3753820000000  0.5245380000000 1.0
C      1  0.5197680000000  0.3782250000000  0.4936740000000 1.0
C      1  0.4946350000000  0.3926470000000  0.4810490000000 1.0
C      1  0.5519270000000  0.4419880000000  0.5624450000000 1.0
C      1  0.5612660000000  0.4410760000000  0.4487270000000 1.0
C      1  0.4471130000000  0.4445440000000  0.4370490000000 1.0
C      1  0.4384930000000  0.4408340000000  0.5503150000000 1.0
C      1  0.3789600000000  0.5040350000000  0.4752050000000 1.0
C      1  0.4712150000000  0.5029010000000  0.6189720000000 1.0
C      1  0.6202840000000  0.5033610000000  0.5249700000000 1.0
C      1  0.5284770000000  0.5029420000000  0.3801130000000 1.0
C      1  0.4558990000000  0.3841030000000  0.5195370000000 1.0
C      1  0.5264230000000  0.3851400000000  0.5474890000000 1.0
C      1  0.5473300000000  0.3793780000000  0.4833030000000 1.0
C      1  0.4809290000000  0.3861720000000  0.4555870000000 1.0
C      1  0.4138430000000  0.4369560000000  0.5349310000000 1.0
C      1  0.5365010000000  0.4379410000000  0.5873380000000 1.0
C      1  0.5857080000000  0.4369760000000  0.4644170000000 1.0
C      1  0.4628370000000  0.4385250000000  0.4127320000000 1.0
C      1  0.5490720000000  0.4377150000000  0.5127180000000 1.0
C      1  0.5121210000000  0.4411890000000  0.4500080000000 1.0
C      1  0.4504890000000  0.4403420000000  0.4865050000000 1.0
C      1  0.4876150000000  0.4378930000000  0.5492130000000 1.0
C      1  0.5819000000000  0.4441720000000  0.5622680000000 1.0
C      1  0.5609680000000  0.4412420000000  0.4189330000000 1.0
C      1  0.4171370000000  0.4452910000000  0.4375350000000 1.0
C      1  0.4389480000000  0.4412710000000  0.5800950000000 1.0
C      1  0.5107600000000  0.4234580000000  0.5403960000000 1.0
C      1  0.5372470000000  0.4251690000000  0.4896260000000 1.0
C      1  0.4885640000000  0.4273820000000  0.4583060000000 1.0
C      1  0.4619470000000  0.4258260000000  0.5086230000000 1.0
C      1  0.4274430000000  0.5157520000000  0.4440910000000 1.0
C      1  0.4419840000000  0.5173390000000  0.5733060000000 1.0
C      1  0.5725530000000  0.5159220000000  0.5560780000000 1.0
C      1  0.5577640000000  0.5173200000000  0.4266970000000 1.0
C      1  0.5435810000000  0.5949400000000  0.5535390000000 1.0
C      1  0.5535070000000  0.5957260000000  0.4564540000000 1.0
C      1  0.4564390000000  0.5948390000000  0.4463130000000 1.0
C      1  0.4466120000000  0.5956110000000  0.5433070000000 1.0
C      1  0.4109090000000  0.4103630000000  0.5227550000000 1.0
C      1  0.5280740000000  0.4104040000000  0.5929120000000 1.0
C      1  0.5886240000000  0.4103000000000  0.4764400000000 1.0
C      1  0.4716220000000  0.4104930000000  0.4098400000000 1.0
C      1  0.4863450000000  0.5652300000000  0.5208160000000 1.0
C      1  0.5208680000000  0.5654770000000  0.5135730000000 1.0
C      1  0.5137770000000  0.5655920000000  0.4790080000000 1.0
C      1  0.4793000000000  0.5654100000000  0.4862880000000 1.0
C      1  0.4904150000000  0.5410700000000  0.3949980000000 1.0
C      1  0.3955720000000  0.5418910000000  0.5100530000000 1.0
C      1  0.5095690000000  0.5409650000000  0.6046130000000 1.0
C      1  0.6043040000000  0.5415210000000  0.4897830000000 1.0
C      1  0.4009170000000  0.5215030000000  0.4875360000000 1.0
C      1  0.4861860000000  0.5212290000000  0.5988830000000 1.0
C      1  0.5987450000000  0.5212730000000  0.5124030000000 1.0
C      1  0.5138960000000  0.5212330000000  0.4005450000000 1.0
C      1  0.5278080000000  0.4720110000000  0.3867040000000 1.0
C      1  0.3867750000000  0.4742270000000  0.4739690000000 1.0
C      1  0.4718290000000  0.4722650000000  0.6118160000000 1.0
C      1  0.6118380000000  0.4737010000000  0.5261370000000 1.0
C      1  0.4447160000000  0.5542650000000  0.4149070000000 1.0
C      1  0.4149400000000  0.5554050000000  0.5556390000000 1.0
C      1  0.5553000000000  0.5542000000000  0.5848900000000 1.0
C      1  0.5850120000000  0.5552300000000  0.4441890000000 1.0
C      1  0.5750960000000  0.5735810000000  0.5132730000000 1.0
C      1  0.5132060000000  0.5733970000000  0.4246910000000 1.0
C      1  0.4250770000000  0.5735720000000  0.4865400000000 1.0
C      1  0.4867900000000  0.5734260000000  0.5750880000000 1.0
C      1  0.4045830000000  0.5010170000000  0.4043130000000 1.0
C      1  0.3989090000000  0.4886930000000  0.5945210000000 1.0
C      1  0.5952280000000  0.4994880000000  0.5964240000000 1.0
C      1  0.6006470000000  0.4891340000000  0.4049790000000 1.0
C      1  0.5081940000000  0.6178360000000  0.5218910000000 1.0
C      1  0.5214620000000  0.6177560000000  0.4919440000000 1.0
C      1  0.4918230000000  0.6178200000000  0.4778850000000 1.0
C      1  0.4786120000000  0.6176700000000  0.5078370000000 1.0
C      1  0.5372520000000  0.4345730000000  0.5383140000000 1.0
C      1  0.5367090000000  0.4365990000000  0.4631930000000 1.0
C      1  0.4626220000000  0.4392260000000  0.4609740000000 1.0
C      1  0.4628850000000  0.4353230000000  0.5357700000000 1.0
C      1  0.4124980000000  0.5340580000000  0.4606590000000 1.0
C      1  0.4595230000000  0.5350220000000  0.5878980000000 1.0
C      1  0.5874490000000  0.5340630000000  0.5392790000000 1.0
C      1  0.5405010000000  0.5350050000000  0.4117650000000 1.0
C      1  0.4839750000000  0.5997890000000  0.4557300000000 1.0
C      1  0.4561640000000  0.6000900000000  0.5157460000000 1.0
C      1  0.5160440000000  0.5998170000000  0.5440480000000 1.0
C      1  0.5439820000000  0.6002440000000  0.4840490000000 1.0
C      1  0.4959840000000  0.4554100000000  0.6138680000000 1.0
C      1  0.6134420000000  0.4557280000000  0.5029690000000 1.0
C      1  0.5033250000000  0.4552990000000  0.3848350000000 1.0
C      1  0.3850240000000  0.4562490000000  0.4972650000000 1.0
C      1  0.4123930000000  0.4873620000000  0.5242170000000 1.0
C      1  0.5219640000000  0.4869890000000  0.5862930000000 1.0
C      1  0.5867190000000  0.4872040000000  0.4758380000000 1.0
C      1  0.4781030000000  0.4871700000000  0.4130490000000 1.0
C      1  0.5969680000000  0.5342540000000  0.4617090000000 1.0
C      1  0.4623880000000  0.5334060000000  0.4029370000000 1.0
C      1  0.4027220000000  0.5345980000000  0.5381220000000 1.0
C      1  0.5375560000000  0.5332980000000  0.5967200000000 1.0
C      1  0.5754360000000  0.5605490000000  0.5387790000000 1.0
C      1  0.5390690000000  0.5612700000000  0.4242110000000 1.0
C      1  0.4246380000000  0.5604980000000  0.4610780000000 1.0
C      1  0.4609300000000  0.5612610000000  0.5755280000000 1.0
C      1  0.5725060000000  0.4881300000000  0.3978170000000 1.0
C      1  0.3910590000000  0.4917220000000  0.4283720000000 1.0
C      1  0.4271230000000  0.4880290000000  0.6012940000000 1.0
C      1  0.6076710000000  0.4908040000000  0.5715900000000 1.0
C      1  0.4791450000000  0.4604110000000  0.4010350000000 1.0
C      1  0.4006140000000  0.4602020000000  0.5220830000000 1.0
C      1  0.5206570000000  0.4603340000000  0.5984810000000 1.0
C      1  0.5983330000000  0.4600250000000  0.4780350000000 1.0
C      1  0.5683340000000  0.4928740000000  0.6047600000000 1.0
C      1  0.6111340000000  0.4950960000000  0.4316670000000 1.0
C      1  0.4311390000000  0.4930770000000  0.3960520000000 1.0
C      1  0.3880350000000  0.4958860000000  0.5683540000000 1.0
C      1  0.4476770000000  0.5654100000000  0.4428440000000 1.0
C      1  0.4429280000000  0.5663970000000  0.5524280000000 1.0
C      1  0.5523970000000  0.5655250000000  0.5569960000000 1.0
C      1  0.5571010000000  0.5664730000000  0.4473110000000 1.0
C      1  0.5025790000000  0.5683330000000  0.5985720000000 1.0
C      1  0.5985130000000  0.5687380000000  0.4973430000000 1.0
C      1  0.4974210000000  0.5684020000000  0.4011910000000 1.0
C      1  0.4016120000000  0.5690180000000  0.5024500000000 1.0
C      1  0.4201640000000  0.5006070000000  0.4987080000000 1.0
C      1  0.4964310000000  0.5002550000000  0.5794990000000 1.0
C      1  0.5792330000000  0.5005640000000  0.5013660000000 1.0
C      1  0.5035260000000  0.5004750000000  0.4199960000000 1.0
C      1  0.5006450000000  0.5746080000000  0.5491880000000 1.0
C      1  0.5492710000000  0.5749450000000  0.4993390000000 1.0
C      1  0.4993830000000  0.5745880000000  0.4506070000000 1.0
C      1  0.4509010000000  0.5747860000000  0.5004970000000 1.0
C      1  0.5198470000000  0.4931550000000  0.4432730000000 1.0
C      1  0.4433730000000  0.4923070000000  0.4826100000000 1.0
C      1  0.4791740000000  0.4917890000000  0.5572990000000 1.0
C      1  0.5563330000000  0.4921900000000  0.5178500000000 1.0
C      1  0.5439460000000  0.5533890000000  0.4726790000000 1.0
C      1  0.4730890000000  0.5525210000000  0.4562920000000 1.0
C      1  0.4561420000000  0.5529730000000  0.5272170000000 1.0
C      1  0.5269840000000  0.5526610000000  0.5436410000000 1.0
C      1  0.4883000000000  0.4537770000000  0.5726200000000 1.0
C      1  0.5721230000000  0.4540350000000  0.5102460000000 1.0
C      1  0.5127070000000  0.4556750000000  0.4257520000000 1.0
C      1  0.4262220000000  0.4545720000000  0.4893360000000 1.0
END
