TITL C-862503-991-263 0.000140897430756975 125000 -414.571789289999 0 0 75 (C3h) n - 1
REM
REM in /home/nfs/bkarasulu/CARBON/AIRSS/Generating-Clusters/TERSOFF/Higher-Symm/FIRE-HFTN
REM
REM
REM
REM
REM
REM ./C.cell (b20cbc046b6831c77cfcea5457e17084)
REM AIRSS Version 0.9.1 bugfix July 2018 build 013d7b7c2542+ Fri, 06 Jul 2018 19:26:36 +0100
REM compiler GCC version 9.2.1 20190827 (Red Hat 9.2.1-1)
REM options -cpp -mtune=generic -march=x86-64 -g -O0 -fpre-include=/usr/include/finclude/math-vector-fortran.h
REM seed -724268370 1566655201 -1264025313 805938615 -1335092000 1716658640 -155363551 1071370334 329270443 1075898176 1213125463 1923465715 1013799082 -775588218 -1360440339 1946653547 -317152268 -2108997204 -341699957 -2010845936 1973976704 1449614745 -317933699 -90556671 116001832 -669967700 -1134376119 -1099826480 -471514630 86461855 -1958838063 -726778253 -247409130
REM
CELL 1.54180   50.00000   50.00000   50.00000   90.00000   90.00000   90.00000
LATT -1
SFAC C  
C      1  0.5538910000000  0.4993530000000  0.4699360000000 1.0
C      1  0.5538910000000  0.4742880000000  0.5155920000000 1.0
C      1  0.5538910000000  0.5263590000000  0.5144720000000 1.0
C      1  0.4482250000000  0.4993530000000  0.4699360000000 1.0
C      1  0.4482250000000  0.4742880000000  0.5155920000000 1.0
C      1  0.4482250000000  0.5263590000000  0.5144720000000 1.0
C      1  0.4496150000000  0.5492020000000  0.4966040000000 1.0
C      1  0.4496150000000  0.4724580000000  0.4590880000000 1.0
C      1  0.4496150000000  0.4783410000000  0.5443080000000 1.0
C      1  0.5525020000000  0.5492020000000  0.4966040000000 1.0
C      1  0.5525020000000  0.4724580000000  0.4590880000000 1.0
C      1  0.5525020000000  0.4783410000000  0.5443080000000 1.0
C      1  0.4221750000000  0.5097650000000  0.4778060000000 1.0
C      1  0.4221750000000  0.4758970000000  0.5026400000000 1.0
C      1  0.4221750000000  0.5143370000000  0.5195540000000 1.0
C      1  0.5799420000000  0.5097660000000  0.4778060000000 1.0
C      1  0.5799420000000  0.4758970000000  0.5026400000000 1.0
C      1  0.5799410000000  0.5143380000000  0.5195540000000 1.0
C      1  0.4864370000000  0.4427450000000  0.4448670000000 1.0
C      1  0.4864370000000  0.4808810000000  0.5771500000000 1.0
C      1  0.4864370000000  0.5763740000000  0.4779820000000 1.0
C      1  0.5156790000000  0.4427450000000  0.4448670000000 1.0
C      1  0.5156790000000  0.4808810000000  0.5771510000000 1.0
C      1  0.5156790000000  0.5763740000000  0.4779820000000 1.0
C      1  0.4620590000000  0.5251190000000  0.5620840000000 1.0
C      1  0.4620590000000  0.5412070000000  0.4472040000000 1.0
C      1  0.4620590000000  0.4336740000000  0.4907120000000 1.0
C      1  0.5400570000000  0.5251200000000  0.5620840000000 1.0
C      1  0.5400570000000  0.5412070000000  0.4472040000000 1.0
C      1  0.5400580000000  0.4336740000000  0.4907120000000 1.0
C      1  0.5298210000000  0.5195200000000  0.5323530000000 1.0
C      1  0.5298210000000  0.5182590000000  0.4669190000000 1.0
C      1  0.5298210000000  0.4622210000000  0.5007280000000 1.0
C      1  0.4722960000000  0.5195200000000  0.5323530000000 1.0
C      1  0.4722960000000  0.5182590000000  0.4669190000000 1.0
C      1  0.4722960000000  0.4622210000000  0.5007280000000 1.0
C      1  0.4834290000000  0.5661620000000  0.5296560000000 1.0
C      1  0.4834290000000  0.4926020000000  0.4278740000000 1.0
C      1  0.4834290000000  0.4412360000000  0.5424700000000 1.0
C      1  0.5186870000000  0.5661620000000  0.5296560000000 1.0
C      1  0.5186870000000  0.4926020000000  0.4278740000000 1.0
C      1  0.5186870000000  0.4412360000000  0.5424700000000 1.0
C      1  0.5611050000000  0.5038780000000  0.5556000000000 1.0
C      1  0.5611050000000  0.5462120000000  0.4688420000000 1.0
C      1  0.5611050000000  0.4499100000000  0.4755590000000 1.0
C      1  0.4410110000000  0.5038780000000  0.5555990000000 1.0
C      1  0.4410110000000  0.5462110000000  0.4688420000000 1.0
C      1  0.4410110000000  0.4499100000000  0.4755590000000 1.0
C      1  0.4760080000000  0.5082410000000  0.5827990000000 1.0
C      1  0.4760080000000  0.5675850000000  0.4514630000000 1.0
C      1  0.4760080000000  0.4241730000000  0.4657380000000 1.0
C      1  0.5261090000000  0.5082410000000  0.5827990000000 1.0
C      1  0.5261090000000  0.5675850000000  0.4514630000000 1.0
C      1  0.5261090000000  0.4241730000000  0.4657380000000 1.0
C      1  0.5156010000000  0.5282170000000  0.4915020000000 1.0
C      1  0.5156010000000  0.4785320000000  0.4798130000000 1.0
C      1  0.5156010000000  0.4932510000000  0.5286850000000 1.0
C      1  0.4865160000000  0.5282170000000  0.4915020000000 1.0
C      1  0.4865160000000  0.4785320000000  0.4798130000000 1.0
C      1  0.4865160000000  0.4932510000000  0.5286850000000 1.0
C      1  0.5356230000000  0.5193710000000  0.4241130000000 1.0
C      1  0.5356230000000  0.4245940000000  0.5211680000000 1.0
C      1  0.5356230000000  0.5560350000000  0.5547190000000 1.0
C      1  0.4664940000000  0.5193710000000  0.4241130000000 1.0
C      1  0.4664940000000  0.4245940000000  0.5211680000000 1.0
C      1  0.4664940000000  0.5560350000000  0.5547190000000 1.0
C      1  0.4705370000000  0.5687670000000  0.5023020000000 1.0
C      1  0.4705370000000  0.4676100000000  0.4392950000000 1.0
C      1  0.4705370000000  0.4636230000000  0.5584030000000 1.0
C      1  0.5315790000000  0.5687670000000  0.5023020000000 1.0
C      1  0.5315800000000  0.4676100000000  0.4392950000000 1.0
C      1  0.5315800000000  0.4636230000000  0.5584030000000 1.0
C      1  0.5010580000000  0.5076460000000  0.4533000000000 1.0
C      1  0.5010580000000  0.5366200000000  0.5299710000000 1.0
C      1  0.5010580000000  0.4557340000000  0.5167280000000 1.0
END
