TITL C-862129-6180-1073 204242.232560061 125000 -627.354307715902 0 0 107 (C1) n - 1
REM
REM in /home/nfs/bkarasulu/CARBON/AIRSS/Generating-Clusters/TERSOFF/Higher-Symm/FIRE-HFTN
REM
REM
REM
REM
REM
REM ./C.cell (b20cbc046b6831c77cfcea5457e17084)
REM AIRSS Version 0.9.1 bugfix July 2018 build 013d7b7c2542+ Fri, 06 Jul 2018 19:26:36 +0100
REM compiler GCC version 9.2.1 20190827 (Red Hat 9.2.1-1)
REM options -cpp -mtune=generic -march=x86-64 -g -O0 -fpre-include=/usr/include/finclude/math-vector-fortran.h
REM seed -422550405 837468947 -483718340 1732637990 1446269223 274760353 -63224811 -1100261713 -1547148513 -454254738 -433897349 -948121268 -1086237292 1263218446 -1663718165 329128361 473501463 -2115025908 1774188597 1060758880 478265780 -603716001 -920444974 291528103 1295347482 1517350656 -1319036513 1683879802 2006203189 455147832 1110960016 -622694937 -348138520
REM
CELL 1.54180   50.00000   50.00000   50.00000   90.00000   90.00000   90.00000
LATT -1
SFAC C  
C      1  0.4733380000000  0.5136800000000  0.5877570000000 1.0
C      1  0.4350370000000  0.5821670000000  0.5222250000000 1.0
C      1  0.5227260000000  0.4137540000000  0.4754320000000 1.0
C      1  0.4548990000000  0.5479810000000  0.4560740000000 1.0
C      1  0.4579200000000  0.4897290000000  0.5770750000000 1.0
C      1  0.4440600000000  0.4925070000000  0.5489940000000 1.0
C      1  0.5383640000000  0.4196720000000  0.4512490000000 1.0
C      1  0.5286100000000  0.4374880000000  0.5763520000000 1.0
C      1  0.4021430000000  0.4226590000000  0.4956800000000 1.0
C      1  0.5097930000000  0.4525310000000  0.4658910000000 1.0
C      1  0.5166070000000  0.5809060000000  0.4666060000000 1.0
C      1  0.4825640000000  0.4877650000000  0.4460560000000 1.0
C      1  0.4096630000000  0.5262090000000  0.5295760000000 1.0
C      1  0.4878560000000  0.4659700000000  0.4239770000000 1.0
C      1  0.5618400000000  0.4840310000000  0.5631260000000 1.0
C      1  0.5635940000000  0.4315590000000  0.4581930000000 1.0
C      1  0.4906070000000  0.5742310000000  0.4781530000000 1.0
C      1  0.5309000000000  0.5924740000000  0.5330960000000 1.0
C      1  0.5126630000000  0.5031680000000  0.5259040000000 1.0
C      1  0.4648970000000  0.4786370000000  0.5019230000000 1.0
C      1  0.5061210000000  0.5742190000000  0.5733580000000 1.0
C      1  0.5919430000000  0.5526380000000  0.5563580000000 1.0
C      1  0.4503440000000  0.5441450000000  0.5549500000000 1.0
C      1  0.4989380000000  0.5104630000000  0.6033350000000 1.0
C      1  0.5230490000000  0.4786790000000  0.4604400000000 1.0
C      1  0.4770190000000  0.5123580000000  0.4034430000000 1.0
C      1  0.4241490000000  0.4703700000000  0.5445210000000 1.0
C      1  0.4545570000000  0.5507940000000  0.4272000000000 1.0
C      1  0.5217030000000  0.4649900000000  0.5792450000000 1.0
C      1  0.5028430000000  0.5581280000000  0.4175630000000 1.0
C      1  0.5616840000000  0.4611130000000  0.5403310000000 1.0
C      1  0.5750890000000  0.5654720000000  0.5360140000000 1.0
C      1  0.4871010000000  0.4239890000000  0.5522430000000 1.0
C      1  0.3900470000000  0.4655530000000  0.4701720000000 1.0
C      1  0.5029800000000  0.5250710000000  0.5082740000000 1.0
C      1  0.5922600000000  0.4804160000000  0.5002710000000 1.0
C      1  0.5506610000000  0.4776790000000  0.4495610000000 1.0
C      1  0.5772880000000  0.5183790000000  0.4640730000000 1.0
C      1  0.4672350000000  0.4871920000000  0.5307080000000 1.0
C      1  0.5252950000000  0.4281300000000  0.4252630000000 1.0
C      1  0.4342820000000  0.5213210000000  0.5442220000000 1.0
C      1  0.4496460000000  0.5954190000000  0.5000230000000 1.0
C      1  0.4011130000000  0.5149680000000  0.4784000000000 1.0
C      1  0.5663820000000  0.4693590000000  0.4923130000000 1.0
C      1  0.5166600000000  0.4672970000000  0.5044990000000 1.0
C      1  0.5345030000000  0.5359360000000  0.5404290000000 1.0
C      1  0.4826150000000  0.5769180000000  0.5285700000000 1.0
C      1  0.4295400000000  0.4416950000000  0.5490530000000 1.0
C      1  0.5448000000000  0.5036630000000  0.5301410000000 1.0
C      1  0.4550810000000  0.4936670000000  0.4542350000000 1.0
C      1  0.5644520000000  0.4590450000000  0.4653800000000 1.0
C      1  0.5036710000000  0.5264050000000  0.4085760000000 1.0
C      1  0.4937310000000  0.4871560000000  0.5417340000000 1.0
C      1  0.5844920000000  0.5030810000000  0.5653190000000 1.0
C      1  0.5670220000000  0.5004400000000  0.4436230000000 1.0
C      1  0.5380070000000  0.5429490000000  0.4456290000000 1.0
C      1  0.4972090000000  0.4737940000000  0.5685650000000 1.0
C      1  0.4519250000000  0.5242140000000  0.4150090000000 1.0
C      1  0.4721500000000  0.4213410000000  0.4486720000000 1.0
C      1  0.5167700000000  0.4564960000000  0.4178480000000 1.0
C      1  0.5353010000000  0.4388890000000  0.5291330000000 1.0
C      1  0.4755750000000  0.5679680000000  0.4170120000000 1.0
C      1  0.4792520000000  0.5485430000000  0.4714960000000 1.0
C      1  0.3980140000000  0.4513010000000  0.4940960000000 1.0
C      1  0.4479600000000  0.4943840000000  0.4828580000000 1.0
C      1  0.4387220000000  0.5059610000000  0.4337420000000 1.0
C      1  0.5678560000000  0.5198360000000  0.5177350000000 1.0
C      1  0.5066120000000  0.5809780000000  0.5450840000000 1.0
C      1  0.4389170000000  0.4382880000000  0.4827420000000 1.0
C      1  0.4681150000000  0.4700510000000  0.3757240000000 1.0
C      1  0.4791070000000  0.5886770000000  0.5006610000000 1.0
C      1  0.5347570000000  0.4756160000000  0.4050760000000 1.0
C      1  0.4773040000000  0.4827060000000  0.4001750000000 1.0
C      1  0.4940680000000  0.5238530000000  0.4797800000000 1.0
C      1  0.3837280000000  0.4937920000000  0.4690950000000 1.0
C      1  0.4940040000000  0.4826540000000  0.4938530000000 1.0
C      1  0.5163220000000  0.5484040000000  0.5204250000000 1.0
C      1  0.5819460000000  0.5312900000000  0.5737620000000 1.0
C      1  0.5395850000000  0.5816430000000  0.4855920000000 1.0
C      1  0.4574330000000  0.4501400000000  0.5013920000000 1.0
C      1  0.5228220000000  0.5672290000000  0.4400650000000 1.0
C      1  0.5267700000000  0.5097840000000  0.5919260000000 1.0
C      1  0.5891540000000  0.4661460000000  0.5274370000000 1.0
C      1  0.5345370000000  0.5436920000000  0.5684000000000 1.0
C      1  0.5675760000000  0.5486290000000  0.5136830000000 1.0
C      1  0.5404310000000  0.4851320000000  0.5826170000000 1.0
C      1  0.4553180000000  0.5685650000000  0.5394540000000 1.0
C      1  0.4239690000000  0.4098590000000  0.5098030000000 1.0
C      1  0.5059940000000  0.5038710000000  0.4577050000000 1.0
C      1  0.5566990000000  0.5385780000000  0.5857100000000 1.0
C      1  0.5600760000000  0.5420260000000  0.4649710000000 1.0
C      1  0.4465090000000  0.4207110000000  0.4614240000000 1.0
C      1  0.5181450000000  0.4365470000000  0.4973180000000 1.0
C      1  0.4732880000000  0.4643960000000  0.5818140000000 1.0
C      1  0.4703640000000  0.4177580000000  0.5292990000000 1.0
C      1  0.5944970000000  0.5084970000000  0.4873140000000 1.0
C      1  0.4888530000000  0.4447960000000  0.4469500000000 1.0
C      1  0.5184460000000  0.4259280000000  0.5517680000000 1.0
C      1  0.5227700000000  0.5191360000000  0.4370610000000 1.0
C      1  0.4260620000000  0.5108600000000  0.4924510000000 1.0
C      1  0.4412350000000  0.4230650000000  0.5291040000000 1.0
C      1  0.4648820000000  0.5396640000000  0.5792410000000 1.0
C      1  0.4717350000000  0.4358760000000  0.5746960000000 1.0
C      1  0.5424500000000  0.4796450000000  0.5079470000000 1.0
C      1  0.5333640000000  0.5048070000000  0.4085350000000 1.0
C      1  0.5581170000000  0.5882500000000  0.5430180000000 1.0
C      1  0.5589240000000  0.5595160000000  0.4879460000000 1.0
END
