TITL C-862505-1648-206 2.29733834672948e-05 125000 -197.412369719564 0 0 40 (D2d) n - 1
REM
REM in /home/nfs/bkarasulu/CARBON/AIRSS/Generating-Clusters/TERSOFF/Higher-Symm/FIRE-HFTN
REM
REM
REM
REM
REM
REM ./C.cell (b20cbc046b6831c77cfcea5457e17084)
REM AIRSS Version 0.9.1 bugfix July 2018 build 013d7b7c2542+ Fri, 06 Jul 2018 19:26:36 +0100
REM compiler GCC version 9.2.1 20190827 (Red Hat 9.2.1-1)
REM options -cpp -mtune=generic -march=x86-64 -g -O0 -fpre-include=/usr/include/finclude/math-vector-fortran.h
REM seed 1549831717 1815433562 905745256 -609310201 1385447365 -1667522439 -559317826 1929624306 -1545229508 1282839841 900892118 1337839272 -775720379 90319881 914270066 1343992505 -1362424090 -979143105 1342025543 1271990625 276891480 -1717306593 462829109 -1737937708 -2113096535 348308797 -127000276 -1743017016 735581996 298070926 -1178476309 -566971020 -299116418
REM
CELL 1.54180   50.00000   50.00000   50.00000   90.00000   90.00000   90.00000
LATT -1
SFAC C  
C      1  0.4305370000000  0.4711450000000  0.4919090000000 1.0
C      1  0.5694630000000  0.5288550000000  0.4919090000000 1.0
C      1  0.5694630000000  0.4711450000000  0.5080910000000 1.0
C      1  0.4305370000000  0.5288550000000  0.5080910000000 1.0
C      1  0.4711450000000  0.4305370000000  0.4919090000000 1.0
C      1  0.5288550000000  0.5694630000000  0.4919090000000 1.0
C      1  0.4711450000000  0.5694630000000  0.5080910000000 1.0
C      1  0.5288550000000  0.4305370000000  0.5080910000000 1.0
C      1  0.4583640000000  0.4797500000000  0.4946350000000 1.0
C      1  0.5416360000000  0.5202500000000  0.4946350000000 1.0
C      1  0.5416360000000  0.4797500000000  0.5053650000000 1.0
C      1  0.4583640000000  0.5202500000000  0.5053650000000 1.0
C      1  0.4797500000000  0.4583640000000  0.4946350000000 1.0
C      1  0.5202500000000  0.5416360000000  0.4946350000000 1.0
C      1  0.4797500000000  0.5416360000000  0.5053650000000 1.0
C      1  0.5202500000000  0.4583640000000  0.5053650000000 1.0
C      1  0.5062470000000  0.4681840000000  0.4761490000000 1.0
C      1  0.4937530000000  0.5318160000000  0.4761490000000 1.0
C      1  0.4937530000000  0.4681840000000  0.5238510000000 1.0
C      1  0.5062470000000  0.5318160000000  0.5238510000000 1.0
C      1  0.4681840000000  0.5062470000000  0.4761490000000 1.0
C      1  0.5318160000000  0.4937530000000  0.4761490000000 1.0
C      1  0.4681840000000  0.4937530000000  0.5238510000000 1.0
C      1  0.5318160000000  0.5062470000000  0.5238510000000 1.0
C      1  0.4775090000000  0.4998300000000  0.5746470000000 1.0
C      1  0.5224910000000  0.5001700000000  0.5746470000000 1.0
C      1  0.5224910000000  0.4998300000000  0.4253530000000 1.0
C      1  0.4775090000000  0.5001700000000  0.4253530000000 1.0
C      1  0.4998300000000  0.4775090000000  0.5746470000000 1.0
C      1  0.5001700000000  0.5224910000000  0.5746470000000 1.0
C      1  0.4998300000000  0.5224910000000  0.4253530000000 1.0
C      1  0.5001700000000  0.4775090000000  0.4253530000000 1.0
C      1  0.4980240000000  0.4590170000000  0.5521290000000 1.0
C      1  0.5019760000000  0.5409830000000  0.5521290000000 1.0
C      1  0.5019760000000  0.4590170000000  0.4478710000000 1.0
C      1  0.4980240000000  0.5409830000000  0.4478710000000 1.0
C      1  0.4590170000000  0.4980240000000  0.5521290000000 1.0
C      1  0.5409830000000  0.5019760000000  0.5521290000000 1.0
C      1  0.4590170000000  0.5019760000000  0.4478710000000 1.0
C      1  0.5409830000000  0.4980240000000  0.4478710000000 1.0
END
