TITL C-862130-1496-782 -0.000834102728307326 125000 -1125.48528242326 0 0 193 (C2) n - 1
REM
REM in /home/nfs/bkarasulu/CARBON/AIRSS/Generating-Clusters/TERSOFF/Higher-Symm/FIRE-HFTN
REM
REM
REM
REM
REM
REM ./C.cell (b20cbc046b6831c77cfcea5457e17084)
REM AIRSS Version 0.9.1 bugfix July 2018 build 013d7b7c2542+ Fri, 06 Jul 2018 19:26:36 +0100
REM compiler GCC version 9.2.1 20190827 (Red Hat 9.2.1-1)
REM options -cpp -mtune=generic -march=x86-64 -g -O0 -fpre-include=/usr/include/finclude/math-vector-fortran.h
REM seed 373074383 -428253624 -64790790 1039027204 1405991112 1054281478 1092954612 -2120324591 253254020 -1151066852 -1142990841 1014327778 -759301986 650651563 1938756351 530656989 -1612356088 -686423626 -1442178932 -1786832398 1131922470 -1752039444 1263973608 -500941123 2017179696 1265965049 -845787880 1320717380 865022431 1698553333 1989787408 -2022592179 -1302922938
REM
CELL 1.54180   50.00000   50.00000   50.00000   90.00000   90.00000   90.00000
LATT -1
SFAC C  
C      1  0.6058050000000  0.5110880000000  0.4964160000000 1.0
C      1  0.3938200000000  0.5110870000000  0.5032120000000 1.0
C      1  0.5121390000000  0.5640330000000  0.5849040000000 1.0
C      1  0.4874850000000  0.5640330000000  0.4147240000000 1.0
C      1  0.5062520000000  0.4724500000000  0.3789760000000 1.0
C      1  0.4933730000000  0.4724500000000  0.6206520000000 1.0
C      1  0.4940670000000  0.5810910000000  0.5594140000000 1.0
C      1  0.5055570000000  0.5810910000000  0.4402140000000 1.0
C      1  0.4529020000000  0.5048360000000  0.4997620000000 1.0
C      1  0.5467220000000  0.5048360000000  0.4998660000000 1.0
C      1  0.6098850000000  0.5382090000000  0.5068780000000 1.0
C      1  0.3897400000000  0.5382080000000  0.4927490000000 1.0
C      1  0.4904250000000  0.5981790000000  0.4652700000000 1.0
C      1  0.5091980000000  0.5981800000000  0.5343570000000 1.0
C      1  0.4682150000000  0.5933030000000  0.5717680000000 1.0
C      1  0.5314080000000  0.5933030000000  0.4278600000000 1.0
C      1  0.6059000000000  0.4669120000000  0.5200530000000 1.0
C      1  0.3937250000000  0.4669110000000  0.4795750000000 1.0
C      1  0.4692450000000  0.4148980000000  0.4471070000000 1.0
C      1  0.5303800000000  0.4148990000000  0.5525210000000 1.0
C      1  0.4369140000000  0.5265120000000  0.5816690000000 1.0
C      1  0.5627100000000  0.5265120000000  0.4179590000000 1.0
C      1  0.4552570000000  0.4889800000000  0.5538780000000 1.0
C      1  0.5443680000000  0.4889800000000  0.4457500000000 1.0
C      1  0.4877310000000  0.4472930000000  0.4874560000000 1.0
C      1  0.5118940000000  0.4472930000000  0.5121720000000 1.0
C      1  0.5690810000000  0.5659530000000  0.5122140000000 1.0
C      1  0.4305430000000  0.5659520000000  0.4874140000000 1.0
C      1  0.4141630000000  0.6100110000000  0.4952520000000 1.0
C      1  0.5854610000000  0.6100120000000  0.5043760000000 1.0
C      1  0.5686210000000  0.4391190000000  0.5199900000000 1.0
C      1  0.4310040000000  0.4391180000000  0.4796390000000 1.0
C      1  0.5317190000000  0.5888290000000  0.5827490000000 1.0
C      1  0.4679040000000  0.5888280000000  0.4168790000000 1.0
C      1  0.4199420000000  0.4933810000000  0.4009120000000 1.0
C      1  0.5796820000000  0.4933820000000  0.5987160000000 1.0
C      1  0.4493120000000  0.4044570000000  0.4646050000000 1.0
C      1  0.5503130000000  0.4044570000000  0.5350230000000 1.0
C      1  0.4976350000000  0.4995960000000  0.6306470000000 1.0
C      1  0.5019890000000  0.4995960000000  0.3689810000000 1.0
C      1  0.5657990000000  0.5951840000000  0.5211250000000 1.0
C      1  0.4338250000000  0.5951840000000  0.4785020000000 1.0
C      1  0.4369110000000  0.4419080000000  0.5522770000000 1.0
C      1  0.5627140000000  0.4419090000000  0.4473510000000 1.0
C      1  0.4916050000000  0.5420770000000  0.5235710000000 1.0
C      1  0.5080190000000  0.5420770000000  0.4760570000000 1.0
C      1  0.5368840000000  0.5431230000000  0.4060130000000 1.0
C      1  0.4627400000000  0.5431230000000  0.5936150000000 1.0
C      1  0.4798520000000  0.5136180000000  0.5147780000000 1.0
C      1  0.5197720000000  0.5136180000000  0.4848500000000 1.0
C      1  0.3965310000000  0.4465250000000  0.4569200000000 1.0
C      1  0.6030930000000  0.4465260000000  0.5427080000000 1.0
C      1  0.4459450000000  0.5951700000000  0.5272590000000 1.0
C      1  0.5536790000000  0.5951700000000  0.4723680000000 1.0
C      1  0.5257080000000  0.4522240000000  0.4193370000000 1.0
C      1  0.4739170000000  0.4522240000000  0.5802920000000 1.0
C      1  0.5460280000000  0.4334240000000  0.4250950000000 1.0
C      1  0.4535970000000  0.4334240000000  0.5745330000000 1.0
C      1  0.3859160000000  0.4559610000000  0.5058260000000 1.0
C      1  0.6137090000000  0.4559620000000  0.4938020000000 1.0
C      1  0.4885910000000  0.5204810000000  0.3842370000000 1.0
C      1  0.5110340000000  0.5204810000000  0.6153910000000 1.0
C      1  0.3951290000000  0.5417570000000  0.4608850000000 1.0
C      1  0.6044950000000  0.5417580000000  0.5387430000000 1.0
C      1  0.5673740000000  0.4022580000000  0.4920910000000 1.0
C      1  0.4322520000000  0.4022570000000  0.5075370000000 1.0
C      1  0.4651400000000  0.6084290000000  0.5095170000000 1.0
C      1  0.5344840000000  0.6084290000000  0.4901100000000 1.0
C      1  0.5331040000000  0.4071210000000  0.4202280000000 1.0
C      1  0.4665210000000  0.4071210000000  0.5794000000000 1.0
C      1  0.4318870000000  0.4332190000000  0.5103080000000 1.0
C      1  0.5677380000000  0.4332190000000  0.4893200000000 1.0
C      1  0.5897500000000  0.5664180000000  0.4406050000000 1.0
C      1  0.4098740000000  0.5664170000000  0.5590230000000 1.0
C      1  0.5373770000000  0.4228300000000  0.5803410000000 1.0
C      1  0.4622480000000  0.4228300000000  0.4192870000000 1.0
C      1  0.5125530000000  0.4061310000000  0.4657030000000 1.0
C      1  0.4870720000000  0.4061310000000  0.5339250000000 1.0
C      1  0.5431000000000  0.4641470000000  0.6214580000000 1.0
C      1  0.4565250000000  0.4641460000000  0.3781700000000 1.0
C      1  0.4517540000000  0.5667750000000  0.5404160000000 1.0
C      1  0.5478700000000  0.5667750000000  0.4592120000000 1.0
C      1  0.4241150000000  0.5427950000000  0.4691040000000 1.0
C      1  0.5755090000000  0.5427960000000  0.5305240000000 1.0
C      1  0.5569630000000  0.4633140000000  0.5317650000000 1.0
C      1  0.4426620000000  0.4633130000000  0.4678630000000 1.0
C      1  0.4534930000000  0.4649440000000  0.4408350000000 1.0
C      1  0.5461320000000  0.4649450000000  0.5587930000000 1.0
C      1  0.5605830000000  0.4969090000000  0.4199930000000 1.0
C      1  0.4390420000000  0.4969090000000  0.5796350000000 1.0
C      1  0.4432210000000  0.4696300000000  0.5380440000000 1.0
C      1  0.5564040000000  0.4696310000000  0.4615840000000 1.0
C      1  0.4792630000000  0.5565810000000  0.5462710000000 1.0
C      1  0.5203610000000  0.5565810000000  0.4533560000000 1.0
C      1  0.4347220000000  0.5430660000000  0.5345790000000 1.0
C      1  0.5649020000000  0.5430670000000  0.4650490000000 1.0
C      1  0.4077830000000  0.4558130000000  0.5557220000000 1.0
C      1  0.5918420000000  0.4558130000000  0.4439060000000 1.0
C      1  0.5365140000000  0.5121180000000  0.6026190000000 1.0
C      1  0.4631100000000  0.5121170000000  0.3970090000000 1.0
C      1  0.4799160000000  0.5377450000000  0.5690570000000 1.0
C      1  0.5197080000000  0.5377450000000  0.4305710000000 1.0
C      1  0.4820730000000  0.4714870000000  0.4367680000000 1.0
C      1  0.5175520000000  0.4714880000000  0.5628600000000 1.0
C      1  0.5605410000000  0.5805730000000  0.4317910000000 1.0
C      1  0.4390830000000  0.5805730000000  0.5678360000000 1.0
C      1  0.4485360000000  0.4850630000000  0.6040570000000 1.0
C      1  0.5510890000000  0.4850630000000  0.3955710000000 1.0
C      1  0.5096630000000  0.4105460000000  0.4013120000000 1.0
C      1  0.4899620000000  0.4105460000000  0.5983160000000 1.0
C      1  0.4611130000000  0.5590430000000  0.4582280000000 1.0
C      1  0.5385110000000  0.5590440000000  0.5414000000000 1.0
C      1  0.5635570000000  0.5148190000000  0.5277190000000 1.0
C      1  0.4360670000000  0.5148180000000  0.4719090000000 1.0
C      1  0.4663960000000  0.5477310000000  0.4316430000000 1.0
C      1  0.5332280000000  0.5477320000000  0.5679840000000 1.0
C      1  0.5025370000000  0.5196010000000  0.5732000000000 1.0
C      1  0.4970880000000  0.5196010000000  0.4264280000000 1.0
C      1  0.4863940000000  0.3960740000000  0.5070990000000 1.0
C      1  0.5132310000000  0.3960740000000  0.4925290000000 1.0
C      1  0.4796130000000  0.5530630000000  0.4813430000000 1.0
C      1  0.5200110000000  0.5530630000000  0.5182850000000 1.0
C      1  0.4159930000000  0.4179050000000  0.4615500000000 1.0
C      1  0.5836320000000  0.4179060000000  0.5380780000000 1.0
C      1  0.5197340000000  0.4997240000000  0.4576120000000 1.0
C      1  0.4798900000000  0.4997240000000  0.5420160000000 1.0
C      1  0.4616950000000  0.4492730000000  0.5063490000000 1.0
C      1  0.5379300000000  0.4492730000000  0.4932790000000 1.0
C      1  0.4141140000000  0.4911670000000  0.4885210000000 1.0
C      1  0.5855100000000  0.4911680000000  0.5111070000000 1.0
C      1  0.4019490000000  0.5766430000000  0.5312420000000 1.0
C      1  0.5976750000000  0.5766440000000  0.4683860000000 1.0
C      1  0.4561680000000  0.5865130000000  0.4440910000000 1.0
C      1  0.5434560000000  0.5865140000000  0.5555370000000 1.0
C      1  0.5287050000000  0.4681220000000  0.3959580000000 1.0
C      1  0.4709200000000  0.4681220000000  0.6036700000000 1.0
C      1  0.4723750000000  0.3933280000000  0.5550070000000 1.0
C      1  0.5272510000000  0.3933280000000  0.4446210000000 1.0
C      1  0.3915570000000  0.4937850000000  0.4428700000000 1.0
C      1  0.6080680000000  0.4937860000000  0.5567580000000 1.0
C      1  0.4620820000000  0.6082230000000  0.4795360000000 1.0
C      1  0.5375410000000  0.6082230000000  0.5200910000000 1.0
C      1  0.5932680000000  0.4464760000000  0.4757270000000 1.0
C      1  0.4063560000000  0.4464760000000  0.5239010000000 1.0
C      1  0.6061270000000  0.5233760000000  0.5619600000000 1.0
C      1  0.3934970000000  0.5233750000000  0.4376670000000 1.0
C      1  0.3842030000000  0.5056250000000  0.5297950000000 1.0
C      1  0.6154220000000  0.5056260000000  0.4698320000000 1.0
C      1  0.4105160000000  0.3993920000000  0.4866080000000 1.0
C      1  0.5891090000000  0.3993920000000  0.5130200000000 1.0
C      1  0.5053910000000  0.4970190000000  0.5558930000000 1.0
C      1  0.4942340000000  0.4970190000000  0.4437350000000 1.0
C      1  0.3996120000000  0.5094010000000  0.5538380000000 1.0
C      1  0.6000120000000  0.5094020000000  0.4457890000000 1.0
C      1  0.4409770000000  0.4763740000000  0.5077400000000 1.0
C      1  0.5586480000000  0.4763750000000  0.4918880000000 1.0
C      1  0.5093140000000  0.5788260000000  0.5101920000000 1.0
C      1  0.4903090000000  0.5788260000000  0.4894360000000 1.0
C      1  0.4157700000000  0.5244880000000  0.4150620000000 1.0
C      1  0.5838540000000  0.5244890000000  0.5845660000000 1.0
C      1  0.4170980000000  0.5349750000000  0.5587450000000 1.0
C      1  0.5825260000000  0.5349750000000  0.4408820000000 1.0
C      1  0.4401710000000  0.5045930000000  0.4436280000000 1.0
C      1  0.5594540000000  0.5045940000000  0.5560000000000 1.0
C      1  0.5535820000000  0.4900830000000  0.6125590000000 1.0
C      1  0.4460430000000  0.4900820000000  0.3870690000000 1.0
C      1  0.5483040000000  0.5251400000000  0.5782510000000 1.0
C      1  0.4513210000000  0.5251390000000  0.4213770000000 1.0
C      1  0.5059660000000  0.4285790000000  0.5400980000000 1.0
C      1  0.4936590000000  0.4285790000000  0.4595300000000 1.0
C      1  0.4987440000000  0.4475420000000  0.4315620000000 1.0
C      1  0.5008810000000  0.4475430000000  0.5680660000000 1.0
C      1  0.4835170000000  0.4541920000000  0.3838520000000 1.0
C      1  0.5161080000000  0.4541930000000  0.6157760000000 1.0
C      1  0.4073810000000  0.5592800000000  0.5064770000000 1.0
C      1  0.5922430000000  0.5592810000000  0.4931510000000 1.0
C      1  0.5559750000000  0.4453050000000  0.5780080000000 1.0
C      1  0.4436500000000  0.4453040000000  0.4216200000000 1.0
C      1  0.4877890000000  0.4771470000000  0.4810490000000 1.0
C      1  0.5118360000000  0.4771470000000  0.5185790000000 1.0
C      1  0.4183880000000  0.4860720000000  0.4318030000000 1.0
C      1  0.5812370000000  0.4860730000000  0.5678250000000 1.0
C      1  0.4877680000000  0.4318550000000  0.4052770000000 1.0
C      1  0.5118570000000  0.4318550000000  0.5943510000000 1.0
C      1  0.5414390000000  0.3939760000000  0.5065070000000 1.0
C      1  0.4581870000000  0.3939760000000  0.4931210000000 1.0
C      1  0.4110610000000  0.4852800000000  0.5672870000000 1.0
C      1  0.5885630000000  0.4852810000000  0.4323410000000 1.0
C      1  0.4964140000000  0.5462000000000  0.6066520000000 1.0
C      1  0.5032100000000  0.5461990000000  0.3929750000000 1.0
C      1  0.5828430000000  0.6017460000000  0.4760900000000 1.0
C      1  0.4167810000000  0.6017450000000  0.5235370000000 1.0
C      1  0.4998120000000  0.4972390000000  0.4998140000000 1.0
END
