TITL C-862502-1143-75 92.5029927041746 125000 -963.714861733198 0 0 170 (C3) n - 1
REM
REM in /home/nfs/bkarasulu/CARBON/AIRSS/Generating-Clusters/TERSOFF/Higher-Symm/FIRE-HFTN
REM
REM
REM
REM
REM
REM ./C.cell (b20cbc046b6831c77cfcea5457e17084)
REM AIRSS Version 0.9.1 bugfix July 2018 build 013d7b7c2542+ Fri, 06 Jul 2018 19:26:36 +0100
REM compiler GCC version 9.2.1 20190827 (Red Hat 9.2.1-1)
REM options -cpp -mtune=generic -march=x86-64 -g -O0 -fpre-include=/usr/include/finclude/math-vector-fortran.h
REM seed 428052260 860902375 -1691027857 585524534 840021614 991479147 -1225805928 1899638918 -1929875376 1960083841 2085366461 211459851 965330820 -1887444829 -1631160781 1633785821 -192568462 720730570 1375678069 870774653 658353164 1295223617 -1579477393 -2104757962 2095725985 -113988765 1126676391 1520642475 -1989353226 1777253103 2064039657 -588479669 548862335
REM
CELL 1.54180   50.00000   50.00000   50.00000   90.00000   90.00000   90.00000
LATT -1
SFAC C  
C      1  0.5308310000000  0.5769110000000  0.5894320000000 1.0
C      1  0.5514780000000  0.4346280000000  0.5894320000000 1.0
C      1  0.4179340000000  0.4878890000000  0.5894320000000 1.0
C      1  0.4590300000000  0.4369770000000  0.4218050000000 1.0
C      1  0.4661920000000  0.5667760000000  0.4218040000000 1.0
C      1  0.5750200000000  0.4956740000000  0.4218050000000 1.0
C      1  0.5867330000000  0.4502630000000  0.4648980000000 1.0
C      1  0.4138470000000  0.4495390000000  0.4648980000000 1.0
C      1  0.4996630000000  0.5996250000000  0.4648970000000 1.0
C      1  0.5001400000000  0.5914940000000  0.5247560000000 1.0
C      1  0.5794520000000  0.4539150000000  0.5247560000000 1.0
C      1  0.4206490000000  0.4540180000000  0.5247560000000 1.0
C      1  0.4898450000000  0.4644470000000  0.5826630000000 1.0
C      1  0.4745740000000  0.5263540000000  0.5826620000000 1.0
C      1  0.5358230000000  0.5086260000000  0.5826630000000 1.0
C      1  0.4462760000000  0.4470910000000  0.4708420000000 1.0
C      1  0.4813280000000  0.5727650000000  0.4708420000000 1.0
C      1  0.5726390000000  0.4795720000000  0.4708420000000 1.0
C      1  0.4565400000000  0.5934500000000  0.4724460000000 1.0
C      1  0.6029470000000  0.4906960000000  0.4724460000000 1.0
C      1  0.4407560000000  0.4152810000000  0.4724460000000 1.0
C      1  0.4026280000000  0.5544910000000  0.5151780000000 1.0
C      1  0.5961630000000  0.5568650000000  0.5151780000000 1.0
C      1  0.5014520000000  0.3880720000000  0.5151780000000 1.0
C      1  0.5194800000000  0.4790650000000  0.4304230000000 1.0
C      1  0.4724160000000  0.4933810000000  0.4304230000000 1.0
C      1  0.5083460000000  0.5269820000000  0.4304230000000 1.0
C      1  0.5844220000000  0.4428710000000  0.4368360000000 1.0
C      1  0.4086000000000  0.4552360000000  0.4368360000000 1.0
C      1  0.5072200000000  0.6013200000000  0.4368360000000 1.0
C      1  0.4534900000000  0.4809420000000  0.5536570000000 1.0
C      1  0.5070370000000  0.5495920000000  0.5536570000000 1.0
C      1  0.5397160000000  0.4688940000000  0.5536570000000 1.0
C      1  0.4939720000000  0.4400810000000  0.4573170000000 1.0
C      1  0.4514090000000  0.5349640000000  0.4573170000000 1.0
C      1  0.5548620000000  0.5243830000000  0.4573170000000 1.0
C      1  0.5461990000000  0.4607970000000  0.4678280000000 1.0
C      1  0.4432360000000  0.4793760000000  0.4678280000000 1.0
C      1  0.5108070000000  0.5592540000000  0.4678280000000 1.0
C      1  0.4687310000000  0.3961230000000  0.5105290000000 1.0
C      1  0.4259610000000  0.5788020000000  0.5105290000000 1.0
C      1  0.6055500000000  0.5245020000000  0.5105290000000 1.0
C      1  0.4032830000000  0.5583320000000  0.4817670000000 1.0
C      1  0.5991620000000  0.5543770000000  0.4817670000000 1.0
C      1  0.4977970000000  0.3867180000000  0.4817670000000 1.0
C      1  0.5438530000000  0.4015410000000  0.4895380000000 1.0
C      1  0.3930920000000  0.5110350000000  0.4895380000000 1.0
C      1  0.5632970000000  0.5868510000000  0.4895380000000 1.0
C      1  0.5612290000000  0.5501500000000  0.5539260000000 1.0
C      1  0.5131030000000  0.4216830000000  0.5539260000000 1.0
C      1  0.4259100000000  0.5275950000000  0.5539260000000 1.0
C      1  0.5713870000000  0.5775220000000  0.5171870000000 1.0
C      1  0.5317290000000  0.3992000000000  0.5171870000000 1.0
C      1  0.3971260000000  0.5227050000000  0.5171870000000 1.0
C      1  0.5224090000000  0.4903770000000  0.5617200000000 1.0
C      1  0.4807480000000  0.4851880000000  0.5617200000000 1.0
C      1  0.4970850000000  0.5238620000000  0.5617190000000 1.0
C      1  0.5344540000000  0.4572480000000  0.3909880000000 1.0
C      1  0.4460350000000  0.4913210000000  0.3909880000000 1.0
C      1  0.5197530000000  0.5508580000000  0.3909880000000 1.0
C      1  0.5597530000000  0.4487630000000  0.4234200000000 1.0
C      1  0.4260380000000  0.4736550000000  0.4234200000000 1.0
C      1  0.5144520000000  0.5770090000000  0.4234200000000 1.0
C      1  0.4108240000000  0.5057660000000  0.5398300000000 1.0
C      1  0.5498680000000  0.5741290000000  0.5398300000000 1.0
C      1  0.5395500000000  0.4195320000000  0.5398300000000 1.0
C      1  0.5177970000000  0.5106050000000  0.4027680000000 1.0
C      1  0.5005720000000  0.4790680000000  0.4027680000000 1.0
C      1  0.4818730000000  0.5097540000000  0.4027680000000 1.0
C      1  0.4648910000000  0.3965050000000  0.4786550000000 1.0
C      1  0.4282120000000  0.5819360000000  0.4786550000000 1.0
C      1  0.6071390000000  0.5209860000000  0.4786550000000 1.0
C      1  0.4003070000000  0.4965120000000  0.6109160000000 1.0
C      1  0.5471120000000  0.5878640000000  0.6109160000000 1.0
C      1  0.5528220000000  0.4150510000000  0.6109160000000 1.0
C      1  0.5775720000000  0.5020320000000  0.5468930000000 1.0
C      1  0.4632600000000  0.4315880000000  0.5468930000000 1.0
C      1  0.4594100000000  0.5658070000000  0.5468930000000 1.0
C      1  0.4920930000000  0.4361140000000  0.5416310000000 1.0
C      1  0.4489130000000  0.5385740000000  0.5416300000000 1.0
C      1  0.5592360000000  0.5247390000000  0.5416310000000 1.0
C      1  0.4893910000000  0.5668270000000  0.5392490000000 1.0
C      1  0.5634650000000  0.4755570000000  0.5392490000000 1.0
C      1  0.4473860000000  0.4570430000000  0.5392490000000 1.0
C      1  0.4491130000000  0.4353000000000  0.5751220000000 1.0
C      1  0.4696980000000  0.5762040000000  0.5751220000000 1.0
C      1  0.5814320000000  0.4879240000000  0.5751220000000 1.0
C      1  0.4489810000000  0.5282790000000  0.4889940000000 1.0
C      1  0.5502860000000  0.5298280000000  0.4889940000000 1.0
C      1  0.5009750000000  0.4413200000000  0.4889940000000 1.0
C      1  0.5235910000000  0.3953350000000  0.4685130000000 1.0
C      1  0.3978480000000  0.5316850000000  0.4685130000000 1.0
C      1  0.5788030000000  0.5724070000000  0.4685130000000 1.0
C      1  0.3861390000000  0.4390580000000  0.5060690000000 1.0
C      1  0.5044390000000  0.6288610000000  0.5060690000000 1.0
C      1  0.6096640000000  0.4315090000000  0.5060690000000 1.0
C      1  0.4185720000000  0.4132690000000  0.4911630000000 1.0
C      1  0.4658890000000  0.6136680000000  0.4911630000000 1.0
C      1  0.6157810000000  0.4724900000000  0.4911630000000 1.0
C      1  0.4076790000000  0.5249370000000  0.4421220000000 1.0
C      1  0.5680430000000  0.5672680000000  0.4421220000000 1.0
C      1  0.5245210000000  0.4072230000000  0.4421230000000 1.0
C      1  0.5124020000000  0.5537390000000  0.5951010000000 1.0
C      1  0.5406240000000  0.4621740000000  0.5951010000000 1.0
C      1  0.4472160000000  0.4835150000000  0.5951010000000 1.0
C      1  0.5845640000000  0.4418700000000  0.5528120000000 1.0
C      1  0.4076620000000  0.4556140000000  0.5528110000000 1.0
C      1  0.5080160000000  0.6019430000000  0.5528110000000 1.0
C      1  0.4697360000000  0.4729100000000  0.3867860000000 1.0
C      1  0.4919580000000  0.5395370000000  0.3867860000000 1.0
C      1  0.5385480000000  0.4869790000000  0.3867860000000 1.0
C      1  0.5442560000000  0.5347640000000  0.4069980000000 1.0
C      1  0.5082650000000  0.4440740000000  0.4069980000000 1.0
C      1  0.4477210000000  0.5205880000000  0.4069980000000 1.0
C      1  0.4359050000000  0.5196490000000  0.4369460000000 1.0
C      1  0.5493500000000  0.5454670000000  0.4369460000000 1.0
C      1  0.5149870000000  0.4343120000000  0.4369460000000 1.0
C      1  0.4997480000000  0.5269180000000  0.5190980000000 1.0
C      1  0.5237240000000  0.4865430000000  0.5190990000000 1.0
C      1  0.4767700000000  0.4859670000000  0.5190980000000 1.0
C      1  0.5166920000000  0.6117490000000  0.4859190000000 1.0
C      1  0.5887180000000  0.4294530000000  0.4859190000000 1.0
C      1  0.3948320000000  0.4582250000000  0.4859190000000 1.0
C      1  0.5337550000000  0.4472890000000  0.4911400000000 1.0
C      1  0.4377600000000  0.4969070000000  0.4911400000000 1.0
C      1  0.5287270000000  0.5552320000000  0.4911400000000 1.0
C      1  0.5727960000000  0.4043370000000  0.4840890000000 1.0
C      1  0.3810420000000  0.4845720000000  0.4840890000000 1.0
C      1  0.5464040000000  0.6105180000000  0.4840890000000 1.0
C      1  0.5608710000000  0.4271650000000  0.5620460000000 1.0
C      1  0.4067740000000  0.4834860000000  0.5620460000000 1.0
C      1  0.5325980000000  0.5887770000000  0.5620460000000 1.0
C      1  0.6004610000000  0.5011390000000  0.5283870000000 1.0
C      1  0.4510430000000  0.4122120000000  0.5283870000000 1.0
C      1  0.4487390000000  0.5860760000000  0.5283870000000 1.0
C      1  0.5233840000000  0.5272240000000  0.6017990000000 1.0
C      1  0.5121710000000  0.4659200000000  0.6017990000000 1.0
C      1  0.4646870000000  0.5062830000000  0.6017990000000 1.0
C      1  0.5594470000000  0.5062760000000  0.4000130000000 1.0
C      1  0.4759980000000  0.4451630000000  0.4000130000000 1.0
C      1  0.4647980000000  0.5479880000000  0.4000130000000 1.0
C      1  0.4664360000000  0.4412450000000  0.4492210000000 1.0
C      1  0.4661860000000  0.5582280000000  0.4492210000000 1.0
C      1  0.5676210000000  0.4999530000000  0.4492210000000 1.0
C      1  0.5564450000000  0.4878750000000  0.5908210000000 1.0
C      1  0.4615630000000  0.4569640000000  0.5908210000000 1.0
C      1  0.4822340000000  0.5545890000000  0.5908210000000 1.0
C      1  0.4855980000000  0.6008710000000  0.5719510000000 1.0
C      1  0.5948440000000  0.4618210000000  0.5719510000000 1.0
C      1  0.4198000000000  0.4367360000000  0.5719510000000 1.0
C      1  0.5503440000000  0.4398940000000  0.5163620000000 1.0
C      1  0.4230610000000  0.4862370000000  0.5163620000000 1.0
C      1  0.5268370000000  0.5732960000000  0.5163620000000 1.0
C      1  0.4782210000000  0.4856980000000  0.4901760000000 1.0
C      1  0.4987900000000  0.5257950000000  0.4901760000000 1.0
C      1  0.5232310000000  0.4879340000000  0.4901760000000 1.0
C      1  0.5635860000000  0.4989830000000  0.4938290000000 1.0
C      1  0.4676120000000  0.4452250000000  0.4938290000000 1.0
C      1  0.4690430000000  0.5552200000000  0.4938290000000 1.0
C      1  0.5416550000000  0.5244970000000  0.5189650000000 1.0
C      1  0.5006740000000  0.4514600000000  0.5189650000000 1.0
C      1  0.4579130000000  0.5234700000000  0.5189650000000 1.0
C      1  0.5360140000000  0.4560880000000  0.4397730000000 1.0
C      1  0.4442510000000  0.4905500000000  0.4397730000000 1.0
C      1  0.5199780000000  0.5527890000000  0.4397730000000 1.0
C      1  0.4711370000000  0.6027810000000  0.5172540000000 1.0
C      1  0.6037290000000  0.4733890000000  0.5172540000000 1.0
C      1  0.4253760000000  0.4232580000000  0.5172540000000 1.0
C      1  0.5000810000000  0.4998090000000  0.4766440000000 1.0
C      1  0.5000810000000  0.4998090000000  0.5396210000000 1.0
END
