TITL C-862501-1041-1088 4.07359582195031e-06 125000 -51.394976310239 0 0 13 (Cs) n - 1
REM
REM in /home/nfs/bkarasulu/CARBON/AIRSS/Generating-Clusters/TERSOFF/Higher-Symm/FIRE-HFTN
REM
REM
REM
REM
REM
REM ./C.cell (b20cbc046b6831c77cfcea5457e17084)
REM AIRSS Version 0.9.1 bugfix July 2018 build 013d7b7c2542+ Fri, 06 Jul 2018 19:26:36 +0100
REM compiler GCC version 9.2.1 20190827 (Red Hat 9.2.1-1)
REM options -cpp -mtune=generic -march=x86-64 -g -O0 -fpre-include=/usr/include/finclude/math-vector-fortran.h
REM seed 529971563 -341605558 1729033760 -1596800252 1619087188 2028380552 -621270381 -1428028924 -1695451734 -1325963387 -871687355 -1810862286 -905063854 1928521754 2027512894 2095656649 2110476245 -1521803806 479295406 1913227177 551454738 1533198173 1543385448 -1995416821 -782820820 -443355963 58973278 -476204881 -2064047080 183820114 961766229 936635856 1497642097
REM
CELL 1.54180   50.00000   50.00000   50.00000   90.00000   90.00000   90.00000
LATT -1
SFAC C  
C      1  0.4924410000000  0.4707520000000  0.5135550000000 1.0
C      1  0.4694190000000  0.5054110000000  0.5189110000000 1.0
C      1  0.5048640000000  0.5278030000000  0.5206480000000 1.0
C      1  0.5277890000000  0.4927010000000  0.5189110000000 1.0
C      1  0.4745650000000  0.5121050000000  0.4888260000000 1.0
C      1  0.5053760000000  0.5301530000000  0.4886340000000 1.0
C      1  0.5258920000000  0.5009280000000  0.4888260000000 1.0
C      1  0.4957330000000  0.4858710000000  0.4871540000000 1.0
C      1  0.4732780000000  0.5023550000000  0.4557340000000 1.0
C      1  0.5024230000000  0.5165950000000  0.4577460000000 1.0
C      1  0.5230100000000  0.4915260000000  0.4557340000000 1.0
C      1  0.4931850000000  0.4741710000000  0.4570280000000 1.0
C      1  0.4981590000000  0.4970140000000  0.5348100000000 1.0
END
