TITL C-862501-1041-822 -2.7318419527722e-06 125000 -466.82416578158 0 0 83 (T23) n - 1
REM
REM in /home/nfs/bkarasulu/CARBON/AIRSS/Generating-Clusters/TERSOFF/Higher-Symm/FIRE-HFTN
REM
REM
REM
REM
REM
REM ./C.cell (b20cbc046b6831c77cfcea5457e17084)
REM AIRSS Version 0.9.1 bugfix July 2018 build 013d7b7c2542+ Fri, 06 Jul 2018 19:26:36 +0100
REM compiler GCC version 9.2.1 20190827 (Red Hat 9.2.1-1)
REM options -cpp -mtune=generic -march=x86-64 -g -O0 -fpre-include=/usr/include/finclude/math-vector-fortran.h
REM seed -1795953199 1576070608 1377752814 713014225 -1330515424 -130838323 511533686 1250779265 1962137601 -269773415 -2065348755 -1718701348 -2015878592 -131238847 -1933371552 -984875487 142787529 180325637 541683300 -1204460875 -727104642 1102123886 -1105616969 -397717608 -420839978 -2057107982 -618014672 981948463 2121620936 144268574 -1916873910 -37106981 -966317480
REM
CELL 1.54180   50.00000   50.00000   50.00000   90.00000   90.00000   90.00000
LATT -1
SFAC C  
C      1  0.5561870000000  0.5158250000000  0.4548620000000 1.0
C      1  0.4552160000000  0.5560450000000  0.5156140000000 1.0
C      1  0.5159670000000  0.4550730000000  0.5558340000000 1.0
C      1  0.5561870000000  0.4840120000000  0.5445530000000 1.0
C      1  0.4439340000000  0.4840110000000  0.4548620000000 1.0
C      1  0.4439340000000  0.5158250000000  0.5445530000000 1.0
C      1  0.4552160000000  0.4437920000000  0.4838010000000 1.0
C      1  0.5449060000000  0.4437920000000  0.5156140000000 1.0
C      1  0.5449060000000  0.5560450000000  0.4838010000000 1.0
C      1  0.5159670000000  0.5447630000000  0.4435810000000 1.0
C      1  0.4841540000000  0.5447630000000  0.5558340000000 1.0
C      1  0.4841540000000  0.4550730000000  0.4435810000000 1.0
C      1  0.5239540000000  0.4355560000000  0.5346220000000 1.0
C      1  0.5349750000000  0.5238110000000  0.4353450000000 1.0
C      1  0.4356980000000  0.5348330000000  0.5236000000000 1.0
C      1  0.5239530000000  0.5642810000000  0.4647930000000 1.0
C      1  0.4761680000000  0.5642810000000  0.5346220000000 1.0
C      1  0.4761680000000  0.4355560000000  0.4647930000000 1.0
C      1  0.5349750000000  0.4760260000000  0.5640700000000 1.0
C      1  0.4651460000000  0.4760250000000  0.4353450000000 1.0
C      1  0.4651460000000  0.5238110000000  0.5640700000000 1.0
C      1  0.4356980000000  0.4650040000000  0.4758150000000 1.0
C      1  0.5644230000000  0.4650040000000  0.5236000000000 1.0
C      1  0.5644230000000  0.5348330000000  0.4758150000000 1.0
C      1  0.5152670000000  0.5398210000000  0.5546340000000 1.0
C      1  0.5549880000000  0.5151250000000  0.5396100000000 1.0
C      1  0.5399630000000  0.5548450000000  0.5149140000000 1.0
C      1  0.5152670000000  0.4600160000000  0.4447810000000 1.0
C      1  0.4848540000000  0.4600160000000  0.5546350000000 1.0
C      1  0.4848540000000  0.5398210000000  0.4447810000000 1.0
C      1  0.5549880000000  0.4847120000000  0.4598050000000 1.0
C      1  0.4451340000000  0.4847120000000  0.5396100000000 1.0
C      1  0.4451340000000  0.5151250000000  0.4598050000000 1.0
C      1  0.5399630000000  0.4449910000000  0.4845010000000 1.0
C      1  0.4601580000000  0.4449910000000  0.5149140000000 1.0
C      1  0.4601580000000  0.5548450000000  0.4845010000000 1.0
C      1  0.5395130000000  0.5247180000000  0.5688160000000 1.0
C      1  0.5691690000000  0.5393710000000  0.5245070000000 1.0
C      1  0.5248610000000  0.5690270000000  0.5391600000000 1.0
C      1  0.5395140000000  0.4751180000000  0.4305990000000 1.0
C      1  0.4606080000000  0.4751180000000  0.5688160000000 1.0
C      1  0.4606080000000  0.5247180000000  0.4305990000000 1.0
C      1  0.5691690000000  0.4604660000000  0.4749080000000 1.0
C      1  0.4309520000000  0.4604650000000  0.5245070000000 1.0
C      1  0.4309520000000  0.5393710000000  0.4749080000000 1.0
C      1  0.5248610000000  0.4308100000000  0.4602550000000 1.0
C      1  0.4752610000000  0.4308100000000  0.5391600000000 1.0
C      1  0.4752610000000  0.5690270000000  0.4602550000000 1.0
C      1  0.4735480000000  0.4991720000000  0.4184280000000 1.0
C      1  0.4187810000000  0.4734060000000  0.4989620000000 1.0
C      1  0.4993150000000  0.4186390000000  0.4731950000000 1.0
C      1  0.4735480000000  0.5006640000000  0.5809870000000 1.0
C      1  0.5265730000000  0.5006640000000  0.4184280000000 1.0
C      1  0.5265730000000  0.4991720000000  0.5809870000000 1.0
C      1  0.4187810000000  0.5264310000000  0.5004530000000 1.0
C      1  0.5813400000000  0.5264310000000  0.4989620000000 1.0
C      1  0.5813400000000  0.4734060000000  0.5004540000000 1.0
C      1  0.4993150000000  0.5811980000000  0.5262200000000 1.0
C      1  0.5008070000000  0.5811980000000  0.4731950000000 1.0
C      1  0.5008070000000  0.4186390000000  0.5262200000000 1.0
C      1  0.5059560000000  0.4582010000000  0.4855280000000 1.0
C      1  0.4858810000000  0.5058130000000  0.4579910000000 1.0
C      1  0.4583440000000  0.4857390000000  0.5056030000000 1.0
C      1  0.5059560000000  0.5416350000000  0.5138870000000 1.0
C      1  0.4941650000000  0.5416350000000  0.4855280000000 1.0
C      1  0.4941650000000  0.4582010000000  0.5138870000000 1.0
C      1  0.4858810000000  0.4940230000000  0.5414250000000 1.0
C      1  0.5142400000000  0.4940230000000  0.4579910000000 1.0
C      1  0.5142400000000  0.5058140000000  0.5414250000000 1.0
C      1  0.4583440000000  0.5140980000000  0.4938120000000 1.0
C      1  0.5417780000000  0.5140980000000  0.5056030000000 1.0
C      1  0.5417780000000  0.4857390000000  0.4938120000000 1.0
C      1  0.5000610000000  0.4999180000000  0.5947800000000 1.0
C      1  0.5951330000000  0.4999180000000  0.4997080000000 1.0
C      1  0.5000610000000  0.5949910000000  0.4997070000000 1.0
C      1  0.5000610000000  0.4999180000000  0.4046350000000 1.0
C      1  0.4049880000000  0.4999180000000  0.4997070000000 1.0
C      1  0.5000610000000  0.4048450000000  0.4997080000000 1.0
C      1  0.4818300000000  0.5181490000000  0.5179380000000 1.0
C      1  0.5182920000000  0.4816870000000  0.5179380000000 1.0
C      1  0.5182910000000  0.5181490000000  0.4814770000000 1.0
C      1  0.4818300000000  0.4816870000000  0.4814770000000 1.0
C      1  0.5000610000000  0.4999180000000  0.4997080000000 1.0
END
