TITL C-862128-1543-1253 734690.973285027 125000 -624.610729585574 0 0 118 (C1) n - 1
REM
REM in /home/nfs/bkarasulu/CARBON/AIRSS/Generating-Clusters/TERSOFF/Higher-Symm/FIRE-HFTN
REM
REM
REM
REM
REM
REM ./C.cell (b20cbc046b6831c77cfcea5457e17084)
REM AIRSS Version 0.9.1 bugfix July 2018 build 013d7b7c2542+ Fri, 06 Jul 2018 19:26:36 +0100
REM compiler GCC version 9.2.1 20190827 (Red Hat 9.2.1-1)
REM options -cpp -mtune=generic -march=x86-64 -g -O0 -fpre-include=/usr/include/finclude/math-vector-fortran.h
REM seed 1050404179 498564445 -1365311358 2095689188 1501870412 -972558661 -1288895173 1582050010 2085461008 -618375033 1338932208 -1607198138 -862878803 -1027383427 673604414 -665817379 -1482843000 -1681368943 -2033494639 -301236842 -16156688 1348374636 1852095328 991701628 1332557724 -1931906928 985749784 -1445102674 -673377923 1241373049 108565322 1039784397 -516533546
REM
CELL 1.54180   50.00000   50.00000   50.00000   90.00000   90.00000   90.00000
LATT -1
SFAC C  
C      1  0.4315600000000  0.5636280000000  0.4538930000000 1.0
C      1  0.5539220000000  0.5617570000000  0.5494460000000 1.0
C      1  0.4355080000000  0.5630630000000  0.5498750000000 1.0
C      1  0.5560200000000  0.5653100000000  0.4555000000000 1.0
C      1  0.5220990000000  0.5288330000000  0.5187830000000 1.0
C      1  0.4723240000000  0.5284270000000  0.4730780000000 1.0
C      1  0.5232250000000  0.5305080000000  0.4734990000000 1.0
C      1  0.4754570000000  0.5270540000000  0.5185780000000 1.0
C      1  0.4524050000000  0.5954230000000  0.5153300000000 1.0
C      1  0.5456910000000  0.5847510000000  0.4945680000000 1.0
C      1  0.4471360000000  0.5771120000000  0.4937600000000 1.0
C      1  0.5371550000000  0.5993230000000  0.5177850000000 1.0
C      1  0.5301030000000  0.5872990000000  0.4679430000000 1.0
C      1  0.4634530000000  0.5836510000000  0.5402410000000 1.0
C      1  0.5274020000000  0.5816770000000  0.5391990000000 1.0
C      1  0.4596680000000  0.5824940000000  0.4662560000000 1.0
C      1  0.4786700000000  0.5454340000000  0.6416730000000 1.0
C      1  0.5366380000000  0.4933850000000  0.4000030000000 1.0
C      1  0.4751390000000  0.5376030000000  0.3535510000000 1.0
C      1  0.5425220000000  0.4947070000000  0.6034040000000 1.0
C      1  0.4716510000000  0.4650750000000  0.5756330000000 1.0
C      1  0.5270060000000  0.4615960000000  0.4257070000000 1.0
C      1  0.4714620000000  0.4613250000000  0.4256990000000 1.0
C      1  0.5268140000000  0.4647320000000  0.5754060000000 1.0
C      1  0.5140940000000  0.5570270000000  0.5251010000000 1.0
C      1  0.4755120000000  0.5565480000000  0.4670650000000 1.0
C      1  0.5170360000000  0.5591600000000  0.4698420000000 1.0
C      1  0.4724040000000  0.5569130000000  0.5240400000000 1.0
C      1  0.5241790000000  0.4693010000000  0.5337390000000 1.0
C      1  0.4729960000000  0.4681980000000  0.4683390000000 1.0
C      1  0.5247160000000  0.4683710000000  0.4679970000000 1.0
C      1  0.4733680000000  0.4680370000000  0.5330610000000 1.0
C      1  0.5683590000000  0.4853250000000  0.4657940000000 1.0
C      1  0.4280720000000  0.4847420000000  0.5361770000000 1.0
C      1  0.5690230000000  0.4843280000000  0.5359720000000 1.0
C      1  0.4267830000000  0.4846550000000  0.4660160000000 1.0
C      1  0.4170080000000  0.5376840000000  0.4663230000000 1.0
C      1  0.5701610000000  0.5371640000000  0.5354720000000 1.0
C      1  0.4203860000000  0.5375290000000  0.5364050000000 1.0
C      1  0.5711490000000  0.5388680000000  0.4675920000000 1.0
C      1  0.4458550000000  0.4368060000000  0.5279410000000 1.0
C      1  0.5516540000000  0.4367890000000  0.4739860000000 1.0
C      1  0.4457240000000  0.4369150000000  0.4743750000000 1.0
C      1  0.5508840000000  0.4375580000000  0.5274450000000 1.0
C      1  0.4710220000000  0.4176460000000  0.5258470000000 1.0
C      1  0.5267360000000  0.4172460000000  0.4756840000000 1.0
C      1  0.4708630000000  0.4175950000000  0.4761250000000 1.0
C      1  0.5266250000000  0.4176540000000  0.5259260000000 1.0
C      1  0.4793980000000  0.5381160000000  0.4171540000000 1.0
C      1  0.5191830000000  0.5424810000000  0.5763000000000 1.0
C      1  0.4773800000000  0.5293890000000  0.5832980000000 1.0
C      1  0.5231130000000  0.5481320000000  0.4142130000000 1.0
C      1  0.4217500000000  0.5106200000000  0.5499460000000 1.0
C      1  0.5709290000000  0.5125140000000  0.4528470000000 1.0
C      1  0.4195900000000  0.5106910000000  0.4523980000000 1.0
C      1  0.5725540000000  0.5108060000000  0.5492030000000 1.0
C      1  0.4970960000000  0.5447940000000  0.3710120000000 1.0
C      1  0.5147630000000  0.5025070000000  0.6060920000000 1.0
C      1  0.5010070000000  0.5464780000000  0.6232430000000 1.0
C      1  0.5101450000000  0.5039000000000  0.3949100000000 1.0
C      1  0.4486050000000  0.4627600000000  0.5493670000000 1.0
C      1  0.5493460000000  0.4618590000000  0.4523130000000 1.0
C      1  0.4479510000000  0.4622680000000  0.4525450000000 1.0
C      1  0.5490920000000  0.4621910000000  0.5492040000000 1.0
C      1  0.5233970000000  0.5105640000000  0.5415300000000 1.0
C      1  0.4734920000000  0.5107070000000  0.4501890000000 1.0
C      1  0.5230070000000  0.5134750000000  0.4496350000000 1.0
C      1  0.4755450000000  0.5091390000000  0.5411780000000 1.0
C      1  0.5029780000000  0.5506780000000  0.5535610000000 1.0
C      1  0.4851330000000  0.5576400000000  0.4385320000000 1.0
C      1  0.5133840000000  0.5636390000000  0.4376720000000 1.0
C      1  0.4735370000000  0.5473890000000  0.5583270000000 1.0
C      1  0.4992490000000  0.4764640000000  0.4247830000000 1.0
C      1  0.4995050000000  0.4798580000000  0.5741870000000 1.0
C      1  0.5300010000000  0.4770700000000  0.5026640000000 1.0
C      1  0.4684930000000  0.4746970000000  0.5019520000000 1.0
C      1  0.4093860000000  0.5378380000000  0.5018280000000 1.0
C      1  0.5828890000000  0.5390260000000  0.5017180000000 1.0
C      1  0.4387130000000  0.5486330000000  0.5004150000000 1.0
C      1  0.5552920000000  0.5571630000000  0.5017790000000 1.0
C      1  0.5632630000000  0.4483710000000  0.5007990000000 1.0
C      1  0.4334690000000  0.4479180000000  0.5011740000000 1.0
C      1  0.4986350000000  0.4554770000000  0.5401540000000 1.0
C      1  0.4985870000000  0.4553620000000  0.4609320000000 1.0
C      1  0.5498950000000  0.4981200000000  0.5012540000000 1.0
C      1  0.4480630000000  0.4949580000000  0.5007000000000 1.0
C      1  0.5232360000000  0.4016260000000  0.5009260000000 1.0
C      1  0.4743640000000  0.4017140000000  0.5010090000000 1.0
C      1  0.4201190000000  0.4816760000000  0.5011700000000 1.0
C      1  0.5767950000000  0.4820490000000  0.5007250000000 1.0
C      1  0.5025690000000  0.5322810000000  0.3973330000000 1.0
C      1  0.5040320000000  0.5291760000000  0.5993490000000 1.0
C      1  0.4953340000000  0.5919310000000  0.5520080000000 1.0
C      1  0.4944870000000  0.5935060000000  0.4612990000000 1.0
C      1  0.4985430000000  0.5019780000000  0.4384910000000 1.0
C      1  0.4994720000000  0.5017490000000  0.5549730000000 1.0
C      1  0.4988130000000  0.4265250000000  0.5384600000000 1.0
C      1  0.4985490000000  0.4262040000000  0.4628590000000 1.0
C      1  0.5428490000000  0.5275360000000  0.4964670000000 1.0
C      1  0.4551010000000  0.5237540000000  0.4969370000000 1.0
C      1  0.5947710000000  0.5092180000000  0.5011440000000 1.0
C      1  0.4000450000000  0.5071240000000  0.5019900000000 1.0
C      1  0.4988050000000  0.2593080000000  0.5001360000000 1.0
C      1  0.4987140000000  0.6952300000000  0.4898860000000 1.0
C      1  0.4941300000000  0.5674550000000  0.4968620000000 1.0
C      1  0.4987720000000  0.3852660000000  0.5012290000000 1.0
C      1  0.4987450000000  0.3567940000000  0.5066500000000 1.0
C      1  0.4990840000000  0.4739980000000  0.5005530000000 1.0
C      1  0.4988660000000  0.4975990000000  0.4834110000000 1.0
C      1  0.4985450000000  0.5242760000000  0.4946690000000 1.0
C      1  0.4967180000000  0.3361430000000  0.4864820000000 1.0
C      1  0.5097900000000  0.6459730000000  0.4990150000000 1.0
C      1  0.4924930000000  0.5977840000000  0.5030300000000 1.0
C      1  0.5051630000000  0.4432750000000  0.5005520000000 1.0
C      1  0.4998660000000  0.6673460000000  0.4821990000000 1.0
C      1  0.4885270000000  0.3088390000000  0.4915630000000 1.0
C      1  0.5099950000000  0.6179550000000  0.4917220000000 1.0
C      1  0.5063850000000  0.2860590000000  0.4920780000000 1.0
END
