TITL C-862131-2149-958 2.1354026892689e-07 125000 -57.4780696507036 0 0 13 (C2) n - 1
REM
REM in /home/nfs/bkarasulu/CARBON/AIRSS/Generating-Clusters/TERSOFF/Higher-Symm/FIRE-HFTN
REM
REM
REM
REM
REM
REM ./C.cell (b20cbc046b6831c77cfcea5457e17084)
REM AIRSS Version 0.9.1 bugfix July 2018 build 013d7b7c2542+ Fri, 06 Jul 2018 19:26:36 +0100
REM compiler GCC version 9.2.1 20190827 (Red Hat 9.2.1-1)
REM options -cpp -mtune=generic -march=x86-64 -g -O0 -fpre-include=/usr/include/finclude/math-vector-fortran.h
REM seed -1440468505 298557218 273363911 -1885789259 -1147591982 205508725 350022594 2018410224 -1595370822 -1674459667 958446325 -1056109688 622666422 142176478 -483825965 1243177388 1845699142 -2005900816 857241182 -403191965 1845972405 793727218 -645935576 1907985202 1964121111 39095566 -914938608 772863115 544064397 320485066 298762715 1969053453 858119870
REM
CELL 1.54180   50.00000   50.00000   50.00000   90.00000   90.00000   90.00000
LATT -1
SFAC C  
C      1  0.4754700000000  0.4534140000000  0.4838470000000 1.0
C      1  0.4852350000000  0.5027240000000  0.5483500000000 1.0
C      1  0.5239660000000  0.4545490000000  0.5129260000000 1.0
C      1  0.5099050000000  0.5055890000000  0.4502490000000 1.0
C      1  0.4500150000000  0.4859480000000  0.5127310000000 1.0
C      1  0.4853780000000  0.5407330000000  0.4767810000000 1.0
C      1  0.5468590000000  0.4896930000000  0.4849710000000 1.0
C      1  0.5088470000000  0.5400470000000  0.5240580000000 1.0
C      1  0.4742920000000  0.4784430000000  0.4985980000000 1.0
C      1  0.4974220000000  0.5133100000000  0.5241670000000 1.0
C      1  0.5232980000000  0.4800880000000  0.4990430000000 1.0
C      1  0.4978260000000  0.5145080000000  0.4751480000000 1.0
C      1  0.4982090000000  0.4965870000000  0.4992390000000 1.0
END
