TITL C-862505-1648-448 0.00223965880216652 125000 -168.852851431319 0 0 34 (Cs) n - 1
REM
REM in /home/nfs/bkarasulu/CARBON/AIRSS/Generating-Clusters/TERSOFF/Higher-Symm/FIRE-HFTN
REM
REM
REM
REM
REM
REM ./C.cell (b20cbc046b6831c77cfcea5457e17084)
REM AIRSS Version 0.9.1 bugfix July 2018 build 013d7b7c2542+ Fri, 06 Jul 2018 19:26:36 +0100
REM compiler GCC version 9.2.1 20190827 (Red Hat 9.2.1-1)
REM options -cpp -mtune=generic -march=x86-64 -g -O0 -fpre-include=/usr/include/finclude/math-vector-fortran.h
REM seed 2073023818 1841560 1924137640 981192155 -1179891421 -1565078712 -2139837593 2100065861 774677527 -490219312 -226999563 1916058831 -1064563253 -1572165941 2015462425 336817789 81811579 40554678 403880373 2060975713 592276128 -869494820 -1543715185 -89878768 1504837369 775183368 1485411014 1322559185 -1002809084 -652976709 -504652105 -1133076651 1837143369
REM
CELL 1.54180   50.00000   50.00000   50.00000   90.00000   90.00000   90.00000
LATT -1
SFAC C  
C      1  0.4820040000000  0.5194670000000  0.4470800000000 1.0
C      1  0.5230700000000  0.4433670000000  0.4880660000000 1.0
C      1  0.4479650000000  0.4748480000000  0.5276350000000 1.0
C      1  0.5268090000000  0.4747950000000  0.4494400000000 1.0
C      1  0.4847590000000  0.4766210000000  0.5622210000000 1.0
C      1  0.5249150000000  0.5168940000000  0.5622010000000 1.0
C      1  0.4822400000000  0.5547100000000  0.4826990000000 1.0
C      1  0.5265650000000  0.5536760000000  0.5275960000000 1.0
C      1  0.4858860000000  0.4422950000000  0.5246330000000 1.0
C      1  0.5592260000000  0.5158490000000  0.5245960000000 1.0
C      1  0.4467810000000  0.5191470000000  0.4827170000000 1.0
C      1  0.5582440000000  0.4786440000000  0.4880490000000 1.0
C      1  0.4958380000000  0.4802800000000  0.5048130000000 1.0
C      1  0.4544620000000  0.5215470000000  0.5239360000000 1.0
C      1  0.5234170000000  0.5228930000000  0.4531740000000 1.0
C      1  0.4798820000000  0.5470410000000  0.5239240000000 1.0
C      1  0.5235710000000  0.5483430000000  0.4788160000000 1.0
C      1  0.4758250000000  0.4521270000000  0.4762160000000 1.0
C      1  0.5212610000000  0.5057760000000  0.5048000000000 1.0
C      1  0.4532660000000  0.4778320000000  0.4788500000000 1.0
C      1  0.5493410000000  0.5258570000000  0.4761800000000 1.0
C      1  0.4787030000000  0.4780480000000  0.4531960000000 1.0
C      1  0.5112290000000  0.4903700000000  0.5326530000000 1.0
C      1  0.4773830000000  0.5241260000000  0.5499080000000 1.0
C      1  0.4509580000000  0.4963310000000  0.5047250000000 1.0
C      1  0.4976710000000  0.5039000000000  0.5562470000000 1.0
C      1  0.4964020000000  0.4507490000000  0.4976350000000 1.0
C      1  0.5044750000000  0.4970640000000  0.4507690000000 1.0
C      1  0.5050790000000  0.5506100000000  0.5046980000000 1.0
C      1  0.5507890000000  0.5052950000000  0.4976080000000 1.0
C      1  0.4706200000000  0.4613600000000  0.5411680000000 1.0
C      1  0.5394440000000  0.4622070000000  0.4730370000000 1.0
C      1  0.4685350000000  0.5329090000000  0.4690750000000 1.0
C      1  0.5401240000000  0.5310680000000  0.5411340000000 1.0
END
