TITL C-862507-1800-1119 0.00196455622598509 125000 -1155.7240081469 0 0 194 (C1) n - 1
REM
REM in /home/nfs/bkarasulu/CARBON/AIRSS/Generating-Clusters/TERSOFF/Higher-Symm/FIRE-HFTN
REM
REM
REM
REM
REM
REM ./C.cell (b20cbc046b6831c77cfcea5457e17084)
REM AIRSS Version 0.9.1 bugfix July 2018 build 013d7b7c2542+ Fri, 06 Jul 2018 19:26:36 +0100
REM compiler GCC version 9.2.1 20190827 (Red Hat 9.2.1-1)
REM options -cpp -mtune=generic -march=x86-64 -g -O0 -fpre-include=/usr/include/finclude/math-vector-fortran.h
REM seed 1745411817 509221623 -1588484491 1026258520 666675446 445765794 -147311406 -2006985403 -908597016 -2061115378 -1808674302 -657009637 -308703071 -1790361852 -828418371 -989657516 -1962190874 -228488246 -442062095 -1623445696 -1398528268 822596829 170664387 1663862544 -1122686277 1361366224 178308873 -616584305 1678830885 -204031136 -519849600 1770205514 -241446324
REM
CELL 1.54180   50.00000   50.00000   50.00000   90.00000   90.00000   90.00000
LATT -1
SFAC C  
C      1  0.4620760000000  0.4865500000000  0.5674570000000 1.0
C      1  0.4672070000000  0.5282000000000  0.5684890000000 1.0
C      1  0.5074480000000  0.5401290000000  0.5673400000000 1.0
C      1  0.5408150000000  0.5146970000000  0.5687590000000 1.0
C      1  0.5311960000000  0.4738360000000  0.5675400000000 1.0
C      1  0.4924970000000  0.4576330000000  0.5688330000000 1.0
C      1  0.4615380000000  0.4863270000000  0.4334430000000 1.0
C      1  0.4669380000000  0.5279290000000  0.4319610000000 1.0
C      1  0.5072320000000  0.5396800000000  0.4333510000000 1.0
C      1  0.5407060000000  0.5143750000000  0.4322500000000 1.0
C      1  0.5305530000000  0.4736550000000  0.4335670000000 1.0
C      1  0.4918950000000  0.4573410000000  0.4322720000000 1.0
C      1  0.4881730000000  0.5569050000000  0.5340150000000 1.0
C      1  0.5450240000000  0.5421370000000  0.5343140000000 1.0
C      1  0.5559090000000  0.4823720000000  0.5346750000000 1.0
C      1  0.5138550000000  0.4401850000000  0.5345720000000 1.0
C      1  0.4569570000000  0.4607170000000  0.5347400000000 1.0
C      1  0.4414690000000  0.5178630000000  0.5342600000000 1.0
C      1  0.4874330000000  0.5571050000000  0.4660360000000 1.0
C      1  0.5446930000000  0.5419110000000  0.4665140000000 1.0
C      1  0.5550170000000  0.4818400000000  0.4667070000000 1.0
C      1  0.5140160000000  0.4402120000000  0.4667810000000 1.0
C      1  0.4566180000000  0.4612410000000  0.4667590000000 1.0
C      1  0.4409840000000  0.5178830000000  0.4664580000000 1.0
C      1  0.5150210000000  0.5920050000000  0.4369330000000 1.0
C      1  0.5861070000000  0.5326940000000  0.4362180000000 1.0
C      1  0.5724180000000  0.4405530000000  0.4381770000000 1.0
C      1  0.4854390000000  0.4090370000000  0.4361190000000 1.0
C      1  0.4122000000000  0.4667050000000  0.4379390000000 1.0
C      1  0.4277320000000  0.5580250000000  0.4355370000000 1.0
C      1  0.5151220000000  0.5926870000000  0.5627500000000 1.0
C      1  0.5864510000000  0.5336850000000  0.5651800000000 1.0
C      1  0.5724220000000  0.4410880000000  0.5639630000000 1.0
C      1  0.4856910000000  0.4084300000000  0.5651100000000 1.0
C      1  0.4128750000000  0.4671070000000  0.5637750000000 1.0
C      1  0.4285770000000  0.5582990000000  0.5644970000000 1.0
C      1  0.5076260000000  0.3862010000000  0.5170000000000 1.0
C      1  0.4058130000000  0.4469650000000  0.5115010000000 1.0
C      1  0.3982660000000  0.5504930000000  0.5164900000000 1.0
C      1  0.4877480000000  0.6046130000000  0.5151760000000 1.0
C      1  0.5948980000000  0.5637180000000  0.5169550000000 1.0
C      1  0.5931450000000  0.4448090000000  0.5114800000000 1.0
C      1  0.5070860000000  0.3865080000000  0.4842550000000 1.0
C      1  0.4155880000000  0.4370780000000  0.4855340000000 1.0
C      1  0.3974200000000  0.5503840000000  0.4837400000000 1.0
C      1  0.5012480000000  0.6082020000000  0.4892600000000 1.0
C      1  0.5946080000000  0.5629010000000  0.4842010000000 1.0
C      1  0.5966440000000  0.4583350000000  0.4855650000000 1.0
C      1  0.5054540000000  0.5784920000000  0.5885980000000 1.0
C      1  0.5705040000000  0.5347060000000  0.5907150000000 1.0
C      1  0.5654790000000  0.4560520000000  0.5894820000000 1.0
C      1  0.4946300000000  0.4217380000000  0.5905330000000 1.0
C      1  0.4292280000000  0.4656430000000  0.5893140000000 1.0
C      1  0.4350060000000  0.5441080000000  0.5902510000000 1.0
C      1  0.5055460000000  0.5785400000000  0.4114100000000 1.0
C      1  0.5706070000000  0.5342300000000  0.4104520000000 1.0
C      1  0.5649760000000  0.4560050000000  0.4123280000000 1.0
C      1  0.4944650000000  0.4216820000000  0.4102420000000 1.0
C      1  0.4293460000000  0.4654390000000  0.4120930000000 1.0
C      1  0.4348050000000  0.5437010000000  0.4099930000000 1.0
C      1  0.6034740000000  0.4883340000000  0.5783460000000 1.0
C      1  0.5415040000000  0.4046080000000  0.5799780000000 1.0
C      1  0.4379820000000  0.4165390000000  0.5782960000000 1.0
C      1  0.3967160000000  0.5121270000000  0.5796340000000 1.0
C      1  0.4591640000000  0.5953830000000  0.5783600000000 1.0
C      1  0.5616020000000  0.5840350000000  0.5813520000000 1.0
C      1  0.6028410000000  0.4876030000000  0.4224300000000 1.0
C      1  0.5416000000000  0.4046510000000  0.4196900000000 1.0
C      1  0.4379560000000  0.4168960000000  0.4222840000000 1.0
C      1  0.3965050000000  0.5113310000000  0.4193510000000 1.0
C      1  0.4585820000000  0.5954030000000  0.4224340000000 1.0
C      1  0.5620870000000  0.5834030000000  0.4210500000000 1.0
C      1  0.4887260000000  0.4706370000000  0.4034510000000 1.0
C      1  0.4692750000000  0.4948940000000  0.4041850000000 1.0
C      1  0.4801130000000  0.5243320000000  0.4031800000000 1.0
C      1  0.5107890000000  0.5289910000000  0.4040910000000 1.0
C      1  0.5308290000000  0.5049510000000  0.4034060000000 1.0
C      1  0.5195420000000  0.4759640000000  0.4042910000000 1.0
C      1  0.4889500000000  0.4707670000000  0.5976530000000 1.0
C      1  0.4695110000000  0.4949890000000  0.5967240000000 1.0
C      1  0.4802610000000  0.5243900000000  0.5973600000000 1.0
C      1  0.5110130000000  0.5291740000000  0.5966070000000 1.0
C      1  0.5311430000000  0.5051040000000  0.5975650000000 1.0
C      1  0.5198910000000  0.4761680000000  0.5968000000000 1.0
C      1  0.5300300000000  0.4882360000000  0.4826700000000 1.0
C      1  0.5057700000000  0.4617350000000  0.4853430000000 1.0
C      1  0.4745960000000  0.4799000000000  0.4826260000000 1.0
C      1  0.4637700000000  0.5142570000000  0.4850240000000 1.0
C      1  0.4950130000000  0.5322090000000  0.4821820000000 1.0
C      1  0.5300560000000  0.5243170000000  0.4851460000000 1.0
C      1  0.5303850000000  0.4881310000000  0.5186790000000 1.0
C      1  0.5059270000000  0.4617100000000  0.5159720000000 1.0
C      1  0.4747140000000  0.4797280000000  0.5186370000000 1.0
C      1  0.4640550000000  0.5140160000000  0.5156560000000 1.0
C      1  0.4953450000000  0.5320040000000  0.5181910000000 1.0
C      1  0.5304970000000  0.5241760000000  0.5157790000000 1.0
C      1  0.4512100000000  0.4030910000000  0.4707920000000 1.0
C      1  0.3953730000000  0.5006850000000  0.4696570000000 1.0
C      1  0.4350550000000  0.5927660000000  0.4698490000000 1.0
C      1  0.5513460000000  0.5958530000000  0.4710530000000 1.0
C      1  0.6082270000000  0.5061390000000  0.4708950000000 1.0
C      1  0.5514850000000  0.4090510000000  0.4699600000000 1.0
C      1  0.4520340000000  0.3975050000000  0.5308080000000 1.0
C      1  0.3913440000000  0.4965460000000  0.5296370000000 1.0
C      1  0.4405460000000  0.5907470000000  0.5298260000000 1.0
C      1  0.5529450000000  0.5902780000000  0.5310360000000 1.0
C      1  0.6128430000000  0.5099420000000  0.5308580000000 1.0
C      1  0.5574680000000  0.4076620000000  0.5299060000000 1.0
C      1  0.3740400000000  0.5144030000000  0.4848890000000 1.0
C      1  0.4485140000000  0.6135680000000  0.4859500000000 1.0
C      1  0.5752190000000  0.6037790000000  0.4862410000000 1.0
C      1  0.6144080000000  0.4818710000000  0.4867590000000 1.0
C      1  0.5503020000000  0.3837330000000  0.4852260000000 1.0
C      1  0.4270310000000  0.4098880000000  0.4866320000000 1.0
C      1  0.3725360000000  0.5132380000000  0.5144380000000 1.0
C      1  0.4584870000000  0.6082390000000  0.5139650000000 1.0
C      1  0.5754880000000  0.6018890000000  0.5157920000000 1.0
C      1  0.6240620000000  0.4878480000000  0.5147560000000 1.0
C      1  0.5522320000000  0.3830300000000  0.5147670000000 1.0
C      1  0.4273450000000  0.3985610000000  0.5146300000000 1.0
C      1  0.4687230000000  0.5523270000000  0.5537730000000 1.0
C      1  0.5281590000000  0.5538980000000  0.5535170000000 1.0
C      1  0.5612280000000  0.5020700000000  0.5539370000000 1.0
C      1  0.5324350000000  0.4487960000000  0.5538710000000 1.0
C      1  0.4713470000000  0.4462850000000  0.5540090000000 1.0
C      1  0.4397420000000  0.4977370000000  0.5537700000000 1.0
C      1  0.4677140000000  0.5519140000000  0.4467720000000 1.0
C      1  0.5281260000000  0.5534380000000  0.4469820000000 1.0
C      1  0.5608200000000  0.5009450000000  0.4469390000000 1.0
C      1  0.5323500000000  0.4488990000000  0.4473630000000 1.0
C      1  0.4702620000000  0.4466330000000  0.4470110000000 1.0
C      1  0.4392430000000  0.4973940000000  0.4472490000000 1.0
C      1  0.5378480000000  0.4505730000000  0.6018410000000 1.0
C      1  0.4749430000000  0.4421120000000  0.6036570000000 1.0
C      1  0.4383330000000  0.4922890000000  0.6015950000000 1.0
C      1  0.4625210000000  0.5508460000000  0.6035130000000 1.0
C      1  0.5240340000000  0.5575770000000  0.6017260000000 1.0
C      1  0.5628410000000  0.5073910000000  0.6037370000000 1.0
C      1  0.5375560000000  0.4504360000000  0.3993030000000 1.0
C      1  0.4747480000000  0.4421310000000  0.3971120000000 1.0
C      1  0.4382000000000  0.4920010000000  0.3990170000000 1.0
C      1  0.4623430000000  0.5506960000000  0.3969960000000 1.0
C      1  0.5240570000000  0.5572970000000  0.3991650000000 1.0
C      1  0.5626280000000  0.5069970000000  0.3972310000000 1.0
C      1  0.5595240000000  0.4127230000000  0.4412390000000 1.0
C      1  0.4561560000000  0.4047880000000  0.4410960000000 1.0
C      1  0.3945390000000  0.4918140000000  0.4409510000000 1.0
C      1  0.4372300000000  0.5862120000000  0.4400380000000 1.0
C      1  0.5451170000000  0.5964720000000  0.4409790000000 1.0
C      1  0.6043730000000  0.5094670000000  0.4411800000000 1.0
C      1  0.5612220000000  0.4127810000000  0.5599650000000 1.0
C      1  0.4565510000000  0.4025680000000  0.5606680000000 1.0
C      1  0.3939200000000  0.4908830000000  0.5597160000000 1.0
C      1  0.4395270000000  0.5857490000000  0.5595540000000 1.0
C      1  0.5456800000000  0.5954570000000  0.5597380000000 1.0
C      1  0.6061310000000  0.5113840000000  0.5606860000000 1.0
C      1  0.5625840000000  0.4317440000000  0.5141440000000 1.0
C      1  0.4768690000000  0.4034000000000  0.5162610000000 1.0
C      1  0.4096760000000  0.4800290000000  0.5139490000000 1.0
C      1  0.4298050000000  0.5676100000000  0.5152490000000 1.0
C      1  0.5293560000000  0.5816160000000  0.5162290000000 1.0
C      1  0.5954030000000  0.5285460000000  0.5162690000000 1.0
C      1  0.5558780000000  0.4338210000000  0.4847280000000 1.0
C      1  0.4765860000000  0.4052770000000  0.4854240000000 1.0
C      1  0.4146660000000  0.4845970000000  0.4844710000000 1.0
C      1  0.4276400000000  0.5683760000000  0.4844440000000 1.0
C      1  0.5278840000000  0.5882670000000  0.4867610000000 1.0
C      1  0.5936150000000  0.5270410000000  0.4854680000000 1.0
C      1  0.5244320000000  0.4236490000000  0.4053840000000 1.0
C      1  0.4451530000000  0.4404450000000  0.4065670000000 1.0
C      1  0.4215580000000  0.5167340000000  0.4050650000000 1.0
C      1  0.4755870000000  0.5770870000000  0.4066020000000 1.0
C      1  0.5538920000000  0.5592400000000  0.4061240000000 1.0
C      1  0.5787950000000  0.4821380000000  0.4067450000000 1.0
C      1  0.5246500000000  0.4237690000000  0.5949090000000 1.0
C      1  0.4454360000000  0.4404260000000  0.5941120000000 1.0
C      1  0.4217200000000  0.5171360000000  0.5945890000000 1.0
C      1  0.4759110000000  0.5773150000000  0.5940880000000 1.0
C      1  0.5537720000000  0.5596420000000  0.5956560000000 1.0
C      1  0.5791340000000  0.4827550000000  0.5942100000000 1.0
C      1  0.5698370000000  0.4564390000000  0.5363640000000 1.0
C      1  0.5001780000000  0.4145480000000  0.5380980000000 1.0
C      1  0.4275150000000  0.4615580000000  0.5362950000000 1.0
C      1  0.4263500000000  0.5425540000000  0.5375790000000 1.0
C      1  0.5027770000000  0.5832170000000  0.5329480000000 1.0
C      1  0.5740070000000  0.5431620000000  0.5380550000000 1.0
C      1  0.5705020000000  0.4560250000000  0.4678860000000 1.0
C      1  0.5001510000000  0.4148540000000  0.4631860000000 1.0
C      1  0.4265500000000  0.4607750000000  0.4677780000000 1.0
C      1  0.4256690000000  0.5425060000000  0.4626720000000 1.0
C      1  0.5029280000000  0.5821430000000  0.4644440000000 1.0
C      1  0.5736310000000  0.5425790000000  0.4631460000000 1.0
C      1  0.5001520000000  0.5000920000000  0.5315540000000 1.0
C      1  0.4998730000000  0.4999800000000  0.4694590000000 1.0
END
