TITL C-862506-1665-524 8.53432032993959e-06 125000 -146.159484465358 0 0 30 (D6h) n - 1
REM
REM in /home/nfs/bkarasulu/CARBON/AIRSS/Generating-Clusters/TERSOFF/Higher-Symm/FIRE-HFTN
REM
REM
REM
REM
REM
REM ./C.cell (b20cbc046b6831c77cfcea5457e17084)
REM AIRSS Version 0.9.1 bugfix July 2018 build 013d7b7c2542+ Fri, 06 Jul 2018 19:26:36 +0100
REM compiler GCC version 9.2.1 20190827 (Red Hat 9.2.1-1)
REM options -cpp -mtune=generic -march=x86-64 -g -O0 -fpre-include=/usr/include/finclude/math-vector-fortran.h
REM seed 1817182963 -1370579438 847730910 220736647 -1823806871 -1599992869 1714556500 1268175285 -850872214 -990750983 1190288501 303414758 228580441 -1976420798 1301925967 -1375966995 -1517278553 -1590173905 -138433271 1740340734 -1298994042 -463869617 -190848432 1651087977 -1793779934 691209748 184427916 -611399449 -1496600452 -1640739971 1863932402 -1589156125 139480640
REM
CELL 1.54180   50.00000   50.00000   50.00000   90.00000   90.00000   90.00000
LATT -1
SFAC C  
C      1  0.4756350000000  0.5125640000000  0.5296320000000 1.0
C      1  0.4756350000000  0.5319450000000  0.5039350000000 1.0
C      1  0.4756350000000  0.5193800000000  0.4743030000000 1.0
C      1  0.4756350000000  0.4874360000000  0.4703680000000 1.0
C      1  0.4756350000000  0.4680550000000  0.4960650000000 1.0
C      1  0.4756350000000  0.4806200000000  0.5256970000000 1.0
C      1  0.5277160000000  0.5125640000000  0.5296320000000 1.0
C      1  0.5277160000000  0.5319450000000  0.5039350000000 1.0
C      1  0.5277160000000  0.5193800000000  0.4743030000000 1.0
C      1  0.5277160000000  0.4874360000000  0.4703680000000 1.0
C      1  0.5277160000000  0.4680550000000  0.4960650000000 1.0
C      1  0.5277160000000  0.4806200000000  0.5256970000000 1.0
C      1  0.4420120000000  0.5193750000000  0.4743100000000 1.0
C      1  0.4420120000000  0.4874390000000  0.4703760000000 1.0
C      1  0.4420120000000  0.4680640000000  0.4960660000000 1.0
C      1  0.4420120000000  0.4806250000000  0.5256900000000 1.0
C      1  0.4420120000000  0.5125610000000  0.5296240000000 1.0
C      1  0.4420120000000  0.5319360000000  0.5039340000000 1.0
C      1  0.5613390000000  0.5193750000000  0.4743100000000 1.0
C      1  0.5613390000000  0.4874390000000  0.4703760000000 1.0
C      1  0.5613390000000  0.4680640000000  0.4960660000000 1.0
C      1  0.5613390000000  0.4806250000000  0.5256900000000 1.0
C      1  0.5613390000000  0.5125610000000  0.5296240000000 1.0
C      1  0.5613390000000  0.5319360000000  0.5039340000000 1.0
C      1  0.5016760000000  0.4813300000000  0.4559690000000 1.0
C      1  0.5016760000000  0.5474670000000  0.5058470000000 1.0
C      1  0.5016760000000  0.5287970000000  0.4618160000000 1.0
C      1  0.5016760000000  0.4525330000000  0.4941530000000 1.0
C      1  0.5016760000000  0.4712030000000  0.5381840000000 1.0
C      1  0.5016760000000  0.5186700000000  0.5440310000000 1.0
END
