TITL C-862502-1143-1216 -7.78336151105053e-05 125000 -247.665517808417 0 0 46 (D2) n - 1
REM
REM in /home/nfs/bkarasulu/CARBON/AIRSS/Generating-Clusters/TERSOFF/Higher-Symm/FIRE-HFTN
REM
REM
REM
REM
REM
REM ./C.cell (b20cbc046b6831c77cfcea5457e17084)
REM AIRSS Version 0.9.1 bugfix July 2018 build 013d7b7c2542+ Fri, 06 Jul 2018 19:26:36 +0100
REM compiler GCC version 9.2.1 20190827 (Red Hat 9.2.1-1)
REM options -cpp -mtune=generic -march=x86-64 -g -O0 -fpre-include=/usr/include/finclude/math-vector-fortran.h
REM seed 163968838 -657077769 -1020195030 134298931 -102335972 -1590196347 245177903 517449316 1392283118 -723140346 -911711960 605844920 522157843 2023098649 -2086068948 -1172957358 1541685495 1992284054 -2028378060 341579785 -1117729901 -182191024 499439382 1341185818 1694256602 852949843 -1506532292 -602357910 661253932 307145448 1429865530 583813568 2067346186
REM
CELL 1.54180   50.00000   50.00000   50.00000   90.00000   90.00000   90.00000
LATT -1
SFAC C  
C      1  0.4624020000000  0.5241230000000  0.5485460000000 1.0
C      1  0.5375980000000  0.5241230000000  0.4514540000000 1.0
C      1  0.5375980000000  0.4778280000000  0.5485460000000 1.0
C      1  0.4624020000000  0.4778280000000  0.4514540000000 1.0
C      1  0.4454320000000  0.4942910000000  0.4749590000000 1.0
C      1  0.5545680000000  0.4942910000000  0.5250410000000 1.0
C      1  0.5545680000000  0.5076600000000  0.4749590000000 1.0
C      1  0.4454320000000  0.5076600000000  0.5250410000000 1.0
C      1  0.4400390000000  0.5196400000000  0.4562240000000 1.0
C      1  0.5599610000000  0.5196400000000  0.5437760000000 1.0
C      1  0.5599610000000  0.4823110000000  0.4562240000000 1.0
C      1  0.4400390000000  0.4823110000000  0.5437760000000 1.0
C      1  0.4761800000000  0.5721570000000  0.4964800000000 1.0
C      1  0.5238200000000  0.5721570000000  0.5035200000000 1.0
C      1  0.5238200000000  0.4297940000000  0.4964800000000 1.0
C      1  0.4761800000000  0.4297940000000  0.5035200000000 1.0
C      1  0.4843800000000  0.4816880000000  0.5082370000000 1.0
C      1  0.5156200000000  0.4816880000000  0.4917630000000 1.0
C      1  0.5156200000000  0.5202630000000  0.5082370000000 1.0
C      1  0.4843800000000  0.5202630000000  0.4917630000000 1.0
C      1  0.5135800000000  0.5399940000000  0.4617640000000 1.0
C      1  0.4864200000000  0.5399940000000  0.5382360000000 1.0
C      1  0.4864200000000  0.4619570000000  0.4617640000000 1.0
C      1  0.5135800000000  0.4619570000000  0.5382360000000 1.0
C      1  0.4833040000000  0.5798410000000  0.4689330000000 1.0
C      1  0.5166960000000  0.5798410000000  0.5310670000000 1.0
C      1  0.5166960000000  0.4221100000000  0.4689330000000 1.0
C      1  0.4833040000000  0.4221100000000  0.5310670000000 1.0
C      1  0.4806100000000  0.4565250000000  0.4918060000000 1.0
C      1  0.5193900000000  0.4565250000000  0.5081940000000 1.0
C      1  0.5193900000000  0.5454260000000  0.4918060000000 1.0
C      1  0.4806100000000  0.5454260000000  0.5081940000000 1.0
C      1  0.5317910000000  0.4912630000000  0.4437650000000 1.0
C      1  0.4682090000000  0.4912630000000  0.5562350000000 1.0
C      1  0.4682090000000  0.5106880000000  0.4437650000000 1.0
C      1  0.5317910000000  0.5106880000000  0.5562350000000 1.0
C      1  0.4926210000000  0.4864700000000  0.5376020000000 1.0
C      1  0.5073790000000  0.4864700000000  0.4623980000000 1.0
C      1  0.5073790000000  0.5154810000000  0.5376020000000 1.0
C      1  0.4926210000000  0.5154810000000  0.4623980000000 1.0
C      1  0.4986880000000  0.5647370000000  0.5481420000000 1.0
C      1  0.5013120000000  0.5647370000000  0.4518580000000 1.0
C      1  0.5013120000000  0.4372140000000  0.5481420000000 1.0
C      1  0.4986880000000  0.4372140000000  0.4518580000000 1.0
C      1  0.4613140000000  0.5009750000000  0.5000000000000 1.0
C      1  0.5386860000000  0.5009750000000  0.5000000000000 1.0
END
