TITL C-862131-2149-700 -0.0418385484095328 125000 -425.685998064263 0 0 76 (C2) n - 1
REM
REM in /home/nfs/bkarasulu/CARBON/AIRSS/Generating-Clusters/TERSOFF/Higher-Symm/FIRE-HFTN
REM
REM
REM
REM
REM
REM ./C.cell (b20cbc046b6831c77cfcea5457e17084)
REM AIRSS Version 0.9.1 bugfix July 2018 build 013d7b7c2542+ Fri, 06 Jul 2018 19:26:36 +0100
REM compiler GCC version 9.2.1 20190827 (Red Hat 9.2.1-1)
REM options -cpp -mtune=generic -march=x86-64 -g -O0 -fpre-include=/usr/include/finclude/math-vector-fortran.h
REM seed 792767518 -139503494 563966548 -1425910047 506522605 -1290216304 -515858543 -1191730113 -587595835 1226549244 -1861524121 -499221772 -1748173953 -1204419945 1363456898 -976687405 -1759617261 -1604375193 -808842042 1072723928 352805084 -428268518 -1376680036 1721523252 -892163983 380358933 -1315401414 1899862647 718495161 -721114098 -93520117 -1639257726 98219175
REM
CELL 1.54180   50.00000   50.00000   50.00000   90.00000   90.00000   90.00000
LATT -1
SFAC C  
C      1  0.4583240000000  0.5510700000000  0.4821200000000 1.0
C      1  0.5416760000000  0.4489300000000  0.4821200000000 1.0
C      1  0.5319280000000  0.5645050000000  0.4824020000000 1.0
C      1  0.4680720000000  0.4354950000000  0.4824020000000 1.0
C      1  0.4768400000000  0.5242500000000  0.5722540000000 1.0
C      1  0.5231600000000  0.4757500000000  0.5722540000000 1.0
C      1  0.5115540000000  0.4694870000000  0.5432590000000 1.0
C      1  0.4884460000000  0.5305130000000  0.5432590000000 1.0
C      1  0.4774740000000  0.4496920000000  0.4376760000000 1.0
C      1  0.5225260000000  0.5503080000000  0.4376760000000 1.0
C      1  0.5762310000000  0.5324560000000  0.4973390000000 1.0
C      1  0.4237690000000  0.4675440000000  0.4973390000000 1.0
C      1  0.5132210000000  0.5166000000000  0.5496730000000 1.0
C      1  0.4867790000000  0.4834000000000  0.5496730000000 1.0
C      1  0.5414720000000  0.4403240000000  0.5391350000000 1.0
C      1  0.4585280000000  0.5596760000000  0.5391350000000 1.0
C      1  0.4948480000000  0.5315840000000  0.5118060000000 1.0
C      1  0.5051520000000  0.4684160000000  0.5118060000000 1.0
C      1  0.4698740000000  0.4736250000000  0.5739860000000 1.0
C      1  0.5301260000000  0.5263750000000  0.5739860000000 1.0
C      1  0.4652130000000  0.4474180000000  0.5495330000000 1.0
C      1  0.5347870000000  0.5525820000000  0.5495330000000 1.0
C      1  0.4815270000000  0.4748350000000  0.4234370000000 1.0
C      1  0.5184730000000  0.5251650000000  0.4234370000000 1.0
C      1  0.4995160000000  0.4844190000000  0.5896460000000 1.0
C      1  0.5004840000000  0.5155810000000  0.5896460000000 1.0
C      1  0.4410590000000  0.4507280000000  0.5241360000000 1.0
C      1  0.5589410000000  0.5492720000000  0.5241360000000 1.0
C      1  0.4866590000000  0.4823330000000  0.4726030000000 1.0
C      1  0.5133410000000  0.5176670000000  0.4726030000000 1.0
C      1  0.5089910000000  0.4810240000000  0.4339110000000 1.0
C      1  0.4910090000000  0.5189760000000  0.4339110000000 1.0
C      1  0.4894440000000  0.4275230000000  0.5443120000000 1.0
C      1  0.5105560000000  0.5724770000000  0.5443120000000 1.0
C      1  0.4442630000000  0.5358010000000  0.5288190000000 1.0
C      1  0.5557370000000  0.4641990000000  0.5288190000000 1.0
C      1  0.5398150000000  0.5049800000000  0.4185140000000 1.0
C      1  0.4601850000000  0.4950200000000  0.4185140000000 1.0
C      1  0.5929520000000  0.5085940000000  0.5032910000000 1.0
C      1  0.4070480000000  0.4914060000000  0.5032910000000 1.0
C      1  0.4630730000000  0.4543220000000  0.5039430000000 1.0
C      1  0.5369270000000  0.5456780000000  0.5039430000000 1.0
C      1  0.4621740000000  0.5458800000000  0.4491290000000 1.0
C      1  0.5378260000000  0.4541200000000  0.4491290000000 1.0
C      1  0.4363490000000  0.4689660000000  0.4682430000000 1.0
C      1  0.5636510000000  0.5310340000000  0.4682430000000 1.0
C      1  0.5594850000000  0.4678480000000  0.4996020000000 1.0
C      1  0.4405150000000  0.5321520000000  0.4996020000000 1.0
C      1  0.4720260000000  0.4946030000000  0.5290890000000 1.0
C      1  0.5279740000000  0.5053970000000  0.5290890000000 1.0
C      1  0.4436800000000  0.4979450000000  0.4646660000000 1.0
C      1  0.5563200000000  0.5020550000000  0.4646660000000 1.0
C      1  0.4846360000000  0.5578910000000  0.4970900000000 1.0
C      1  0.5153640000000  0.4421090000000  0.4970900000000 1.0
C      1  0.4949120000000  0.5609960000000  0.4489990000000 1.0
C      1  0.5050880000000  0.4390040000000  0.4489990000000 1.0
C      1  0.5501650000000  0.4867480000000  0.4398710000000 1.0
C      1  0.4498350000000  0.5132520000000  0.4398710000000 1.0
C      1  0.5032230000000  0.5688400000000  0.4772060000000 1.0
C      1  0.4967770000000  0.4311600000000  0.4772060000000 1.0
C      1  0.4545250000000  0.5037210000000  0.5698720000000 1.0
C      1  0.5454750000000  0.4962790000000  0.5698720000000 1.0
C      1  0.5452120000000  0.5532760000000  0.4583870000000 1.0
C      1  0.4547880000000  0.4467240000000  0.4583870000000 1.0
C      1  0.4758840000000  0.4811820000000  0.5022160000000 1.0
C      1  0.5241160000000  0.5188180000000  0.5022160000000 1.0
C      1  0.4841150000000  0.5137160000000  0.4641130000000 1.0
C      1  0.5158850000000  0.4862840000000  0.4641130000000 1.0
C      1  0.4585180000000  0.5094450000000  0.4876670000000 1.0
C      1  0.5414820000000  0.4905550000000  0.4876670000000 1.0
C      1  0.5864070000000  0.4809990000000  0.4947700000000 1.0
C      1  0.4135930000000  0.5190010000000  0.4947700000000 1.0
C      1  0.5157490000000  0.4308750000000  0.5273040000000 1.0
C      1  0.4842510000000  0.5691250000000  0.5273040000000 1.0
C      1  0.4486950000000  0.5091250000000  0.5399810000000 1.0
C      1  0.5513050000000  0.4908750000000  0.5399810000000 1.0
END
