TITL C-862129-6180-935 -9.57128184273155e-05 125000 -1043.98922960914 0 0 184 (T23) n - 1
REM
REM in /home/nfs/bkarasulu/CARBON/AIRSS/Generating-Clusters/TERSOFF/Higher-Symm/FIRE-HFTN
REM
REM
REM
REM
REM
REM ./C.cell (b20cbc046b6831c77cfcea5457e17084)
REM AIRSS Version 0.9.1 bugfix July 2018 build 013d7b7c2542+ Fri, 06 Jul 2018 19:26:36 +0100
REM compiler GCC version 9.2.1 20190827 (Red Hat 9.2.1-1)
REM options -cpp -mtune=generic -march=x86-64 -g -O0 -fpre-include=/usr/include/finclude/math-vector-fortran.h
REM seed -1595640061 -557075429 -237789492 -934567557 2071674119 725334408 -1417154340 1486765699 1739276894 1781893580 92053745 183243441 -2059779564 1343251237 -1308715011 1362406650 -1699616068 -272212827 -852300820 -1655724495 -1028368399 -1876546176 780009517 -1567188974 934296062 1299729285 733326803 1287339784 1013157970 -580916731 1556236898 764977928 1746649190
REM
CELL 1.54180   50.00000   50.00000   50.00000   90.00000   90.00000   90.00000
LATT -1
SFAC C  
C      1  0.3950190000000  0.5122620000000  0.5373450000000 1.0
C      1  0.5374380000000  0.3948990000000  0.5122890000000 1.0
C      1  0.5123820000000  0.5373180000000  0.3949260000000 1.0
C      1  0.6049270000000  0.5122620000000  0.4624150000000 1.0
C      1  0.3950190000000  0.4874440000000  0.4624150000000 1.0
C      1  0.6049270000000  0.4874440000000  0.5373450000000 1.0
C      1  0.4625080000000  0.3948990000000  0.4874710000000 1.0
C      1  0.5374380000000  0.6048070000000  0.4874710000000 1.0
C      1  0.4625080000000  0.6048070000000  0.5122890000000 1.0
C      1  0.4875640000000  0.5373180000000  0.6048340000000 1.0
C      1  0.5123820000000  0.4623880000000  0.6048340000000 1.0
C      1  0.4875640000000  0.4623880000000  0.3949260000000 1.0
C      1  0.4419730000000  0.4002860000000  0.4662430000000 1.0
C      1  0.4663360000000  0.4418530000000  0.4003120000000 1.0
C      1  0.4004060000000  0.4662160000000  0.4418790000000 1.0
C      1  0.5579740000000  0.4002860000000  0.5335170000000 1.0
C      1  0.4419730000000  0.5994210000000  0.5335170000000 1.0
C      1  0.5579740000000  0.5994210000000  0.4662430000000 1.0
C      1  0.5336100000000  0.4418530000000  0.5994470000000 1.0
C      1  0.4663360000000  0.5578540000000  0.5994470000000 1.0
C      1  0.5336100000000  0.5578540000000  0.4003120000000 1.0
C      1  0.5995410000000  0.4662160000000  0.5578800000000 1.0
C      1  0.4004060000000  0.5334900000000  0.5578800000000 1.0
C      1  0.5995410000000  0.5334900000000  0.4418790000000 1.0
C      1  0.4105900000000  0.5267590000000  0.4541470000000 1.0
C      1  0.4542400000000  0.4104700000000  0.5267860000000 1.0
C      1  0.5268790000000  0.4541200000000  0.4104970000000 1.0
C      1  0.5893560000000  0.5267590000000  0.5456130000000 1.0
C      1  0.4105900000000  0.4729470000000  0.5456130000000 1.0
C      1  0.5893560000000  0.4729470000000  0.4541470000000 1.0
C      1  0.5457070000000  0.4104700000000  0.4729740000000 1.0
C      1  0.4542400000000  0.5892360000000  0.4729740000000 1.0
C      1  0.5457070000000  0.5892360000000  0.5267860000000 1.0
C      1  0.4730670000000  0.4541200000000  0.5892630000000 1.0
C      1  0.5268790000000  0.5455860000000  0.5892630000000 1.0
C      1  0.4730670000000  0.5455860000000  0.4104970000000 1.0
C      1  0.5713950000000  0.4552920000000  0.5667940000000 1.0
C      1  0.5668870000000  0.5712750000000  0.4553190000000 1.0
C      1  0.4554120000000  0.5667670000000  0.5713020000000 1.0
C      1  0.4285510000000  0.4552920000000  0.4329660000000 1.0
C      1  0.5713950000000  0.5444140000000  0.4329660000000 1.0
C      1  0.4285510000000  0.5444140000000  0.5667940000000 1.0
C      1  0.4330590000000  0.5712750000000  0.5444410000000 1.0
C      1  0.5668870000000  0.4284310000000  0.5444410000000 1.0
C      1  0.4330590000000  0.4284310000000  0.4553190000000 1.0
C      1  0.5445340000000  0.5667670000000  0.4284580000000 1.0
C      1  0.4554120000000  0.4329390000000  0.4284580000000 1.0
C      1  0.5445340000000  0.4329390000000  0.5713020000000 1.0
C      1  0.4852750000000  0.4717870000000  0.4357760000000 1.0
C      1  0.4358690000000  0.4851550000000  0.4718140000000 1.0
C      1  0.4719070000000  0.4357490000000  0.4851810000000 1.0
C      1  0.5146720000000  0.4717870000000  0.5639840000000 1.0
C      1  0.4852750000000  0.5279190000000  0.5639840000000 1.0
C      1  0.5146720000000  0.5279190000000  0.4357760000000 1.0
C      1  0.5640770000000  0.4851550000000  0.5279460000000 1.0
C      1  0.4358690000000  0.5145520000000  0.5279460000000 1.0
C      1  0.5640770000000  0.5145520000000  0.4718140000000 1.0
C      1  0.5280390000000  0.4357490000000  0.5145790000000 1.0
C      1  0.4719070000000  0.5639570000000  0.5145790000000 1.0
C      1  0.5280390000000  0.5639570000000  0.4851810000000 1.0
C      1  0.3958310000000  0.5161040000000  0.5060300000000 1.0
C      1  0.5061240000000  0.3957110000000  0.5161300000000 1.0
C      1  0.5162240000000  0.5060030000000  0.3957370000000 1.0
C      1  0.6041160000000  0.5161030000000  0.4937300000000 1.0
C      1  0.3958310000000  0.4836030000000  0.4937300000000 1.0
C      1  0.6041160000000  0.4836030000000  0.5060300000000 1.0
C      1  0.4938230000000  0.3957110000000  0.4836300000000 1.0
C      1  0.5061240000000  0.6039960000000  0.4836300000000 1.0
C      1  0.4938230000000  0.6039960000000  0.5161300000000 1.0
C      1  0.4837230000000  0.5060030000000  0.6040230000000 1.0
C      1  0.5162240000000  0.4937030000000  0.6040230000000 1.0
C      1  0.4837230000000  0.4937030000000  0.3957370000000 1.0
C      1  0.4874300000000  0.5085690000000  0.5358360000000 1.0
C      1  0.5359300000000  0.4873100000000  0.5085960000000 1.0
C      1  0.5086900000000  0.5358090000000  0.4873370000000 1.0
C      1  0.5125160000000  0.5085700000000  0.4639240000000 1.0
C      1  0.4874300000000  0.4911370000000  0.4639240000000 1.0
C      1  0.5125160000000  0.4911370000000  0.5358360000000 1.0
C      1  0.4640170000000  0.4873100000000  0.4911640000000 1.0
C      1  0.5359300000000  0.5123960000000  0.4911640000000 1.0
C      1  0.4640170000000  0.5123960000000  0.5085960000000 1.0
C      1  0.4912570000000  0.5358090000000  0.5124230000000 1.0
C      1  0.5086900000000  0.4638970000000  0.5124230000000 1.0
C      1  0.4912570000000  0.4638970000000  0.4873370000000 1.0
C      1  0.4458530000000  0.5308260000000  0.4906090000000 1.0
C      1  0.4907020000000  0.4457330000000  0.5308530000000 1.0
C      1  0.5309460000000  0.4905820000000  0.4457590000000 1.0
C      1  0.5540940000000  0.5308260000000  0.5091510000000 1.0
C      1  0.4458530000000  0.4688800000000  0.5091510000000 1.0
C      1  0.5540940000000  0.4688800000000  0.4906090000000 1.0
C      1  0.5092440000000  0.4457330000000  0.4689070000000 1.0
C      1  0.4907020000000  0.5539740000000  0.4689070000000 1.0
C      1  0.5092440000000  0.5539740000000  0.5308530000000 1.0
C      1  0.4690000000000  0.4905820000000  0.5540000000000 1.0
C      1  0.5309460000000  0.5091240000000  0.5540000000000 1.0
C      1  0.4690000000000  0.5091240000000  0.4457590000000 1.0
C      1  0.4237310000000  0.4539340000000  0.4749170000000 1.0
C      1  0.4750100000000  0.4236110000000  0.4539610000000 1.0
C      1  0.4540540000000  0.4748900000000  0.4236380000000 1.0
C      1  0.5762150000000  0.4539340000000  0.5248430000000 1.0
C      1  0.4237310000000  0.5457720000000  0.5248430000000 1.0
C      1  0.5762150000000  0.5457720000000  0.4749170000000 1.0
C      1  0.5249360000000  0.4236110000000  0.5457990000000 1.0
C      1  0.4750100000000  0.5760950000000  0.5457990000000 1.0
C      1  0.5249360000000  0.5760950000000  0.4539610000000 1.0
C      1  0.5458920000000  0.4748900000000  0.5761220000000 1.0
C      1  0.4540540000000  0.5248160000000  0.5761220000000 1.0
C      1  0.5458920000000  0.5248160000000  0.4236380000000 1.0
C      1  0.5675680000000  0.4205430000000  0.4891170000000 1.0
C      1  0.4892100000000  0.5674480000000  0.4205700000000 1.0
C      1  0.4206630000000  0.4890900000000  0.5674750000000 1.0
C      1  0.4323780000000  0.4205430000000  0.5106430000000 1.0
C      1  0.5675680000000  0.5791630000000  0.5106430000000 1.0
C      1  0.4323780000000  0.5791630000000  0.4891170000000 1.0
C      1  0.5107360000000  0.5674480000000  0.5791900000000 1.0
C      1  0.4892100000000  0.4322580000000  0.5791900000000 1.0
C      1  0.5107360000000  0.4322580000000  0.4205700000000 1.0
C      1  0.5792830000000  0.4890900000000  0.4322850000000 1.0
C      1  0.4206630000000  0.5106160000000  0.4322850000000 1.0
C      1  0.5792830000000  0.5106160000000  0.5674750000000 1.0
C      1  0.5884810000000  0.4441220000000  0.4517280000000 1.0
C      1  0.4518210000000  0.5883610000000  0.4441490000000 1.0
C      1  0.4442420000000  0.4517010000000  0.5883880000000 1.0
C      1  0.4114650000000  0.4441220000000  0.5480320000000 1.0
C      1  0.5884810000000  0.5555840000000  0.5480320000000 1.0
C      1  0.4114650000000  0.5555840000000  0.4517280000000 1.0
C      1  0.5481250000000  0.5883610000000  0.5556110000000 1.0
C      1  0.4518210000000  0.4113450000000  0.5556110000000 1.0
C      1  0.5481250000000  0.4113450000000  0.4441490000000 1.0
C      1  0.5557040000000  0.4517010000000  0.4113720000000 1.0
C      1  0.4442420000000  0.5480050000000  0.4113720000000 1.0
C      1  0.5557040000000  0.5480050000000  0.5883880000000 1.0
C      1  0.5154510000000  0.5186160000000  0.5796050000000 1.0
C      1  0.5796990000000  0.5153310000000  0.5186420000000 1.0
C      1  0.5187360000000  0.5795790000000  0.5153570000000 1.0
C      1  0.4844960000000  0.5186160000000  0.4201540000000 1.0
C      1  0.5154510000000  0.4810910000000  0.4201540000000 1.0
C      1  0.4844960000000  0.4810910000000  0.5796050000000 1.0
C      1  0.4202480000000  0.5153310000000  0.4811170000000 1.0
C      1  0.5796990000000  0.4843760000000  0.4811170000000 1.0
C      1  0.4202480000000  0.4843760000000  0.5186420000000 1.0
C      1  0.4812110000000  0.5795790000000  0.4844030000000 1.0
C      1  0.5187360000000  0.4201280000000  0.4844030000000 1.0
C      1  0.4812110000000  0.4201280000000  0.5153570000000 1.0
C      1  0.5491420000000  0.4963950000000  0.6007180000000 1.0
C      1  0.6008110000000  0.5490220000000  0.4964220000000 1.0
C      1  0.4965150000000  0.6006910000000  0.5490480000000 1.0
C      1  0.4508050000000  0.4963950000000  0.3990420000000 1.0
C      1  0.5491420000000  0.5033110000000  0.3990420000000 1.0
C      1  0.4508050000000  0.5033110000000  0.6007180000000 1.0
C      1  0.3991360000000  0.5490220000000  0.5033380000000 1.0
C      1  0.6008110000000  0.4506850000000  0.5033380000000 1.0
C      1  0.3991360000000  0.4506850000000  0.4964220000000 1.0
C      1  0.5034310000000  0.6006910000000  0.4507120000000 1.0
C      1  0.4965150000000  0.3990160000000  0.4507120000000 1.0
C      1  0.5034310000000  0.3990160000000  0.5490480000000 1.0
C      1  0.5678350000000  0.4784860000000  0.4072120000000 1.0
C      1  0.4073050000000  0.5677150000000  0.4785120000000 1.0
C      1  0.4786060000000  0.4071850000000  0.5677420000000 1.0
C      1  0.4321110000000  0.4784860000000  0.5925480000000 1.0
C      1  0.5678350000000  0.5212210000000  0.5925480000000 1.0
C      1  0.4321110000000  0.5212210000000  0.4072120000000 1.0
C      1  0.5926410000000  0.5677150000000  0.5212470000000 1.0
C      1  0.4073050000000  0.4319910000000  0.5212470000000 1.0
C      1  0.5926410000000  0.4319910000000  0.4785120000000 1.0
C      1  0.5213410000000  0.4071850000000  0.4320180000000 1.0
C      1  0.4786060000000  0.5925210000000  0.4320180000000 1.0
C      1  0.5213410000000  0.5925210000000  0.5677420000000 1.0
C      1  0.4439630000000  0.5574800000000  0.5049280000000 1.0
C      1  0.5050220000000  0.4438430000000  0.5575060000000 1.0
C      1  0.5576000000000  0.5049010000000  0.4438700000000 1.0
C      1  0.5559830000000  0.5574800000000  0.4948320000000 1.0
C      1  0.4439630000000  0.4422270000000  0.4948320000000 1.0
C      1  0.5559830000000  0.4422270000000  0.5049280000000 1.0
C      1  0.4949250000000  0.4438430000000  0.4422530000000 1.0
C      1  0.5050210000000  0.5558630000000  0.4422530000000 1.0
C      1  0.4949250000000  0.5558630000000  0.5575060000000 1.0
C      1  0.4423470000000  0.5049010000000  0.5558900000000 1.0
C      1  0.5576000000000  0.4948050000000  0.5558900000000 1.0
C      1  0.4423470000000  0.4948050000000  0.4438700000000 1.0
C      1  0.5669260000000  0.4329010000000  0.4329270000000 1.0
C      1  0.4330210000000  0.5668060000000  0.4329270000000 1.0
C      1  0.4330210000000  0.4329010000000  0.5668320000000 1.0
C      1  0.5669260000000  0.5668060000000  0.5668320000000 1.0
END
