TITL C-862127-1500-803 0.000425414930703494 125000 -673.623432776521 0 0 120 (C1) n - 1
REM
REM in /home/nfs/bkarasulu/CARBON/AIRSS/Generating-Clusters/TERSOFF/Higher-Symm/FIRE-HFTN
REM
REM
REM
REM
REM
REM ./C.cell (b20cbc046b6831c77cfcea5457e17084)
REM AIRSS Version 0.9.1 bugfix July 2018 build 013d7b7c2542+ Fri, 06 Jul 2018 19:26:36 +0100
REM compiler GCC version 9.2.1 20190827 (Red Hat 9.2.1-1)
REM options -cpp -mtune=generic -march=x86-64 -g -O0 -fpre-include=/usr/include/finclude/math-vector-fortran.h
REM seed 1549454201 1019200133 1949207731 1588968031 -884698190 333312086 1106078053 -310442279 -622161030 -780931220 810661861 -1256067298 -1114351804 1885904762 -412530100 -864740862 -1132053948 1444412266 -206275251 802650879 1788412528 1928969317 -506543136 -1075911634 1210388304 22820664 773809947 1644206159 -1629603430 561043993 -651366550 894858511 1472340722
REM
CELL 1.54180   50.00000   50.00000   50.00000   90.00000   90.00000   90.00000
LATT -1
SFAC C  
C      1  0.4494480000000  0.4884090000000  0.5538170000000 1.0
C      1  0.4276790000000  0.4835830000000  0.4676880000000 1.0
C      1  0.5094380000000  0.4818980000000  0.4275090000000 1.0
C      1  0.5775870000000  0.4801140000000  0.4852380000000 1.0
C      1  0.5389510000000  0.4866390000000  0.5638090000000 1.0
C      1  0.4490000000000  0.4869230000000  0.4451690000000 1.0
C      1  0.4279190000000  0.4861040000000  0.5311410000000 1.0
C      1  0.5096890000000  0.4818580000000  0.5714870000000 1.0
C      1  0.5791210000000  0.4810890000000  0.5160620000000 1.0
C      1  0.5384330000000  0.4866770000000  0.4361670000000 1.0
C      1  0.5819850000000  0.5389790000000  0.4856350000000 1.0
C      1  0.5383770000000  0.5452550000000  0.5718770000000 1.0
C      1  0.4403980000000  0.5457360000000  0.5596630000000 1.0
C      1  0.4217170000000  0.5424050000000  0.4639100000000 1.0
C      1  0.5083100000000  0.5423910000000  0.4248380000000 1.0
C      1  0.5828660000000  0.5393410000000  0.5150370000000 1.0
C      1  0.5374340000000  0.5451760000000  0.4291180000000 1.0
C      1  0.4393540000000  0.5440770000000  0.4403500000000 1.0
C      1  0.4228670000000  0.5451570000000  0.5358970000000 1.0
C      1  0.5091800000000  0.5423260000000  0.5756400000000 1.0
C      1  0.5956710000000  0.5059850000000  0.4487810000000 1.0
C      1  0.5784800000000  0.5096590000000  0.5769820000000 1.0
C      1  0.4535040000000  0.5103080000000  0.5967000000000 1.0
C      1  0.3899560000000  0.5062080000000  0.4852980000000 1.0
C      1  0.4827340000000  0.5064870000000  0.3959690000000 1.0
C      1  0.5966530000000  0.5061550000000  0.5526490000000 1.0
C      1  0.5781050000000  0.5100470000000  0.4241270000000 1.0
C      1  0.4531660000000  0.5098010000000  0.4027410000000 1.0
C      1  0.3892670000000  0.5095840000000  0.5154660000000 1.0
C      1  0.4830130000000  0.5063130000000  0.6034340000000 1.0
C      1  0.5291970000000  0.5215640000000  0.4628180000000 1.0
C      1  0.5498350000000  0.5134350000000  0.5163460000000 1.0
C      1  0.4991430000000  0.5147730000000  0.5456000000000 1.0
C      1  0.4488390000000  0.5187780000000  0.5150090000000 1.0
C      1  0.4694400000000  0.5231770000000  0.4608630000000 1.0
C      1  0.5300100000000  0.5219490000000  0.5380030000000 1.0
C      1  0.5485960000000  0.5123520000000  0.4849040000000 1.0
C      1  0.4985780000000  0.5140600000000  0.4542450000000 1.0
C      1  0.4487380000000  0.5164290000000  0.4846100000000 1.0
C      1  0.4698550000000  0.5239190000000  0.5391790000000 1.0
C      1  0.5284010000000  0.4366850000000  0.5363970000000 1.0
C      1  0.4695510000000  0.4358210000000  0.5362390000000 1.0
C      1  0.4506740000000  0.4256010000000  0.4824440000000 1.0
C      1  0.5019700000000  0.4268970000000  0.4516300000000 1.0
C      1  0.5527020000000  0.4268350000000  0.4848670000000 1.0
C      1  0.5285930000000  0.4360860000000  0.4629670000000 1.0
C      1  0.4704190000000  0.4360160000000  0.4622730000000 1.0
C      1  0.4482790000000  0.4298830000000  0.5152370000000 1.0
C      1  0.5017320000000  0.4270500000000  0.5472320000000 1.0
C      1  0.5527640000000  0.4277330000000  0.5152850000000 1.0
C      1  0.4171570000000  0.5131500000000  0.4738180000000 1.0
C      1  0.4997920000000  0.5119150000000  0.4204080000000 1.0
C      1  0.5796800000000  0.5102880000000  0.4740370000000 1.0
C      1  0.5497650000000  0.5165540000000  0.5677570000000 1.0
C      1  0.4502480000000  0.5175800000000  0.5670980000000 1.0
C      1  0.4172700000000  0.5162070000000  0.5259660000000 1.0
C      1  0.5003170000000  0.5118970000000  0.5792530000000 1.0
C      1  0.5812100000000  0.5108460000000  0.5270220000000 1.0
C      1  0.5491800000000  0.5166410000000  0.4331140000000 1.0
C      1  0.4498010000000  0.5163340000000  0.4325190000000 1.0
C      1  0.5002330000000  0.4715240000000  0.5414630000000 1.0
C      1  0.4519560000000  0.4762010000000  0.5137330000000 1.0
C      1  0.4743070000000  0.4819560000000  0.4662030000000 1.0
C      1  0.5281920000000  0.4797600000000  0.4650140000000 1.0
C      1  0.5491360000000  0.4714710000000  0.5148990000000 1.0
C      1  0.4993800000000  0.4710470000000  0.4568720000000 1.0
C      1  0.4517820000000  0.4745310000000  0.4852000000000 1.0
C      1  0.4752550000000  0.4830260000000  0.5320750000000 1.0
C      1  0.5296470000000  0.4802100000000  0.5345800000000 1.0
C      1  0.5464820000000  0.4685250000000  0.4842610000000 1.0
C      1  0.5282440000000  0.5854850000000  0.5358480000000 1.0
C      1  0.4682760000000  0.5868240000000  0.5372210000000 1.0
C      1  0.4452970000000  0.5852530000000  0.4850930000000 1.0
C      1  0.4990440000000  0.5745290000000  0.4676380000000 1.0
C      1  0.5515690000000  0.5819220000000  0.4859370000000 1.0
C      1  0.5269630000000  0.5850200000000  0.4655760000000 1.0
C      1  0.4663000000000  0.5849560000000  0.4644880000000 1.0
C      1  0.4474200000000  0.5897370000000  0.5165700000000 1.0
C      1  0.5003810000000  0.5754400000000  0.5335820000000 1.0
C      1  0.5521640000000  0.5821720000000  0.5151620000000 1.0
C      1  0.4236460000000  0.5675820000000  0.5164300000000 1.0
C      1  0.4595190000000  0.5656060000000  0.4384780000000 1.0
C      1  0.5472550000000  0.5666020000000  0.4470920000000 1.0
C      1  0.5724740000000  0.5632280000000  0.5301420000000 1.0
C      1  0.4915820000000  0.5600200000000  0.5595610000000 1.0
C      1  0.4205630000000  0.5653350000000  0.4829530000000 1.0
C      1  0.4608870000000  0.5667210000000  0.5624130000000 1.0
C      1  0.5484310000000  0.5668540000000  0.5540720000000 1.0
C      1  0.5714580000000  0.5628670000000  0.4705730000000 1.0
C      1  0.4904090000000  0.5596900000000  0.4412140000000 1.0
C      1  0.4902900000000  0.4366470000000  0.5773640000000 1.0
C      1  0.4171560000000  0.4388830000000  0.5174130000000 1.0
C      1  0.4624430000000  0.4411670000000  0.4320650000000 1.0
C      1  0.5550830000000  0.4410730000000  0.4445440000000 1.0
C      1  0.5786300000000  0.4357110000000  0.5346720000000 1.0
C      1  0.4910410000000  0.4364250000000  0.4209440000000 1.0
C      1  0.4188270000000  0.4371510000000  0.4858030000000 1.0
C      1  0.4617970000000  0.4417270000000  0.5664530000000 1.0
C      1  0.5551660000000  0.4411430000000  0.5550140000000 1.0
C      1  0.5780560000000  0.4354570000000  0.4652200000000 1.0
C      1  0.5835630000000  0.4769180000000  0.5797760000000 1.0
C      1  0.4522240000000  0.4778510000000  0.6014130000000 1.0
C      1  0.3832580000000  0.4747260000000  0.4833470000000 1.0
C      1  0.4832930000000  0.4753030000000  0.3877150000000 1.0
C      1  0.6044020000000  0.4752620000000  0.4454960000000 1.0
C      1  0.5834730000000  0.4772170000000  0.4207630000000 1.0
C      1  0.4524400000000  0.4774610000000  0.3973990000000 1.0
C      1  0.3834910000000  0.4776020000000  0.5157570000000 1.0
C      1  0.4830550000000  0.4750450000000  0.6111120000000 1.0
C      1  0.6050380000000  0.4750770000000  0.5557350000000 1.0
C      1  0.5007930000000  0.4611020000000  0.5910770000000 1.0
C      1  0.4073430000000  0.4646500000000  0.5285650000000 1.0
C      1  0.4487030000000  0.4657900000000  0.4245840000000 1.0
C      1  0.5570560000000  0.4654660000000  0.4280440000000 1.0
C      1  0.5945520000000  0.4608350000000  0.5312820000000 1.0
C      1  0.5012070000000  0.4612670000000  0.4075250000000 1.0
C      1  0.4077790000000  0.4613550000000  0.4716590000000 1.0
C      1  0.4486070000000  0.4667360000000  0.5739670000000 1.0
C      1  0.5572040000000  0.4652190000000  0.5720650000000 1.0
C      1  0.5937420000000  0.4604960000000  0.4695470000000 1.0
END
