TITL C-862129-6180-985 6.47831490156273e-05 125000 -580.146416313016 0 0 107 (C3) n - 1
REM
REM in /home/nfs/bkarasulu/CARBON/AIRSS/Generating-Clusters/TERSOFF/Higher-Symm/FIRE-HFTN
REM
REM
REM
REM
REM
REM ./C.cell (b20cbc046b6831c77cfcea5457e17084)
REM AIRSS Version 0.9.1 bugfix July 2018 build 013d7b7c2542+ Fri, 06 Jul 2018 19:26:36 +0100
REM compiler GCC version 9.2.1 20190827 (Red Hat 9.2.1-1)
REM options -cpp -mtune=generic -march=x86-64 -g -O0 -fpre-include=/usr/include/finclude/math-vector-fortran.h
REM seed 390227423 -1757202856 -770109479 -1493530628 -650595033 962253567 1546126811 425505059 507074359 -1851037887 906177432 1023162608 -678451217 -1752152794 1997750456 2138811400 -1907806969 109269211 -1390813919 1521251908 -643054413 1055248453 1545177899 1367082186 1471521443 -440032268 -1190121191 881937721 1723388787 2014134060 -1859105315 -45330293 -1315551631
REM
CELL 1.54180   50.00000   50.00000   50.00000   90.00000   90.00000   90.00000
LATT -1
SFAC C  
C      1  0.5028300000000  0.5648250000000  0.4871230000000 1.0
C      1  0.4426130000000  0.4697860000000  0.4871230000000 1.0
C      1  0.5550280000000  0.4651560000000  0.4871230000000 1.0
C      1  0.5021740000000  0.5646530000000  0.5146490000000 1.0
C      1  0.4430900000000  0.4693040000000  0.5146490000000 1.0
C      1  0.5552060000000  0.4658100000000  0.5146490000000 1.0
C      1  0.5057260000000  0.4409260000000  0.4315260000000 1.0
C      1  0.5484640000000  0.5342440000000  0.4315260000000 1.0
C      1  0.4462800000000  0.5245970000000  0.4315260000000 1.0
C      1  0.5055560000000  0.4416380000000  0.5704670000000 1.0
C      1  0.5479330000000  0.5337400000000  0.5704670000000 1.0
C      1  0.4469820000000  0.5243890000000  0.5704670000000 1.0
C      1  0.5454790000000  0.4757400000000  0.4295290000000 1.0
C      1  0.4984380000000  0.5512630000000  0.4295290000000 1.0
C      1  0.4565530000000  0.4727640000000  0.4295290000000 1.0
C      1  0.5452460000000  0.4763390000000  0.5720640000000 1.0
C      1  0.4980360000000  0.5507620000000  0.5720640000000 1.0
C      1  0.4571880000000  0.4726660000000  0.5720640000000 1.0
C      1  0.5096820000000  0.5280670000000  0.5965270000000 1.0
C      1  0.4710200000000  0.4940990000000  0.5965270000000 1.0
C      1  0.5197680000000  0.4776010000000  0.5965270000000 1.0
C      1  0.5102450000000  0.5277950000000  0.4055210000000 1.0
C      1  0.4709740000000  0.4947230000000  0.4055210000000 1.0
C      1  0.5192510000000  0.4772490000000  0.4055210000000 1.0
C      1  0.4496720000000  0.4984340000000  0.5538250000000 1.0
C      1  0.5266880000000  0.4569450000000  0.5538250000000 1.0
C      1  0.5241100000000  0.5443880000000  0.5538250000000 1.0
C      1  0.4483960000000  0.4985020000000  0.4474920000000 1.0
C      1  0.5272670000000  0.4558070000000  0.4474920000000 1.0
C      1  0.5248070000000  0.5454580000000  0.4474920000000 1.0
C      1  0.5279830000000  0.5035470000000  0.4738510000000 1.0
C      1  0.4831050000000  0.5222090000000  0.4738510000000 1.0
C      1  0.4893820000000  0.4740120000000  0.4738510000000 1.0
C      1  0.5290460000000  0.5047260000000  0.5276880000000 1.0
C      1  0.4815520000000  0.5225390000000  0.5276880000000 1.0
C      1  0.4898720000000  0.4725020000000  0.5276880000000 1.0
C      1  0.5378970000000  0.4321240000000  0.4628910000000 1.0
C      1  0.5400020000000  0.5665050000000  0.4628910000000 1.0
C      1  0.4225710000000  0.5011380000000  0.4628910000000 1.0
C      1  0.5372360000000  0.4330750000000  0.5388060000000 1.0
C      1  0.5395090000000  0.5654580000000  0.5388060000000 1.0
C      1  0.4237250000000  0.5012340000000  0.5388060000000 1.0
C      1  0.5172670000000  0.4279900000000  0.4840860000000 1.0
C      1  0.5538970000000  0.5507070000000  0.4840860000000 1.0
C      1  0.4293060000000  0.5210710000000  0.4840860000000 1.0
C      1  0.5171370000000  0.4260150000000  0.5182680000000 1.0
C      1  0.5556730000000  0.5515810000000  0.5182680000000 1.0
C      1  0.4276610000000  0.5221710000000  0.5182680000000 1.0
C      1  0.4862960000000  0.4218290000000  0.5594330000000 1.0
C      1  0.5747170000000  0.5269650000000  0.5594330000000 1.0
C      1  0.4394570000000  0.5509730000000  0.5594330000000 1.0
C      1  0.4863080000000  0.4217270000000  0.4431950000000 1.0
C      1  0.5748000000000  0.5270260000000  0.4431950000000 1.0
C      1  0.4393620000000  0.5510140000000  0.4431950000000 1.0
C      1  0.5053190000000  0.4508610000000  0.4043230000000 1.0
C      1  0.5400640000000  0.5289230000000  0.4043230000000 1.0
C      1  0.4550880000000  0.5199820000000  0.4043230000000 1.0
C      1  0.5061700000000  0.4510380000000  0.5978920000000 1.0
C      1  0.5394850000000  0.5295720000000  0.5978920000000 1.0
C      1  0.4548150000000  0.5191570000000  0.5978920000000 1.0
C      1  0.5657630000000  0.4300840000000  0.5361150000000 1.0
C      1  0.5278360000000  0.5916580000000  0.5361150000000 1.0
C      1  0.4068720000000  0.4780250000000  0.5361150000000 1.0
C      1  0.5664040000000  0.4297300000000  0.4661360000000 1.0
C      1  0.5278220000000  0.5923910000000  0.4661360000000 1.0
C      1  0.4062440000000  0.4776470000000  0.4661360000000 1.0
C      1  0.5056110000000  0.5395200000000  0.5286550000000 1.0
C      1  0.4631370000000  0.4848470000000  0.5286550000000 1.0
C      1  0.5317220000000  0.4754000000000  0.5286550000000 1.0
C      1  0.5068460000000  0.5397960000000  0.4728820000000 1.0
C      1  0.4622800000000  0.4857790000000  0.4728820000000 1.0
C      1  0.5313430000000  0.4741920000000  0.4728820000000 1.0
C      1  0.5107380000000  0.3974990000000  0.4881120000000 1.0
C      1  0.5835670000000  0.5602970000000  0.4881120000000 1.0
C      1  0.4061650000000  0.5419710000000  0.4881120000000 1.0
C      1  0.5103850000000  0.3940330000000  0.5183080000000 1.0
C      1  0.5867460000000  0.5617250000000  0.5183080000000 1.0
C      1  0.4033400000000  0.5440090000000  0.5183080000000 1.0
C      1  0.4679160000000  0.4291020000000  0.4678400000000 1.0
C      1  0.5776100000000  0.5074110000000  0.4678400000000 1.0
C      1  0.4549440000000  0.5632540000000  0.4678400000000 1.0
C      1  0.4675740000000  0.4282440000000  0.5344390000000 1.0
C      1  0.5785230000000  0.5075450000000  0.5344390000000 1.0
C      1  0.4543720000000  0.5639790000000  0.5344390000000 1.0
C      1  0.4987150000000  0.5902740000000  0.4708790000000 1.0
C      1  0.4226300000000  0.4534980000000  0.4708790000000 1.0
C      1  0.5791240000000  0.4559950000000  0.4708790000000 1.0
C      1  0.4987540000000  0.5900480000000  0.5310970000000 1.0
C      1  0.4228070000000  0.4536450000000  0.5310970000000 1.0
C      1  0.5789090000000  0.4560740000000  0.5310970000000 1.0
C      1  0.4552930000000  0.5354370000000  0.5237880000000 1.0
C      1  0.4918320000000  0.4433120000000  0.5237880000000 1.0
C      1  0.5533450000000  0.5210180000000  0.5237880000000 1.0
C      1  0.4565100000000  0.5345210000000  0.4777920000000 1.0
C      1  0.4920170000000  0.4448240000000  0.4777920000000 1.0
C      1  0.5519430000000  0.5204220000000  0.4777920000000 1.0
C      1  0.4808490000000  0.5729440000000  0.4522800000000 1.0
C      1  0.4465720000000  0.4466900000000  0.4522800000000 1.0
C      1  0.5730500000000  0.4801330000000  0.4522800000000 1.0
C      1  0.4806670000000  0.5730380000000  0.5497270000000 1.0
C      1  0.4465820000000  0.4464860000000  0.5497270000000 1.0
C      1  0.5732210000000  0.4802430000000  0.5497270000000 1.0
C      1  0.4602960000000  0.4169370000000  0.5009390000000 1.0
C      1  0.4482190000000  0.5759350000000  0.5009390000000 1.0
C      1  0.5919540000000  0.5068950000000  0.5009390000000 1.0
C      1  0.5001570000000  0.4999220000000  0.4045800000000 1.0
C      1  0.5001570000000  0.4999220000000  0.5975070000000 1.0
END
