TITL C-862133-5440-100 -35.4000508204071 125000 -1084.62093911525 0 0 186 (Ci) n - 1
REM
REM in /home/nfs/bkarasulu/CARBON/AIRSS/Generating-Clusters/TERSOFF/Higher-Symm/FIRE-HFTN
REM
REM
REM
REM
REM
REM ./C.cell (b20cbc046b6831c77cfcea5457e17084)
REM AIRSS Version 0.9.1 bugfix July 2018 build 013d7b7c2542+ Fri, 06 Jul 2018 19:26:36 +0100
REM compiler GCC version 9.2.1 20190827 (Red Hat 9.2.1-1)
REM options -cpp -mtune=generic -march=x86-64 -g -O0 -fpre-include=/usr/include/finclude/math-vector-fortran.h
REM seed -244702453 -987829764 412752692 593532085 379419454 -628561828 -342723465 1971481555 -1391412329 2007846366 -2072939583 891274715 1992080301 -1139097577 -76363398 -1399396262 302996896 -481820165 1122476126 -131301930 -146086704 1974295363 1412851631 580627596 99470510 480662056 -1926778515 -503072466 469788664 -1060016731 2079621799 1314816443 1481448470
REM
CELL 1.54180   50.00000   50.00000   50.00000   90.00000   90.00000   90.00000
LATT -1
SFAC C  
C      1  0.4763690000000  0.5144350000000  0.4684850000000 1.0
C      1  0.5236310000000  0.4855650000000  0.5315150000000 1.0
C      1  0.6031710000000  0.3961520000000  0.5633120000000 1.0
C      1  0.3968290000000  0.6038480000000  0.4366880000000 1.0
C      1  0.5887230000000  0.5456800000000  0.5598270000000 1.0
C      1  0.4112770000000  0.4543200000000  0.4401730000000 1.0
C      1  0.4505450000000  0.5960620000000  0.5497400000000 1.0
C      1  0.5494550000000  0.4039380000000  0.4502600000000 1.0
C      1  0.4820320000000  0.5786230000000  0.4966690000000 1.0
C      1  0.5179680000000  0.4213770000000  0.5033310000000 1.0
C      1  0.5530610000000  0.5758570000000  0.4927730000000 1.0
C      1  0.4469390000000  0.4241430000000  0.5072270000000 1.0
C      1  0.5700410000000  0.5243740000000  0.5733670000000 1.0
C      1  0.4299590000000  0.4756260000000  0.4266330000000 1.0
C      1  0.5355800000000  0.4963160000000  0.5562900000000 1.0
C      1  0.4644200000000  0.5036840000000  0.4437100000000 1.0
C      1  0.4712430000000  0.6011280000000  0.4547930000000 1.0
C      1  0.5287570000000  0.3988720000000  0.5452070000000 1.0
C      1  0.5106380000000  0.3992090000000  0.5208730000000 1.0
C      1  0.4893620000000  0.6007910000000  0.4791270000000 1.0
C      1  0.5559030000000  0.4749390000000  0.4636860000000 1.0
C      1  0.4440970000000  0.5250610000000  0.5363140000000 1.0
C      1  0.5184290000000  0.4112710000000  0.5733570000000 1.0
C      1  0.4815710000000  0.5887290000000  0.4266430000000 1.0
C      1  0.4018440000000  0.4348880000000  0.5212590000000 1.0
C      1  0.5981560000000  0.5651120000000  0.4787410000000 1.0
C      1  0.4759020000000  0.4912390000000  0.5214440000000 1.0
C      1  0.5240980000000  0.5087610000000  0.4785560000000 1.0
C      1  0.5337230000000  0.4206500000000  0.4240180000000 1.0
C      1  0.4662770000000  0.5793500000000  0.5759820000000 1.0
C      1  0.5302530000000  0.6017040000000  0.5296040000000 1.0
C      1  0.4697470000000  0.3982960000000  0.4703960000000 1.0
C      1  0.5691460000000  0.4341880000000  0.5510440000000 1.0
C      1  0.4308540000000  0.5658120000000  0.4489560000000 1.0
C      1  0.5471780000000  0.5184980000000  0.4036900000000 1.0
C      1  0.4528220000000  0.4815020000000  0.5963100000000 1.0
C      1  0.4052660000000  0.5678040000000  0.5392110000000 1.0
C      1  0.5947340000000  0.4321960000000  0.4607890000000 1.0
C      1  0.4139110000000  0.5252830000000  0.5654700000000 1.0
C      1  0.5860890000000  0.4747170000000  0.4345300000000 1.0
C      1  0.5737920000000  0.4487650000000  0.4465210000000 1.0
C      1  0.4262080000000  0.5512350000000  0.5534790000000 1.0
C      1  0.4840850000000  0.5627010000000  0.5418030000000 1.0
C      1  0.5159150000000  0.4372990000000  0.4581970000000 1.0
C      1  0.4786400000000  0.4396320000000  0.4771660000000 1.0
C      1  0.5213600000000  0.5603680000000  0.5228340000000 1.0
C      1  0.4092560000000  0.5191730000000  0.4542780000000 1.0
C      1  0.5907440000000  0.4808270000000  0.5457220000000 1.0
C      1  0.3941210000000  0.5143570000000  0.5407150000000 1.0
C      1  0.6058790000000  0.4856430000000  0.4592850000000 1.0
C      1  0.5035020000000  0.5236810000000  0.4623620000000 1.0
C      1  0.4964980000000  0.4763190000000  0.5376380000000 1.0
C      1  0.4915980000000  0.4544070000000  0.4095520000000 1.0
C      1  0.5084020000000  0.5455930000000  0.5904480000000 1.0
C      1  0.5482710000000  0.3689540000000  0.4900030000000 1.0
C      1  0.4517290000000  0.6310460000000  0.5099970000000 1.0
C      1  0.4706240000000  0.4659370000000  0.4608200000000 1.0
C      1  0.5293760000000  0.5340630000000  0.5391800000000 1.0
C      1  0.4497430000000  0.4776640000000  0.4820490000000 1.0
C      1  0.5502570000000  0.5223360000000  0.5179510000000 1.0
C      1  0.6183640000000  0.4967390000000  0.5089550000000 1.0
C      1  0.3816360000000  0.5032610000000  0.4910450000000 1.0
C      1  0.5208000000000  0.4461340000000  0.4102900000000 1.0
C      1  0.4792000000000  0.5538660000000  0.5897100000000 1.0
C      1  0.4646830000000  0.5739050000000  0.3806030000000 1.0
C      1  0.5353170000000  0.4260950000000  0.6193970000000 1.0
C      1  0.4384500000000  0.5659580000000  0.5764130000000 1.0
C      1  0.5615500000000  0.4340420000000  0.4235870000000 1.0
C      1  0.4482650000000  0.3955650000000  0.4498970000000 1.0
C      1  0.5517350000000  0.6044350000000  0.5501030000000 1.0
C      1  0.5782450000000  0.4050640000000  0.5515770000000 1.0
C      1  0.4217550000000  0.5949360000000  0.4484230000000 1.0
C      1  0.4810250000000  0.3934870000000  0.5223250000000 1.0
C      1  0.5189750000000  0.6065130000000  0.4776750000000 1.0
C      1  0.5579190000000  0.5546340000000  0.4454300000000 1.0
C      1  0.4420810000000  0.4453660000000  0.5545700000000 1.0
C      1  0.5583320000000  0.4441270000000  0.5776640000000 1.0
C      1  0.4416680000000  0.5558730000000  0.4223360000000 1.0
C      1  0.5320200000000  0.6078220000000  0.4508320000000 1.0
C      1  0.4679800000000  0.3921780000000  0.5491680000000 1.0
C      1  0.3849970000000  0.5274150000000  0.5091470000000 1.0
C      1  0.6150030000000  0.4725850000000  0.4908530000000 1.0
C      1  0.5262680000000  0.4802110000000  0.4344190000000 1.0
C      1  0.4737320000000  0.5197890000000  0.5655810000000 1.0
C      1  0.5031310000000  0.5590330000000  0.4990450000000 1.0
C      1  0.4968690000000  0.4409670000000  0.5009550000000 1.0
C      1  0.4354020000000  0.6152970000000  0.4911430000000 1.0
C      1  0.5645980000000  0.3847030000000  0.5088570000000 1.0
C      1  0.4624740000000  0.5325290000000  0.6038890000000 1.0
C      1  0.5375260000000  0.4674710000000  0.3961110000000 1.0
C      1  0.5423630000000  0.4296950000000  0.4667540000000 1.0
C      1  0.4576370000000  0.5703050000000  0.5332460000000 1.0
C      1  0.5383660000000  0.4752560000000  0.5093170000000 1.0
C      1  0.4616340000000  0.5247440000000  0.4906830000000 1.0
C      1  0.4848330000000  0.5137530000000  0.6156630000000 1.0
C      1  0.5151670000000  0.4862470000000  0.3843370000000 1.0
C      1  0.5650230000000  0.5259120000000  0.6036670000000 1.0
C      1  0.4349770000000  0.4740880000000  0.3963330000000 1.0
C      1  0.5056100000000  0.5208270000000  0.4324960000000 1.0
C      1  0.4943900000000  0.4791730000000  0.5675040000000 1.0
C      1  0.5317930000000  0.4810000000000  0.4817210000000 1.0
C      1  0.4682070000000  0.5190000000000  0.5182790000000 1.0
C      1  0.5060160000000  0.4652580000000  0.4528990000000 1.0
C      1  0.4939840000000  0.5347420000000  0.5471010000000 1.0
C      1  0.5470250000000  0.4291800000000  0.4968770000000 1.0
C      1  0.4529750000000  0.5708200000000  0.5031230000000 1.0
C      1  0.4444640000000  0.5462210000000  0.4878030000000 1.0
C      1  0.5555360000000  0.4537790000000  0.5121970000000 1.0
C      1  0.4625770000000  0.5727780000000  0.4095850000000 1.0
C      1  0.5374230000000  0.4272220000000  0.5904150000000 1.0
C      1  0.4574200000000  0.4751110000000  0.5087700000000 1.0
C      1  0.5425800000000  0.5248890000000  0.4912300000000 1.0
C      1  0.4508880000000  0.4137000000000  0.5626180000000 1.0
C      1  0.5491120000000  0.5863000000000  0.4373820000000 1.0
C      1  0.4873740000000  0.4171410000000  0.4301770000000 1.0
C      1  0.5126260000000  0.5828590000000  0.5698230000000 1.0
C      1  0.5877510000000  0.5568080000000  0.4524600000000 1.0
C      1  0.4122490000000  0.4431920000000  0.5475400000000 1.0
C      1  0.5411370000000  0.5610650000000  0.4700760000000 1.0
C      1  0.4588630000000  0.4389350000000  0.5299240000000 1.0
C      1  0.5331980000000  0.5636650000000  0.5813690000000 1.0
C      1  0.4668020000000  0.4363350000000  0.4186310000000 1.0
C      1  0.5106120000000  0.5879160000000  0.4206850000000 1.0
C      1  0.4893880000000  0.4120840000000  0.5793150000000 1.0
C      1  0.5134950000000  0.5169380000000  0.6011050000000 1.0
C      1  0.4865050000000  0.4830620000000  0.3988950000000 1.0
C      1  0.5371110000000  0.5986730000000  0.5009880000000 1.0
C      1  0.4628890000000  0.4013270000000  0.4990120000000 1.0
C      1  0.5754750000000  0.4922470000000  0.5684990000000 1.0
C      1  0.4245250000000  0.5077530000000  0.4315010000000 1.0
C      1  0.4130930000000  0.4459290000000  0.4702640000000 1.0
C      1  0.5869070000000  0.5540710000000  0.5297360000000 1.0
C      1  0.4606540000000  0.4805640000000  0.3836840000000 1.0
C      1  0.5393460000000  0.5194360000000  0.6163160000000 1.0
C      1  0.4303780000000  0.5885040000000  0.5016330000000 1.0
C      1  0.5696220000000  0.4114960000000  0.4983670000000 1.0
C      1  0.4757030000000  0.4332200000000  0.5949890000000 1.0
C      1  0.5242970000000  0.5667800000000  0.4050110000000 1.0
C      1  0.4058970000000  0.5746480000000  0.5107580000000 1.0
C      1  0.5941030000000  0.4253520000000  0.4892420000000 1.0
C      1  0.6011180000000  0.4488570000000  0.5053860000000 1.0
C      1  0.3988820000000  0.5511430000000  0.4946140000000 1.0
C      1  0.4376640000000  0.5277980000000  0.4145460000000 1.0
C      1  0.5623360000000  0.4722020000000  0.5854540000000 1.0
C      1  0.4457740000000  0.4130950000000  0.4260900000000 1.0
C      1  0.5542260000000  0.5869050000000  0.5739100000000 1.0
C      1  0.3846040000000  0.5077350000000  0.4630470000000 1.0
C      1  0.6153960000000  0.4922650000000  0.5369530000000 1.0
C      1  0.4184550000000  0.5448310000000  0.4693020000000 1.0
C      1  0.5815450000000  0.4551690000000  0.5306980000000 1.0
C      1  0.4618410000000  0.6203510000000  0.5356890000000 1.0
C      1  0.5381590000000  0.3796490000000  0.4643110000000 1.0
C      1  0.4416590000000  0.6133170000000  0.4614900000000 1.0
C      1  0.5583410000000  0.3866830000000  0.5385100000000 1.0
C      1  0.4344510000000  0.4959320000000  0.5371050000000 1.0
C      1  0.5655490000000  0.5040680000000  0.4628950000000 1.0
C      1  0.5137890000000  0.5501940000000  0.4740730000000 1.0
C      1  0.4862110000000  0.4498060000000  0.5259270000000 1.0
C      1  0.4924450000000  0.4161670000000  0.4590150000000 1.0
C      1  0.5075550000000  0.5838330000000  0.5409850000000 1.0
C      1  0.5454460000000  0.5484550000000  0.4155910000000 1.0
C      1  0.4545540000000  0.4515450000000  0.5844090000000 1.0
C      1  0.4583960000000  0.5733990000000  0.4589870000000 1.0
C      1  0.5416040000000  0.4266010000000  0.5410130000000 1.0
C      1  0.4225400000000  0.6010250000000  0.5582290000000 1.0
C      1  0.5774600000000  0.3989750000000  0.4417710000000 1.0
C      1  0.5170810000000  0.4947430000000  0.5796440000000 1.0
C      1  0.4829190000000  0.5052570000000  0.4203560000000 1.0
C      1  0.5434150000000  0.5392630000000  0.5649450000000 1.0
C      1  0.4565850000000  0.4607370000000  0.4350550000000 1.0
C      1  0.4726360000000  0.4873140000000  0.6180350000000 1.0
C      1  0.5273640000000  0.5126860000000  0.3819650000000 1.0
C      1  0.4501150000000  0.4772640000000  0.5515040000000 1.0
C      1  0.5498850000000  0.5227360000000  0.4484960000000 1.0
C      1  0.4377740000000  0.5136090000000  0.5897670000000 1.0
C      1  0.5622260000000  0.4863910000000  0.4102330000000 1.0
C      1  0.4205440000000  0.4718860000000  0.4815810000000 1.0
C      1  0.5794560000000  0.5281140000000  0.5184190000000 1.0
C      1  0.5986580000000  0.5157750000000  0.4990700000000 1.0
C      1  0.4013420000000  0.4842250000000  0.5009300000000 1.0
C      1  0.4683810000000  0.4901890000000  0.5705620000000 1.0
C      1  0.5316190000000  0.5098110000000  0.4294380000000 1.0
C      1  0.4189900000000  0.4294710000000  0.4977760000000 1.0
C      1  0.5810100000000  0.5705290000000  0.5022240000000 1.0
C      1  0.5923210000000  0.5102280000000  0.4709970000000 1.0
C      1  0.4076790000000  0.4897720000000  0.5290030000000 1.0
END
