TITL C-862503-991-1361 -0.000416472415310288 125000 -1045.02015705361 0 0 197 (D2) n - 1
REM
REM in /home/nfs/bkarasulu/CARBON/AIRSS/Generating-Clusters/TERSOFF/Higher-Symm/FIRE-HFTN
REM
REM
REM
REM
REM
REM ./C.cell (b20cbc046b6831c77cfcea5457e17084)
REM AIRSS Version 0.9.1 bugfix July 2018 build 013d7b7c2542+ Fri, 06 Jul 2018 19:26:36 +0100
REM compiler GCC version 9.2.1 20190827 (Red Hat 9.2.1-1)
REM options -cpp -mtune=generic -march=x86-64 -g -O0 -fpre-include=/usr/include/finclude/math-vector-fortran.h
REM seed 507542086 1694621697 1218394199 1283191786 -1637044805 1951505822 -284660052 544840011 -2132634964 -1831212518 -1720745889 1079293416 -1227614182 427789971 -341284605 1349713184 560081954 5351016 -812142250 1654274211 -2025180145 -1546535139 611713451 957704705 -1769529886 -826443370 1617175452 -718220467 327189451 173923234 -200816755 -1471751780 1906843390
REM
CELL 1.54180   50.00000   50.00000   50.00000   90.00000   90.00000   90.00000
LATT -1
SFAC C  
C      1  0.5067000000000  0.5717310000000  0.5451120000000 1.0
C      1  0.4929410000000  0.5717310000000  0.4546180000000 1.0
C      1  0.4929410000000  0.4278810000000  0.5451120000000 1.0
C      1  0.5067000000000  0.4278810000000  0.4546180000000 1.0
C      1  0.5405960000000  0.4381590000000  0.4930240000000 1.0
C      1  0.4590450000000  0.4381590000000  0.5067070000000 1.0
C      1  0.4590450000000  0.5614530000000  0.4930230000000 1.0
C      1  0.5405960000000  0.5614530000000  0.5067070000000 1.0
C      1  0.4103580000000  0.4324680000000  0.5344580000000 1.0
C      1  0.5892820000000  0.4324680000000  0.4652720000000 1.0
C      1  0.5892830000000  0.5671440000000  0.5344580000000 1.0
C      1  0.4103590000000  0.5671440000000  0.4652720000000 1.0
C      1  0.6210410000000  0.4881180000000  0.5172720000000 1.0
C      1  0.3786000000000  0.4881180000000  0.4824580000000 1.0
C      1  0.3786000000000  0.5114940000000  0.5172720000000 1.0
C      1  0.6210410000000  0.5114930000000  0.4824580000000 1.0
C      1  0.5483990000000  0.5979270000000  0.5340640000000 1.0
C      1  0.4512430000000  0.5979270000000  0.4656660000000 1.0
C      1  0.4512420000000  0.4016850000000  0.5340640000000 1.0
C      1  0.5483980000000  0.4016850000000  0.4656670000000 1.0
C      1  0.4799870000000  0.4324640000000  0.4417730000000 1.0
C      1  0.5196540000000  0.4324650000000  0.5579570000000 1.0
C      1  0.5196540000000  0.5671470000000  0.4417730000000 1.0
C      1  0.4799870000000  0.5671470000000  0.5579570000000 1.0
C      1  0.4543080000000  0.5477270000000  0.4622000000000 1.0
C      1  0.5453330000000  0.5477270000000  0.5375300000000 1.0
C      1  0.5453330000000  0.4518840000000  0.4622000000000 1.0
C      1  0.4543080000000  0.4518850000000  0.5375300000000 1.0
C      1  0.4751650000000  0.5288390000000  0.4394260000000 1.0
C      1  0.5244760000000  0.5288390000000  0.5603040000000 1.0
C      1  0.5244760000000  0.4707730000000  0.4394260000000 1.0
C      1  0.4751650000000  0.4707730000000  0.5603040000000 1.0
C      1  0.4571320000000  0.5010150000000  0.4789170000000 1.0
C      1  0.5425090000000  0.5010150000000  0.5208130000000 1.0
C      1  0.5425090000000  0.4985960000000  0.4789170000000 1.0
C      1  0.4571320000000  0.4985960000000  0.5208130000000 1.0
C      1  0.5514540000000  0.5393440000000  0.4834980000000 1.0
C      1  0.4481870000000  0.5393440000000  0.5162320000000 1.0
C      1  0.4481870000000  0.4602680000000  0.4834980000000 1.0
C      1  0.5514540000000  0.4602680000000  0.5162320000000 1.0
C      1  0.4725040000000  0.5256170000000  0.5903500000000 1.0
C      1  0.5271370000000  0.5256160000000  0.4093800000000 1.0
C      1  0.5271370000000  0.4739950000000  0.5903500000000 1.0
C      1  0.4725040000000  0.4739950000000  0.4093800000000 1.0
C      1  0.4997100000000  0.5140430000000  0.5745850000000 1.0
C      1  0.4999310000000  0.5140420000000  0.4251460000000 1.0
C      1  0.4999310000000  0.4855690000000  0.5745850000000 1.0
C      1  0.4997100000000  0.4855690000000  0.4251460000000 1.0
C      1  0.4378040000000  0.5743150000000  0.5439790000000 1.0
C      1  0.5618370000000  0.5743150000000  0.4557500000000 1.0
C      1  0.5618370000000  0.4252970000000  0.5439800000000 1.0
C      1  0.4378040000000  0.4252970000000  0.4557510000000 1.0
C      1  0.5889790000000  0.4349720000000  0.5537550000000 1.0
C      1  0.4106610000000  0.4349720000000  0.4459760000000 1.0
C      1  0.4106620000000  0.5646400000000  0.5537540000000 1.0
C      1  0.5889800000000  0.5646400000000  0.4459750000000 1.0
C      1  0.4285470000000  0.4350790000000  0.5660620000000 1.0
C      1  0.5710940000000  0.4350790000000  0.4336680000000 1.0
C      1  0.5710940000000  0.5645320000000  0.5660620000000 1.0
C      1  0.4285470000000  0.5645320000000  0.4336680000000 1.0
C      1  0.5692960000000  0.5349190000000  0.5866400000000 1.0
C      1  0.4303450000000  0.5349190000000  0.4130900000000 1.0
C      1  0.4303450000000  0.4646930000000  0.5866400000000 1.0
C      1  0.5692960000000  0.4646930000000  0.4130900000000 1.0
C      1  0.4884960000000  0.4549740000000  0.5096480000000 1.0
C      1  0.5111440000000  0.4549740000000  0.4900820000000 1.0
C      1  0.5111450000000  0.5446380000000  0.5096480000000 1.0
C      1  0.4884970000000  0.5446380000000  0.4900820000000 1.0
C      1  0.5221840000000  0.3948170000000  0.5173530000000 1.0
C      1  0.4774570000000  0.3948170000000  0.4823770000000 1.0
C      1  0.4774570000000  0.6047950000000  0.5173530000000 1.0
C      1  0.5221840000000  0.6047950000000  0.4823770000000 1.0
C      1  0.4015960000000  0.4468320000000  0.4732560000000 1.0
C      1  0.5980440000000  0.4468320000000  0.5264750000000 1.0
C      1  0.5980440000000  0.5527790000000  0.4732550000000 1.0
C      1  0.4015970000000  0.5527800000000  0.5264750000000 1.0
C      1  0.4504770000000  0.4027040000000  0.4395760000000 1.0
C      1  0.5491640000000  0.4027040000000  0.5601550000000 1.0
C      1  0.5491640000000  0.5969070000000  0.4395750000000 1.0
C      1  0.4504770000000  0.5969080000000  0.5601540000000 1.0
C      1  0.4073900000000  0.4794750000000  0.4178590000000 1.0
C      1  0.5922510000000  0.4794750000000  0.5818720000000 1.0
C      1  0.5922510000000  0.5201370000000  0.4178590000000 1.0
C      1  0.4073900000000  0.5201370000000  0.5818710000000 1.0
C      1  0.4971550000000  0.4620460000000  0.5384690000000 1.0
C      1  0.5024860000000  0.4620450000000  0.4612610000000 1.0
C      1  0.5024860000000  0.5375660000000  0.5384690000000 1.0
C      1  0.4971550000000  0.5375660000000  0.4612610000000 1.0
C      1  0.4607820000000  0.4987860000000  0.4333370000000 1.0
C      1  0.5388590000000  0.4987860000000  0.5663930000000 1.0
C      1  0.5388590000000  0.5008260000000  0.4333370000000 1.0
C      1  0.4607820000000  0.5008260000000  0.5663930000000 1.0
C      1  0.3928710000000  0.4700940000000  0.5405220000000 1.0
C      1  0.6067700000000  0.4700940000000  0.4592080000000 1.0
C      1  0.6067700000000  0.5295180000000  0.5405220000000 1.0
C      1  0.3928710000000  0.5295180000000  0.4592080000000 1.0
C      1  0.4846150000000  0.4455850000000  0.6041970000000 1.0
C      1  0.5150260000000  0.4455850000000  0.3955330000000 1.0
C      1  0.5150260000000  0.5540270000000  0.6041970000000 1.0
C      1  0.4846150000000  0.5540270000000  0.3955330000000 1.0
C      1  0.5278450000000  0.3937300000000  0.4869590000000 1.0
C      1  0.4717960000000  0.3937300000000  0.5127710000000 1.0
C      1  0.4717960000000  0.6058820000000  0.4869590000000 1.0
C      1  0.5278450000000  0.6058820000000  0.5127710000000 1.0
C      1  0.4962470000000  0.4054060000000  0.5248470000000 1.0
C      1  0.5033940000000  0.4054060000000  0.4748830000000 1.0
C      1  0.5033940000000  0.5942060000000  0.5248470000000 1.0
C      1  0.4962470000000  0.5942060000000  0.4748830000000 1.0
C      1  0.5286750000000  0.4788640000000  0.4996520000000 1.0
C      1  0.4709660000000  0.4788640000000  0.5000780000000 1.0
C      1  0.4709660000000  0.5207470000000  0.4996520000000 1.0
C      1  0.5286750000000  0.5207470000000  0.5000780000000 1.0
C      1  0.5681560000000  0.5123320000000  0.5610550000000 1.0
C      1  0.4314850000000  0.5123320000000  0.4386760000000 1.0
C      1  0.4314850000000  0.4872800000000  0.5610550000000 1.0
C      1  0.5681560000000  0.4872800000000  0.4386760000000 1.0
C      1  0.5909700000000  0.4286650000000  0.5011100000000 1.0
C      1  0.4086710000000  0.4286650000000  0.4986210000000 1.0
C      1  0.4086710000000  0.5709470000000  0.5011090000000 1.0
C      1  0.5909700000000  0.5709460000000  0.4986200000000 1.0
C      1  0.5276350000000  0.5804770000000  0.4158440000000 1.0
C      1  0.4720060000000  0.5804770000000  0.5838860000000 1.0
C      1  0.4720060000000  0.4191350000000  0.4158440000000 1.0
C      1  0.5276350000000  0.4191350000000  0.5838860000000 1.0
C      1  0.4364510000000  0.4203100000000  0.4881250000000 1.0
C      1  0.5631890000000  0.4203090000000  0.5116060000000 1.0
C      1  0.5631890000000  0.5793020000000  0.4881240000000 1.0
C      1  0.4364520000000  0.5793020000000  0.5116050000000 1.0
C      1  0.5799370000000  0.4729380000000  0.5247330000000 1.0
C      1  0.4197040000000  0.4729390000000  0.4749980000000 1.0
C      1  0.4197040000000  0.5266730000000  0.5247320000000 1.0
C      1  0.5799370000000  0.5266730000000  0.4749980000000 1.0
C      1  0.5397540000000  0.5759670000000  0.5543830000000 1.0
C      1  0.4598870000000  0.5759670000000  0.4453470000000 1.0
C      1  0.4598870000000  0.4236450000000  0.5543830000000 1.0
C      1  0.5397540000000  0.4236440000000  0.4453470000000 1.0
C      1  0.4078330000000  0.4496290000000  0.4199090000000 1.0
C      1  0.5918080000000  0.4496290000000  0.5798210000000 1.0
C      1  0.5918080000000  0.5499830000000  0.4199090000000 1.0
C      1  0.4078330000000  0.5499830000000  0.5798210000000 1.0
C      1  0.5393180000000  0.6147760000000  0.4610420000000 1.0
C      1  0.4603230000000  0.6147760000000  0.5386870000000 1.0
C      1  0.4603230000000  0.3848350000000  0.4610430000000 1.0
C      1  0.5393180000000  0.3848350000000  0.5386880000000 1.0
C      1  0.5044430000000  0.4664060000000  0.6116530000000 1.0
C      1  0.4951980000000  0.4664050000000  0.3880780000000 1.0
C      1  0.4951980000000  0.5332060000000  0.6116530000000 1.0
C      1  0.5044430000000  0.5332060000000  0.3880770000000 1.0
C      1  0.4231490000000  0.5955390000000  0.4703300000000 1.0
C      1  0.5764920000000  0.5955380000000  0.5293990000000 1.0
C      1  0.5764920000000  0.4040730000000  0.4703310000000 1.0
C      1  0.4231490000000  0.4040730000000  0.5294000000000 1.0
C      1  0.5895580000000  0.4902750000000  0.5548600000000 1.0
C      1  0.4100830000000  0.4902750000000  0.4448700000000 1.0
C      1  0.4100830000000  0.5093370000000  0.5548600000000 1.0
C      1  0.5895580000000  0.5093360000000  0.4448700000000 1.0
C      1  0.5362650000000  0.4560560000000  0.4149640000000 1.0
C      1  0.4633760000000  0.4560560000000  0.5847660000000 1.0
C      1  0.4633760000000  0.5435560000000  0.4149640000000 1.0
C      1  0.5362650000000  0.5435560000000  0.5847660000000 1.0
C      1  0.5746680000000  0.4653310000000  0.4623280000000 1.0
C      1  0.4249730000000  0.4653310000000  0.5374020000000 1.0
C      1  0.4249730000000  0.5342810000000  0.4623280000000 1.0
C      1  0.5746680000000  0.5342810000000  0.5374020000000 1.0
C      1  0.5742760000000  0.5069640000000  0.5195930000000 1.0
C      1  0.4253650000000  0.5069650000000  0.4801370000000 1.0
C      1  0.4253650000000  0.4926470000000  0.5195930000000 1.0
C      1  0.5742760000000  0.4926470000000  0.4801370000000 1.0
C      1  0.5415170000000  0.4467050000000  0.5908660000000 1.0
C      1  0.4581240000000  0.4467050000000  0.4088640000000 1.0
C      1  0.4581240000000  0.5529070000000  0.5908660000000 1.0
C      1  0.5415170000000  0.5529070000000  0.4088640000000 1.0
C      1  0.5004290000000  0.5799350000000  0.5977060000000 1.0
C      1  0.4992120000000  0.5799350000000  0.4020240000000 1.0
C      1  0.4992120000000  0.4196770000000  0.5977060000000 1.0
C      1  0.5004290000000  0.4196770000000  0.4020240000000 1.0
C      1  0.6151020000000  0.5017760000000  0.5423670000000 1.0
C      1  0.3845390000000  0.5017760000000  0.4573630000000 1.0
C      1  0.3845390000000  0.4978360000000  0.5423670000000 1.0
C      1  0.6151020000000  0.4978350000000  0.4573630000000 1.0
C      1  0.4017970000000  0.5207700000000  0.4993020000000 1.0
C      1  0.5978440000000  0.5207690000000  0.5004280000000 1.0
C      1  0.5978440000000  0.4788420000000  0.4993020000000 1.0
C      1  0.4017970000000  0.4788420000000  0.5004280000000 1.0
C      1  0.5403570000000  0.5497140000000  0.4552750000000 1.0
C      1  0.4592840000000  0.5497140000000  0.5444550000000 1.0
C      1  0.4592840000000  0.4498980000000  0.4552750000000 1.0
C      1  0.5403570000000  0.4498980000000  0.5444560000000 1.0
C      1  0.4182000000000  0.4959840000000  0.5999290000000 1.0
C      1  0.5814410000000  0.4959840000000  0.3998020000000 1.0
C      1  0.5814400000000  0.5036280000000  0.5999290000000 1.0
C      1  0.4182000000000  0.5036280000000  0.3998020000000 1.0
C      1  0.5273620000000  0.5184670000000  0.4565380000000 1.0
C      1  0.4722790000000  0.5184680000000  0.5431920000000 1.0
C      1  0.4722790000000  0.4811440000000  0.4565380000000 1.0
C      1  0.5273620000000  0.4811440000000  0.5431920000000 1.0
C      1  0.4998200000000  0.4998060000000  0.4998650000000 1.0
END
