TITL C-862502-1143-423 7.04365359659545e-06 125000 -234.112290088994 0 0 48 (C1) n - 1
REM
REM in /home/nfs/bkarasulu/CARBON/AIRSS/Generating-Clusters/TERSOFF/Higher-Symm/FIRE-HFTN
REM
REM
REM
REM
REM
REM ./C.cell (b20cbc046b6831c77cfcea5457e17084)
REM AIRSS Version 0.9.1 bugfix July 2018 build 013d7b7c2542+ Fri, 06 Jul 2018 19:26:36 +0100
REM compiler GCC version 9.2.1 20190827 (Red Hat 9.2.1-1)
REM options -cpp -mtune=generic -march=x86-64 -g -O0 -fpre-include=/usr/include/finclude/math-vector-fortran.h
REM seed -1653942810 289753483 93462736 955685914 -541426680 -685657421 854719077 1773824844 -464426453 -490477520 -2003839445 1409083220 507031782 1735894457 1837927564 731414668 -1496517744 1836345943 -1712425152 -839970942 -815461299 667629324 1509652865 1166636819 -901829272 2119376405 76964873 1781543398 1175713732 -1701139528 -347451968 -1058434152 -1263144480
REM
CELL 1.54180   50.00000   50.00000   50.00000   90.00000   90.00000   90.00000
LATT -1
SFAC C  
C      1  0.5081670000000  0.4811040000000  0.5524990000000 1.0
C      1  0.4520250000000  0.4804180000000  0.5255290000000 1.0
C      1  0.4576410000000  0.4764160000000  0.4630520000000 1.0
C      1  0.5228920000000  0.4799630000000  0.4523140000000 1.0
C      1  0.5499830000000  0.4823880000000  0.5060980000000 1.0
C      1  0.5310220000000  0.5009660000000  0.4903360000000 1.0
C      1  0.5176370000000  0.4997490000000  0.5300540000000 1.0
C      1  0.4757390000000  0.5001970000000  0.5275550000000 1.0
C      1  0.4634120000000  0.4948690000000  0.4877910000000 1.0
C      1  0.4978060000000  0.4883960000000  0.4645930000000 1.0
C      1  0.5092260000000  0.5277080000000  0.5444820000000 1.0
C      1  0.4606610000000  0.5289580000000  0.5224900000000 1.0
C      1  0.4635900000000  0.5226260000000  0.4715360000000 1.0
C      1  0.5154290000000  0.5315980000000  0.4636100000000 1.0
C      1  0.5441060000000  0.5278060000000  0.5051470000000 1.0
C      1  0.4377070000000  0.5053430000000  0.5074160000000 1.0
C      1  0.4746450000000  0.5021130000000  0.4458410000000 1.0
C      1  0.5390010000000  0.5073480000000  0.4597030000000 1.0
C      1  0.5518420000000  0.5035930000000  0.5306950000000 1.0
C      1  0.4859120000000  0.5046220000000  0.5594170000000 1.0
C      1  0.5268290000000  0.5560130000000  0.5124970000000 1.0
C      1  0.4982960000000  0.5546560000000  0.5279860000000 1.0
C      1  0.4743040000000  0.5577160000000  0.5053080000000 1.0
C      1  0.4899270000000  0.5662600000000  0.4786940000000 1.0
C      1  0.5216410000000  0.5625130000000  0.4812780000000 1.0
C      1  0.4372840000000  0.5316400000000  0.4860660000000 1.0
C      1  0.4918720000000  0.5311050000000  0.4417530000000 1.0
C      1  0.5573860000000  0.5299840000000  0.4752970000000 1.0
C      1  0.5410450000000  0.5295920000000  0.5481250000000 1.0
C      1  0.4673640000000  0.5319000000000  0.5537880000000 1.0
C      1  0.5491450000000  0.5575640000000  0.4671440000000 1.0
C      1  0.5484870000000  0.5562220000000  0.5357500000000 1.0
C      1  0.4825440000000  0.5580700000000  0.5557880000000 1.0
C      1  0.4435760000000  0.5580780000000  0.4975820000000 1.0
C      1  0.4796940000000  0.5565210000000  0.4526970000000 1.0
C      1  0.4957770000000  0.4365550000000  0.4648250000000 1.0
C      1  0.5323600000000  0.4380290000000  0.4851680000000 1.0
C      1  0.5246540000000  0.4392410000000  0.5263310000000 1.0
C      1  0.4831190000000  0.4382570000000  0.5317370000000 1.0
C      1  0.4654910000000  0.4365990000000  0.4937880000000 1.0
C      1  0.4567450000000  0.4514290000000  0.5209920000000 1.0
C      1  0.4656310000000  0.4484250000000  0.4653400000000 1.0
C      1  0.5239180000000  0.4505260000000  0.4576120000000 1.0
C      1  0.5462180000000  0.4535920000000  0.5081080000000 1.0
C      1  0.5061280000000  0.4524360000000  0.5476010000000 1.0
C      1  0.4979070000000  0.4962990000000  0.4999190000000 1.0
C      1  0.4926640000000  0.5248290000000  0.4846820000000 1.0
C      1  0.5004930000000  0.4284580000000  0.5006280000000 1.0
END
