TITL C-862127-1500-895 83.4811504220723 125000 -882.01292241626 0 0 157 (C1) n - 1
REM
REM in /home/nfs/bkarasulu/CARBON/AIRSS/Generating-Clusters/TERSOFF/Higher-Symm/FIRE-HFTN
REM
REM
REM
REM
REM
REM ./C.cell (b20cbc046b6831c77cfcea5457e17084)
REM AIRSS Version 0.9.1 bugfix July 2018 build 013d7b7c2542+ Fri, 06 Jul 2018 19:26:36 +0100
REM compiler GCC version 9.2.1 20190827 (Red Hat 9.2.1-1)
REM options -cpp -mtune=generic -march=x86-64 -g -O0 -fpre-include=/usr/include/finclude/math-vector-fortran.h
REM seed -351314669 -1821803185 -258541759 2126888654 1246713329 -1741123302 -905306283 711328961 696522005 -756900991 -514129415 1487680233 1185813927 1499321867 1502389237 -1288212591 -1077221450 -420765083 -1512639632 893662855 -2000782319 -489480782 -1898431621 -651689983 1839160756 14698970 824791830 1847311111 1020379711 1779064899 -1496920051 -2070307724 -1847337945
REM
CELL 1.54180   50.00000   50.00000   50.00000   90.00000   90.00000   90.00000
LATT -1
SFAC C  
C      1  0.5013710000000  0.4968680000000  0.5346350000000 1.0
C      1  0.4953020000000  0.5274920000000  0.5406380000000 1.0
C      1  0.4792040000000  0.4773500000000  0.5413470000000 1.0
C      1  0.5956020000000  0.4938230000000  0.4531570000000 1.0
C      1  0.4581110000000  0.5877880000000  0.4532080000000 1.0
C      1  0.4467080000000  0.4182690000000  0.4517170000000 1.0
C      1  0.5920550000000  0.4199960000000  0.4918880000000 1.0
C      1  0.5257740000000  0.6222550000000  0.4896380000000 1.0
C      1  0.3821440000000  0.4590470000000  0.4897910000000 1.0
C      1  0.5672780000000  0.4656990000000  0.4071300000000 1.0
C      1  0.4944690000000  0.5788880000000  0.4087860000000 1.0
C      1  0.4340110000000  0.4581400000000  0.4075610000000 1.0
C      1  0.4072630000000  0.5787250000000  0.5101520000000 1.0
C      1  0.4807740000000  0.3809870000000  0.5130440000000 1.0
C      1  0.6122140000000  0.5397840000000  0.5126190000000 1.0
C      1  0.4803090000000  0.4802760000000  0.5831950000000 1.0
C      1  0.5298870000000  0.4948640000000  0.5817320000000 1.0
C      1  0.4930560000000  0.5303920000000  0.5824460000000 1.0
C      1  0.5891350000000  0.5556910000000  0.5223220000000 1.0
C      1  0.4035210000000  0.5532010000000  0.5243520000000 1.0
C      1  0.5031440000000  0.3877400000000  0.5316090000000 1.0
C      1  0.4495270000000  0.4835330000000  0.5358790000000 1.0
C      1  0.5319480000000  0.4844600000000  0.5323710000000 1.0
C      1  0.5149930000000  0.5506730000000  0.5342590000000 1.0
C      1  0.4873150000000  0.5300460000000  0.4016930000000 1.0
C      1  0.4791940000000  0.4782780000000  0.3997970000000 1.0
C      1  0.5287570000000  0.4977940000000  0.3992920000000 1.0
C      1  0.4696160000000  0.5075190000000  0.4050550000000 1.0
C      1  0.5074970000000  0.4745390000000  0.4031110000000 1.0
C      1  0.5179090000000  0.5239450000000  0.4044640000000 1.0
C      1  0.5163680000000  0.4463310000000  0.5775200000000 1.0
C      1  0.5418030000000  0.5443550000000  0.5802240000000 1.0
C      1  0.4456040000000  0.5148270000000  0.5733270000000 1.0
C      1  0.5218440000000  0.3910510000000  0.4607390000000 1.0
C      1  0.5836280000000  0.5684400000000  0.4659530000000 1.0
C      1  0.3997550000000  0.5371420000000  0.4661260000000 1.0
C      1  0.4764800000000  0.6128940000000  0.5094010000000 1.0
C      1  0.4150170000000  0.4204640000000  0.5093020000000 1.0
C      1  0.6047710000000  0.4667840000000  0.5110280000000 1.0
C      1  0.3835610000000  0.4823020000000  0.5158140000000 1.0
C      1  0.5694060000000  0.4094710000000  0.5170740000000 1.0
C      1  0.5453640000000  0.6096670000000  0.5159680000000 1.0
C      1  0.4528850000000  0.3964390000000  0.4708810000000 1.0
C      1  0.6142080000000  0.5089440000000  0.4701070000000 1.0
C      1  0.4360480000000  0.5963560000000  0.4704710000000 1.0
C      1  0.5063560000000  0.5796110000000  0.4490610000000 1.0
C      1  0.4293670000000  0.4631100000000  0.4490050000000 1.0
C      1  0.5666970000000  0.4558060000000  0.4479430000000 1.0
C      1  0.4904240000000  0.4369750000000  0.5389830000000 1.0
C      1  0.5564520000000  0.5185610000000  0.5412710000000 1.0
C      1  0.4536760000000  0.5418940000000  0.5350550000000 1.0
C      1  0.5657140000000  0.4286800000000  0.4799630000000 1.0
C      1  0.5311180000000  0.5940350000000  0.4797300000000 1.0
C      1  0.4045500000000  0.4769860000000  0.4798750000000 1.0
C      1  0.4582430000000  0.5234980000000  0.5125320000000 1.0
C      1  0.5008490000000  0.4466350000000  0.5128580000000 1.0
C      1  0.5392710000000  0.5221620000000  0.5153740000000 1.0
C      1  0.5607650000000  0.5843150000000  0.5078270000000 1.0
C      1  0.3996970000000  0.5075630000000  0.5082190000000 1.0
C      1  0.5415080000000  0.4011110000000  0.5059280000000 1.0
C      1  0.4177630000000  0.5183970000000  0.5621050000000 1.0
C      1  0.5266830000000  0.4193600000000  0.5680860000000 1.0
C      1  0.5572430000000  0.5651460000000  0.5646090000000 1.0
C      1  0.4519000000000  0.4878030000000  0.5820230000000 1.0
C      1  0.5371600000000  0.4663280000000  0.5826440000000 1.0
C      1  0.5134310000000  0.5517990000000  0.5845460000000 1.0
C      1  0.5371440000000  0.5867420000000  0.4508400000000 1.0
C      1  0.4077750000000  0.4865170000000  0.4511890000000 1.0
C      1  0.5588890000000  0.4259070000000  0.4503720000000 1.0
C      1  0.4532510000000  0.5577470000000  0.5785960000000 1.0
C      1  0.4745560000000  0.4315000000000  0.5826300000000 1.0
C      1  0.5771470000000  0.5119010000000  0.5848290000000 1.0
C      1  0.4596000000000  0.5577030000000  0.4386220000000 1.0
C      1  0.4715570000000  0.4368500000000  0.4347430000000 1.0
C      1  0.5683310000000  0.5072470000000  0.4365970000000 1.0
C      1  0.5325920000000  0.4122560000000  0.4414210000000 1.0
C      1  0.5616120000000  0.5683720000000  0.4448310000000 1.0
C      1  0.4106130000000  0.5170930000000  0.4453830000000 1.0
C      1  0.4531280000000  0.4656000000000  0.4670880000000 1.0
C      1  0.5518580000000  0.4742430000000  0.4666420000000 1.0
C      1  0.4969300000000  0.5580890000000  0.4676910000000 1.0
C      1  0.4278760000000  0.4692690000000  0.5740520000000 1.0
C      1  0.5642310000000  0.4540320000000  0.5753650000000 1.0
C      1  0.5097380000000  0.5811280000000  0.5745800000000 1.0
C      1  0.5393400000000  0.3833690000000  0.4828580000000 1.0
C      1  0.5808900000000  0.5872830000000  0.4873300000000 1.0
C      1  0.3871140000000  0.5264010000000  0.4897800000000 1.0
C      1  0.4816150000000  0.5231520000000  0.4938960000000 1.0
C      1  0.4898090000000  0.4710060000000  0.4958490000000 1.0
C      1  0.5281600000000  0.5024560000000  0.4946210000000 1.0
C      1  0.6024090000000  0.4503050000000  0.4862600000000 1.0
C      1  0.4934100000000  0.6163450000000  0.4846070000000 1.0
C      1  0.4038040000000  0.4338730000000  0.4845520000000 1.0
C      1  0.4014410000000  0.4735800000000  0.5370600000000 1.0
C      1  0.5635640000000  0.4317070000000  0.5358260000000 1.0
C      1  0.5283060000000  0.5983080000000  0.5363580000000 1.0
C      1  0.4852700000000  0.5541210000000  0.4227430000000 1.0
C      1  0.4604870000000  0.4623650000000  0.4208360000000 1.0
C      1  0.5512340000000  0.4867990000000  0.4208920000000 1.0
C      1  0.5418220000000  0.5535380000000  0.5097380000000 1.0
C      1  0.4354670000000  0.5040350000000  0.5116940000000 1.0
C      1  0.5227980000000  0.4278220000000  0.5026580000000 1.0
C      1  0.4269980000000  0.4771530000000  0.4978240000000 1.0
C      1  0.5476870000000  0.4419480000000  0.4983600000000 1.0
C      1  0.5212950000000  0.5739710000000  0.4979370000000 1.0
C      1  0.4633810000000  0.4959930000000  0.4343810000000 1.0
C      1  0.5193300000000  0.4738430000000  0.4323830000000 1.0
C      1  0.5129670000000  0.5340250000000  0.4346610000000 1.0
C      1  0.5551180000000  0.4612340000000  0.5221410000000 1.0
C      1  0.5080130000000  0.5804130000000  0.5250390000000 1.0
C      1  0.4268520000000  0.4635770000000  0.5260120000000 1.0
C      1  0.4823100000000  0.5922790000000  0.5303660000000 1.0
C      1  0.4296790000000  0.4353390000000  0.5313910000000 1.0
C      1  0.5830040000000  0.4694840000000  0.5306960000000 1.0
C      1  0.4835260000000  0.5920940000000  0.5616210000000 1.0
C      1  0.4305450000000  0.4399590000000  0.5630860000000 1.0
C      1  0.5857160000000  0.4694490000000  0.5607850000000 1.0
C      1  0.6105660000000  0.5134920000000  0.4992100000000 1.0
C      1  0.4324950000000  0.5880220000000  0.4984990000000 1.0
C      1  0.4636900000000  0.4004590000000  0.4984910000000 1.0
C      1  0.5553360000000  0.5373050000000  0.4405320000000 1.0
C      1  0.4406980000000  0.5304530000000  0.4429230000000 1.0
C      1  0.5073130000000  0.4326190000000  0.4347260000000 1.0
C      1  0.5054090000000  0.4127120000000  0.5467220000000 1.0
C      1  0.5696880000000  0.5467250000000  0.5425090000000 1.0
C      1  0.4238130000000  0.5399880000000  0.5407120000000 1.0
C      1  0.4065740000000  0.4884720000000  0.5619210000000 1.0
C      1  0.5562260000000  0.4271460000000  0.5632730000000 1.0
C      1  0.5370780000000  0.5889560000000  0.5623910000000 1.0
C      1  0.4858870000000  0.6003030000000  0.4581580000000 1.0
C      1  0.4211980000000  0.4352000000000  0.4575270000000 1.0
C      1  0.5937260000000  0.4638980000000  0.4586500000000 1.0
C      1  0.4425010000000  0.5176700000000  0.4726370000000 1.0
C      1  0.5116400000000  0.4405280000000  0.4642350000000 1.0
C      1  0.5458180000000  0.5383260000000  0.4695110000000 1.0
C      1  0.5165500000000  0.5383890000000  0.4762620000000 1.0
C      1  0.4594980000000  0.4922610000000  0.4760280000000 1.0
C      1  0.5248740000000  0.4664380000000  0.4732700000000 1.0
C      1  0.5891950000000  0.5419640000000  0.4769290000000 1.0
C      1  0.4193650000000  0.5578670000000  0.4723790000000 1.0
C      1  0.4948270000000  0.3984240000000  0.4703810000000 1.0
C      1  0.4891580000000  0.4271090000000  0.4776070000000 1.0
C      1  0.5669380000000  0.5232590000000  0.4838730000000 1.0
C      1  0.4460110000000  0.5479580000000  0.4807230000000 1.0
C      1  0.5954760000000  0.4927410000000  0.5743750000000 1.0
C      1  0.4596190000000  0.5851110000000  0.5754350000000 1.0
C      1  0.4478870000000  0.4232370000000  0.5782540000000 1.0
C      1  0.5006770000000  0.4810160000000  0.4626810000000 1.0
C      1  0.5145260000000  0.5112590000000  0.4625100000000 1.0
C      1  0.4816430000000  0.5078640000000  0.4613000000000 1.0
C      1  0.5496050000000  0.5157740000000  0.5734470000000 1.0
C      1  0.4681750000000  0.5346840000000  0.5634150000000 1.0
C      1  0.4882230000000  0.4545890000000  0.5668440000000 1.0
C      1  0.4632100000000  0.4413000000000  0.4826880000000 1.0
C      1  0.5678920000000  0.4931970000000  0.4846850000000 1.0
C      1  0.4718900000000  0.5627750000000  0.4839700000000 1.0
C      1  0.5012710000000  0.5020130000000  0.5857470000000 1.0
END
