TITL C-862506-1665-913 13.3256388354579 125000 -777.27394840204 0 0 141 (C1) n - 1
REM
REM in /home/nfs/bkarasulu/CARBON/AIRSS/Generating-Clusters/TERSOFF/Higher-Symm/FIRE-HFTN
REM
REM
REM
REM
REM
REM ./C.cell (b20cbc046b6831c77cfcea5457e17084)
REM AIRSS Version 0.9.1 bugfix July 2018 build 013d7b7c2542+ Fri, 06 Jul 2018 19:26:36 +0100
REM compiler GCC version 9.2.1 20190827 (Red Hat 9.2.1-1)
REM options -cpp -mtune=generic -march=x86-64 -g -O0 -fpre-include=/usr/include/finclude/math-vector-fortran.h
REM seed -538095895 998667075 -1541410828 392996219 -2031116349 -1837616781 -247041556 1599934659 774416625 1520271325 820307932 410776471 1664081668 1126018674 514813059 452944352 818350093 -1970681412 1888014701 -1086528478 -2053123978 1756364490 178949788 -332584617 1857770905 698430727 1663793181 1085385526 952287063 -1734511687 -218393786 -645729828 2103633584
REM
CELL 1.54180   50.00000   50.00000   50.00000   90.00000   90.00000   90.00000
LATT -1
SFAC C  
C      1  0.4532540000000  0.4305090000000  0.4467200000000 1.0
C      1  0.5685970000000  0.4293310000000  0.4855740000000 1.0
C      1  0.4784090000000  0.4316140000000  0.5667720000000 1.0
C      1  0.5699300000000  0.5330840000000  0.4219750000000 1.0
C      1  0.5325000000000  0.5334760000000  0.6000020000000 1.0
C      1  0.3973920000000  0.5328950000000  0.4782570000000 1.0
C      1  0.4787050000000  0.4244200000000  0.4322400000000 1.0
C      1  0.5675540000000  0.4230540000000  0.5152840000000 1.0
C      1  0.4542090000000  0.4238310000000  0.5503010000000 1.0
C      1  0.4419070000000  0.4828590000000  0.6036650000000 1.0
C      1  0.4392810000000  0.4820550000000  0.3979840000000 1.0
C      1  0.6182270000000  0.4807150000000  0.4984030000000 1.0
C      1  0.4316090000000  0.4976200000000  0.5810070000000 1.0
C      1  0.4638370000000  0.4972750000000  0.4003360000000 1.0
C      1  0.6036520000000  0.4960290000000  0.5182250000000 1.0
C      1  0.5458880000000  0.5861160000000  0.4435720000000 1.0
C      1  0.5262380000000  0.5867040000000  0.5682360000000 1.0
C      1  0.4277150000000  0.5861940000000  0.4887600000000 1.0
C      1  0.5601610000000  0.5263670000000  0.5925230000000 1.0
C      1  0.3901610000000  0.5259020000000  0.5059390000000 1.0
C      1  0.5497690000000  0.5264570000000  0.4016030000000 1.0
C      1  0.5808580000000  0.5636870000000  0.4661240000000 1.0
C      1  0.4886970000000  0.5644790000000  0.5874410000000 1.0
C      1  0.4299010000000  0.5639840000000  0.4466240000000 1.0
C      1  0.5510010000000  0.5484010000000  0.4913970000000 1.0
C      1  0.4820940000000  0.5493420000000  0.5488270000000 1.0
C      1  0.4667840000000  0.5489920000000  0.4599870000000 1.0
C      1  0.4723740000000  0.5267000000000  0.5698490000000 1.0
C      1  0.4534120000000  0.5263200000000  0.4411400000000 1.0
C      1  0.5739130000000  0.5256530000000  0.4889460000000 1.0
C      1  0.4707570000000  0.5094900000000  0.4258410000000 1.0
C      1  0.5780930000000  0.5080540000000  0.5111190000000 1.0
C      1  0.4502590000000  0.5100590000000  0.5623390000000 1.0
C      1  0.4988190000000  0.5488570000000  0.4478990000000 1.0
C      1  0.5452600000000  0.5481530000000  0.5251030000000 1.0
C      1  0.4556000000000  0.5489830000000  0.5271200000000 1.0
C      1  0.5486200000000  0.5713020000000  0.5779710000000 1.0
C      1  0.4079310000000  0.5707720000000  0.5030540000000 1.0
C      1  0.5433650000000  0.5710700000000  0.4190990000000 1.0
C      1  0.6067280000000  0.4908280000000  0.5464490000000 1.0
C      1  0.4062560000000  0.4906880000000  0.5690460000000 1.0
C      1  0.4866640000000  0.4916950000000  0.3835380000000 1.0
C      1  0.4372510000000  0.5496160000000  0.5678240000000 1.0
C      1  0.4725030000000  0.5494860000000  0.4117800000000 1.0
C      1  0.5897090000000  0.5487190000000  0.5202770000000 1.0
C      1  0.5235280000000  0.4338310000000  0.4866520000000 1.0
C      1  0.5004290000000  0.4340840000000  0.5277290000000 1.0
C      1  0.4769600000000  0.4367270000000  0.4866030000000 1.0
C      1  0.5037190000000  0.4160190000000  0.5654760000000 1.0
C      1  0.4452800000000  0.4142140000000  0.4708890000000 1.0
C      1  0.5529530000000  0.4131790000000  0.4652110000000 1.0
C      1  0.6058540000000  0.4628860000000  0.4792780000000 1.0
C      1  0.4640810000000  0.4644570000000  0.6022120000000 1.0
C      1  0.4289110000000  0.4645270000000  0.4185580000000 1.0
C      1  0.4519260000000  0.4786910000000  0.4612970000000 1.0
C      1  0.5575730000000  0.4777950000000  0.4772220000000 1.0
C      1  0.4900650000000  0.4796240000000  0.5617690000000 1.0
C      1  0.5815250000000  0.4882360000000  0.5623770000000 1.0
C      1  0.4057350000000  0.4876610000000  0.5393240000000 1.0
C      1  0.5129690000000  0.4888250000000  0.3975620000000 1.0
C      1  0.4084940000000  0.5112630000000  0.4590360000000 1.0
C      1  0.5811720000000  0.5112110000000  0.4409440000000 1.0
C      1  0.5102560000000  0.5118900000000  0.6001180000000 1.0
C      1  0.5050340000000  0.5772210000000  0.5489820000000 1.0
C      1  0.4550200000000  0.5766180000000  0.4800470000000 1.0
C      1  0.5395020000000  0.5761750000000  0.4713740000000 1.0
C      1  0.4361450000000  0.4576380000000  0.5091690000000 1.0
C      1  0.5230600000000  0.4588320000000  0.4385880000000 1.0
C      1  0.5405210000000  0.4585510000000  0.5507470000000 1.0
C      1  0.4903350000000  0.5073400000000  0.4821280000000 1.0
C      1  0.5207940000000  0.5065430000000  0.5007240000000 1.0
C      1  0.4895420000000  0.5069380000000  0.5176940000000 1.0
C      1  0.4096040000000  0.5171650000000  0.5270660000000 1.0
C      1  0.5216820000000  0.5178110000000  0.4074750000000 1.0
C      1  0.5688460000000  0.5175070000000  0.5651430000000 1.0
C      1  0.5692330000000  0.4616070000000  0.5517030000000 1.0
C      1  0.4204310000000  0.4605620000000  0.5334560000000 1.0
C      1  0.5093900000000  0.4624080000000  0.4134240000000 1.0
C      1  0.4691420000000  0.5995900000000  0.4679000000000 1.0
C      1  0.5427950000000  0.5990630000000  0.4898090000000 1.0
C      1  0.4873000000000  0.6000570000000  0.5428430000000 1.0
C      1  0.5614760000000  0.5474730000000  0.4487480000000 1.0
C      1  0.5135270000000  0.5482720000000  0.5793960000000 1.0
C      1  0.4246240000000  0.5477580000000  0.4721410000000 1.0
C      1  0.4589090000000  0.4120670000000  0.5202280000000 1.0
C      1  0.5017300000000  0.4160830000000  0.4503300000000 1.0
C      1  0.5399490000000  0.4121990000000  0.5273110000000 1.0
C      1  0.4790480000000  0.4847930000000  0.5338620000000 1.0
C      1  0.4818740000000  0.4851630000000  0.4648960000000 1.0
C      1  0.5394460000000  0.4837430000000  0.5013020000000 1.0
C      1  0.5445300000000  0.5775010000000  0.5315670000000 1.0
C      1  0.4503000000000  0.5782940000000  0.5232770000000 1.0
C      1  0.5046760000000  0.5782340000000  0.4454170000000 1.0
C      1  0.5829040000000  0.4418150000000  0.5339250000000 1.0
C      1  0.4293210000000  0.4408620000000  0.5538950000000 1.0
C      1  0.4869300000000  0.4432270000000  0.4100040000000 1.0
C      1  0.5055140000000  0.3948660000000  0.4741050000000 1.0
C      1  0.5112550000000  0.3906890000000  0.5238650000000 1.0
C      1  0.4861030000000  0.3953750000000  0.5022250000000 1.0
C      1  0.4306600000000  0.4942320000000  0.4757650000000 1.0
C      1  0.5557020000000  0.4937890000000  0.4516360000000 1.0
C      1  0.5135760000000  0.4948260000000  0.5727130000000 1.0
C      1  0.5138460000000  0.5243470000000  0.5601910000000 1.0
C      1  0.4412820000000  0.5239340000000  0.4819850000000 1.0
C      1  0.5449070000000  0.5234530000000  0.4581840000000 1.0
C      1  0.4594390000000  0.5930110000000  0.5474830000000 1.0
C      1  0.4790120000000  0.5927760000000  0.4413780000000 1.0
C      1  0.5609170000000  0.5921730000000  0.5115200000000 1.0
C      1  0.4380280000000  0.4269530000000  0.4989480000000 1.0
C      1  0.5323200000000  0.4279970000000  0.4440720000000 1.0
C      1  0.5313050000000  0.4283740000000  0.5556070000000 1.0
C      1  0.5782010000000  0.5675140000000  0.4983830000000 1.0
C      1  0.4620600000000  0.5682870000000  0.5688750000000 1.0
C      1  0.4592010000000  0.5680370000000  0.4328300000000 1.0
C      1  0.4063950000000  0.4772030000000  0.4869170000000 1.0
C      1  0.5580090000000  0.4773370000000  0.4244980000000 1.0
C      1  0.5354920000000  0.4775850000000  0.5878250000000 1.0
C      1  0.5251540000000  0.4360130000000  0.5141380000000 1.0
C      1  0.4762170000000  0.4369830000000  0.5151080000000 1.0
C      1  0.5000580000000  0.4382330000000  0.4715900000000 1.0
C      1  0.4636050000000  0.3919440000000  0.4789210000000 1.0
C      1  0.5351110000000  0.3914450000000  0.4761750000000 1.0
C      1  0.5019860000000  0.3900960000000  0.5519670000000 1.0
C      1  0.4787310000000  0.4582770000000  0.5778570000000 1.0
C      1  0.4431310000000  0.4575050000000  0.4430360000000 1.0
C      1  0.5774710000000  0.4562880000000  0.4788120000000 1.0
C      1  0.5437210000000  0.4829790000000  0.3994210000000 1.0
C      1  0.5644200000000  0.4825870000000  0.5880540000000 1.0
C      1  0.3918140000000  0.4823380000000  0.5117580000000 1.0
C      1  0.5017080000000  0.5398950000000  0.4172020000000 1.0
C      1  0.5704360000000  0.5394740000000  0.5430000000000 1.0
C      1  0.4276740000000  0.5395110000000  0.5398000000000 1.0
C      1  0.5184930000000  0.5630670000000  0.4073270000000 1.0
C      1  0.5709350000000  0.5630090000000  0.5620100000000 1.0
C      1  0.4102860000000  0.5624850000000  0.5303920000000 1.0
C      1  0.5910510000000  0.5229450000000  0.4656960000000 1.0
C      1  0.4839520000000  0.5236960000000  0.5962820000000 1.0
C      1  0.4247450000000  0.5231870000000  0.4380850000000 1.0
C      1  0.4640910000000  0.4627660000000  0.5196540000000 1.0
C      1  0.5028600000000  0.4642020000000  0.4599410000000 1.0
C      1  0.5342300000000  0.4622410000000  0.5217660000000 1.0
END
