TITL C-862134-6730-38 -26.9395568235431 125000 -235.149551005797 0 0 42 (C1) n - 1
REM
REM in /home/nfs/bkarasulu/CARBON/AIRSS/Generating-Clusters/TERSOFF/Higher-Symm/FIRE-HFTN
REM
REM
REM
REM
REM
REM ./C.cell (b20cbc046b6831c77cfcea5457e17084)
REM AIRSS Version 0.9.1 bugfix July 2018 build 013d7b7c2542+ Fri, 06 Jul 2018 19:26:36 +0100
REM compiler GCC version 9.2.1 20190827 (Red Hat 9.2.1-1)
REM options -cpp -mtune=generic -march=x86-64 -g -O0 -fpre-include=/usr/include/finclude/math-vector-fortran.h
REM seed -1669179676 -203637388 -861557355 1931240761 715692314 -685778405 1627662273 887267461 2027628711 -975611251 1186998828 -1542044834 1537419968 -1657288009 -1508241257 1851930203 1179275581 -971305857 763768344 -1716776496 -1901383182 310759235 1583485479 -1456900888 -1230947801 1327936359 1642954651 103540711 1719557669 1794598819 -1077210365 -1599774956 -817053201
REM
CELL 1.54180   50.00000   50.00000   50.00000   90.00000   90.00000   90.00000
LATT -1
SFAC C  
C      1  0.5467330000000  0.5042200000000  0.5463970000000 1.0
C      1  0.5688230000000  0.4992060000000  0.5281940000000 1.0
C      1  0.4784480000000  0.5063930000000  0.5104650000000 1.0
C      1  0.4695460000000  0.5507310000000  0.5564270000000 1.0
C      1  0.4770920000000  0.4558500000000  0.5421660000000 1.0
C      1  0.4988070000000  0.5518400000000  0.5141670000000 1.0
C      1  0.4922460000000  0.4603520000000  0.4944230000000 1.0
C      1  0.4389540000000  0.5686540000000  0.5004310000000 1.0
C      1  0.4853670000000  0.4932090000000  0.5594790000000 1.0
C      1  0.4482170000000  0.4939340000000  0.5180760000000 1.0
C      1  0.4730500000000  0.5001970000000  0.4357260000000 1.0
C      1  0.4935870000000  0.4529360000000  0.4465490000000 1.0
C      1  0.4961180000000  0.4979890000000  0.5859240000000 1.0
C      1  0.5345170000000  0.4647980000000  0.4777460000000 1.0
C      1  0.4373000000000  0.4817020000000  0.4925610000000 1.0
C      1  0.4864390000000  0.5358360000000  0.4691860000000 1.0
C      1  0.5226930000000  0.5169280000000  0.5354770000000 1.0
C      1  0.5217630000000  0.4868860000000  0.4219530000000 1.0
C      1  0.4650030000000  0.4610410000000  0.4495740000000 1.0
C      1  0.5081080000000  0.4616710000000  0.4231200000000 1.0
C      1  0.5393730000000  0.4920620000000  0.4666230000000 1.0
C      1  0.5269010000000  0.4519150000000  0.5276560000000 1.0
C      1  0.5230250000000  0.5059470000000  0.4450870000000 1.0
C      1  0.5367220000000  0.5312810000000  0.4371510000000 1.0
C      1  0.4367510000000  0.5218230000000  0.5212420000000 1.0
C      1  0.4565850000000  0.4815730000000  0.4695720000000 1.0
C      1  0.5698550000000  0.4752670000000  0.5121480000000 1.0
C      1  0.4793040000000  0.5351740000000  0.4985740000000 1.0
C      1  0.4532040000000  0.4741080000000  0.5403820000000 1.0
C      1  0.4508060000000  0.5429610000000  0.5066350000000 1.0
C      1  0.4961380000000  0.5044550000000  0.5348920000000 1.0
C      1  0.5439160000000  0.5525880000000  0.4553950000000 1.0
C      1  0.5253080000000  0.5665830000000  0.4726160000000 1.0
C      1  0.5084970000000  0.4513240000000  0.4723930000000 1.0
C      1  0.5351550000000  0.4563120000000  0.5552800000000 1.0
C      1  0.4938150000000  0.5575920000000  0.5422250000000 1.0
C      1  0.5422460000000  0.4823960000000  0.5650840000000 1.0
C      1  0.5226570000000  0.5621830000000  0.5011190000000 1.0
C      1  0.4981570000000  0.4530820000000  0.5212930000000 1.0
C      1  0.5460210000000  0.4598700000000  0.5050490000000 1.0
C      1  0.4790470000000  0.4847930000000  0.4891560000000 1.0
C      1  0.4937070000000  0.5123380000000  0.4523890000000 1.0
END
