TITL C-862128-1543-1289 0.197009898301065 125000 -387.222988337427 0 0 77 (C1) n - 1
REM
REM in /home/nfs/bkarasulu/CARBON/AIRSS/Generating-Clusters/TERSOFF/Higher-Symm/FIRE-HFTN
REM
REM
REM
REM
REM
REM ./C.cell (b20cbc046b6831c77cfcea5457e17084)
REM AIRSS Version 0.9.1 bugfix July 2018 build 013d7b7c2542+ Fri, 06 Jul 2018 19:26:36 +0100
REM compiler GCC version 9.2.1 20190827 (Red Hat 9.2.1-1)
REM options -cpp -mtune=generic -march=x86-64 -g -O0 -fpre-include=/usr/include/finclude/math-vector-fortran.h
REM seed 1445790687 -440669160 -1675785513 -535982043 -101787599 -52135995 -1634855542 2101000684 444625328 166321399 -1641845577 1127093754 35843828 -1790485527 1272138982 -1092831541 248072656 -1658771574 -1715416146 278040747 1251728214 659132053 1169710277 1326029562 1004639547 1983681719 -1150888046 1568636909 408502615 852656556 -1856183996 1968426281 2089068078
REM
CELL 1.54180   50.00000   50.00000   50.00000   90.00000   90.00000   90.00000
LATT -1
SFAC C  
C      1  0.5727340000000  0.5193980000000  0.4850990000000 1.0
C      1  0.4254610000000  0.5243710000000  0.5186740000000 1.0
C      1  0.5727170000000  0.5186770000000  0.5164970000000 1.0
C      1  0.4262490000000  0.5250650000000  0.4869280000000 1.0
C      1  0.5581200000000  0.4978590000000  0.5339130000000 1.0
C      1  0.4388310000000  0.5035940000000  0.4686190000000 1.0
C      1  0.5591530000000  0.4987150000000  0.4668830000000 1.0
C      1  0.4376370000000  0.5023750000000  0.5368290000000 1.0
C      1  0.4435290000000  0.4777650000000  0.5188210000000 1.0
C      1  0.5496290000000  0.4744220000000  0.4839680000000 1.0
C      1  0.4479140000000  0.4794960000000  0.4863790000000 1.0
C      1  0.5473060000000  0.4746330000000  0.5159840000000 1.0
C      1  0.5524010000000  0.5614500000000  0.5312220000000 1.0
C      1  0.4456800000000  0.5683660000000  0.4697350000000 1.0
C      1  0.5527040000000  0.5626440000000  0.4722320000000 1.0
C      1  0.4461440000000  0.5671950000000  0.5315770000000 1.0
C      1  0.4711000000000  0.4226980000000  0.5154360000000 1.0
C      1  0.5354770000000  0.4209880000000  0.4865500000000 1.0
C      1  0.4763090000000  0.4190900000000  0.4816260000000 1.0
C      1  0.5296940000000  0.4233860000000  0.5180050000000 1.0
C      1  0.4867350000000  0.3922370000000  0.4770400000000 1.0
C      1  0.5197950000000  0.3961130000000  0.5238600000000 1.0
C      1  0.4783520000000  0.3926080000000  0.5181750000000 1.0
C      1  0.5282910000000  0.3921710000000  0.4829200000000 1.0
C      1  0.5137150000000  0.5296540000000  0.4772090000000 1.0
C      1  0.4810020000000  0.5287800000000  0.5228360000000 1.0
C      1  0.5121130000000  0.5281550000000  0.5242710000000 1.0
C      1  0.4835800000000  0.5327510000000  0.4764000000000 1.0
C      1  0.5401900000000  0.4395730000000  0.4626830000000 1.0
C      1  0.4717690000000  0.4356820000000  0.5448300000000 1.0
C      1  0.5389950000000  0.4412830000000  0.5401110000000 1.0
C      1  0.4688790000000  0.4360830000000  0.4581800000000 1.0
C      1  0.5124570000000  0.4978400000000  0.5151380000000 1.0
C      1  0.4828670000000  0.5011880000000  0.4784210000000 1.0
C      1  0.5160960000000  0.4991700000000  0.4803260000000 1.0
C      1  0.4795080000000  0.4984240000000  0.5130100000000 1.0
C      1  0.5797070000000  0.4885710000000  0.4471990000000 1.0
C      1  0.4167440000000  0.4942990000000  0.5570810000000 1.0
C      1  0.5780740000000  0.4859480000000  0.5532140000000 1.0
C      1  0.4170830000000  0.4934270000000  0.4501610000000 1.0
C      1  0.4766570000000  0.4643070000000  0.5145270000000 1.0
C      1  0.5147990000000  0.4652390000000  0.4841160000000 1.0
C      1  0.4788340000000  0.4684780000000  0.4829630000000 1.0
C      1  0.5128490000000  0.4636520000000  0.5160300000000 1.0
C      1  0.4222420000000  0.5506450000000  0.4735900000000 1.0
C      1  0.5758350000000  0.5440410000000  0.5305150000000 1.0
C      1  0.4224880000000  0.5499200000000  0.5322160000000 1.0
C      1  0.5759600000000  0.5453010000000  0.4722470000000 1.0
C      1  0.5161830000000  0.5441170000000  0.5627250000000 1.0
C      1  0.4825930000000  0.5448770000000  0.4365450000000 1.0
C      1  0.5167820000000  0.5435830000000  0.4378800000000 1.0
C      1  0.4838410000000  0.5439580000000  0.5617840000000 1.0
C      1  0.4855320000000  0.5834700000000  0.5175160000000 1.0
C      1  0.5168360000000  0.5858640000000  0.4816400000000 1.0
C      1  0.4858490000000  0.5854860000000  0.4811300000000 1.0
C      1  0.5167490000000  0.5851470000000  0.5183210000000 1.0
C      1  0.4635700000000  0.5503610000000  0.4867940000000 1.0
C      1  0.5323340000000  0.5463700000000  0.5146820000000 1.0
C      1  0.4624340000000  0.5486230000000  0.5135990000000 1.0
C      1  0.5324930000000  0.5474550000000  0.4880270000000 1.0
C      1  0.5287070000000  0.5701810000000  0.5490570000000 1.0
C      1  0.4716660000000  0.5711450000000  0.4512210000000 1.0
C      1  0.5297380000000  0.5692340000000  0.4522340000000 1.0
C      1  0.4725280000000  0.5699160000000  0.5483460000000 1.0
C      1  0.5211870000000  0.4586300000000  0.5567800000000 1.0
C      1  0.4871770000000  0.4553250000000  0.4440310000000 1.0
C      1  0.5205490000000  0.4542180000000  0.4441290000000 1.0
C      1  0.4885360000000  0.4588740000000  0.5544210000000 1.0
C      1  0.4631910000000  0.5153420000000  0.4442440000000 1.0
C      1  0.5343680000000  0.5135710000000  0.5566080000000 1.0
C      1  0.4649010000000  0.5134380000000  0.5581700000000 1.0
C      1  0.5338950000000  0.5124920000000  0.4447150000000 1.0
C      1  0.5159110000000  0.4901440000000  0.5484330000000 1.0
C      1  0.4821270000000  0.4885700000000  0.4455120000000 1.0
C      1  0.5146230000000  0.4868650000000  0.4480210000000 1.0
C      1  0.4828300000000  0.4908420000000  0.5463630000000 1.0
C      1  0.5038070000000  0.3792660000000  0.5009840000000 1.0
END
