TITL C-862506-1665-1288 0.0973278850872878 125000 -604.207436900174 0 0 107 (C2) n - 1
REM
REM in /home/nfs/bkarasulu/CARBON/AIRSS/Generating-Clusters/TERSOFF/Higher-Symm/FIRE-HFTN
REM
REM
REM
REM
REM
REM ./C.cell (b20cbc046b6831c77cfcea5457e17084)
REM AIRSS Version 0.9.1 bugfix July 2018 build 013d7b7c2542+ Fri, 06 Jul 2018 19:26:36 +0100
REM compiler GCC version 9.2.1 20190827 (Red Hat 9.2.1-1)
REM options -cpp -mtune=generic -march=x86-64 -g -O0 -fpre-include=/usr/include/finclude/math-vector-fortran.h
REM seed 1662388265 654942280 -1150271828 2038804966 -825781426 409899147 1046595651 -425709114 351915122 1829775954 -678239301 370330357 -1182942714 1522102311 2146269094 14405662 -698562211 404028316 -1078498672 828933453 -749560638 1197952832 -1878255681 -1179829956 143921063 2006510795 -625308069 108599638 -1512664435 1735249685 -705989461 -744052058 -211013860
REM
CELL 1.54180   50.00000   50.00000   50.00000   90.00000   90.00000   90.00000
LATT -1
SFAC C  
C      1  0.4433430000000  0.4708480000000  0.5674020000000 1.0
C      1  0.5559330000000  0.4708470000000  0.4327150000000 1.0
C      1  0.4396170000000  0.5270490000000  0.5597070000000 1.0
C      1  0.5596590000000  0.5270490000000  0.4404100000000 1.0
C      1  0.4644540000000  0.5156340000000  0.4562200000000 1.0
C      1  0.5348230000000  0.5156340000000  0.5438970000000 1.0
C      1  0.4636090000000  0.4833460000000  0.4560320000000 1.0
C      1  0.5356670000000  0.4833450000000  0.5440840000000 1.0
C      1  0.4353640000000  0.5162310000000  0.4707760000000 1.0
C      1  0.5639120000000  0.5162310000000  0.5293410000000 1.0
C      1  0.4354080000000  0.4842340000000  0.4719520000000 1.0
C      1  0.5638680000000  0.4842330000000  0.5281640000000 1.0
C      1  0.4869860000000  0.4652230000000  0.4160620000000 1.0
C      1  0.5122900000000  0.4652220000000  0.5840540000000 1.0
C      1  0.4913710000000  0.5319780000000  0.4175380000000 1.0
C      1  0.5079060000000  0.5319780000000  0.5825790000000 1.0
C      1  0.5154340000000  0.5157870000000  0.4551440000000 1.0
C      1  0.4838430000000  0.5157870000000  0.5449720000000 1.0
C      1  0.5147880000000  0.4857900000000  0.4543580000000 1.0
C      1  0.4844880000000  0.4857900000000  0.5457590000000 1.0
C      1  0.5767860000000  0.5334400000000  0.4850400000000 1.0
C      1  0.4224900000000  0.5334410000000  0.5150770000000 1.0
C      1  0.5723050000000  0.4699840000000  0.4816410000000 1.0
C      1  0.4269710000000  0.4699840000000  0.5184750000000 1.0
C      1  0.4619110000000  0.5633940000000  0.4597950000000 1.0
C      1  0.5373660000000  0.5633930000000  0.5403220000000 1.0
C      1  0.4600290000000  0.4359250000000  0.4614760000000 1.0
C      1  0.5392470000000  0.4359250000000  0.5386400000000 1.0
C      1  0.5851310000000  0.5616420000000  0.4875090000000 1.0
C      1  0.4141460000000  0.5616420000000  0.5126080000000 1.0
C      1  0.5830000000000  0.4424080000000  0.4827220000000 1.0
C      1  0.4162750000000  0.4424090000000  0.5173940000000 1.0
C      1  0.4644360000000  0.5483830000000  0.4895290000000 1.0
C      1  0.5348400000000  0.5483830000000  0.5105880000000 1.0
C      1  0.4650010000000  0.4518130000000  0.4901740000000 1.0
C      1  0.5342750000000  0.4518130000000  0.5099420000000 1.0
C      1  0.5484290000000  0.5552450000000  0.4501630000000 1.0
C      1  0.4508470000000  0.5552450000000  0.5499530000000 1.0
C      1  0.5445920000000  0.4449390000000  0.4468640000000 1.0
C      1  0.4546840000000  0.4449390000000  0.5532520000000 1.0
C      1  0.5801530000000  0.4889750000000  0.4618390000000 1.0
C      1  0.4191230000000  0.4889750000000  0.5382780000000 1.0
C      1  0.5895340000000  0.5150570000000  0.4673850000000 1.0
C      1  0.4097420000000  0.5150570000000  0.5327320000000 1.0
C      1  0.4958140000000  0.4838920000000  0.5996030000000 1.0
C      1  0.5034620000000  0.4838920000000  0.4005140000000 1.0
C      1  0.4887190000000  0.5112830000000  0.5911640000000 1.0
C      1  0.5105570000000  0.5112830000000  0.4089520000000 1.0
C      1  0.4447460000000  0.5148680000000  0.4100320000000 1.0
C      1  0.5545310000000  0.5148670000000  0.5900850000000 1.0
C      1  0.4423830000000  0.4863530000000  0.4106350000000 1.0
C      1  0.5568930000000  0.4863520000000  0.5894810000000 1.0
C      1  0.4809870000000  0.4235740000000  0.4459140000000 1.0
C      1  0.5182890000000  0.4235740000000  0.5542020000000 1.0
C      1  0.4841100000000  0.5746970000000  0.4453000000000 1.0
C      1  0.5151670000000  0.5746970000000  0.5548170000000 1.0
C      1  0.5544130000000  0.5266120000000  0.5031710000000 1.0
C      1  0.4448640000000  0.5266120000000  0.4969460000000 1.0
C      1  0.5520090000000  0.4748640000000  0.5024030000000 1.0
C      1  0.4472670000000  0.4748650000000  0.4977140000000 1.0
C      1  0.5565360000000  0.4324610000000  0.4713020000000 1.0
C      1  0.4427400000000  0.4324610000000  0.5288150000000 1.0
C      1  0.5586140000000  0.5698010000000  0.4745120000000 1.0
C      1  0.4406630000000  0.5698010000000  0.5256050000000 1.0
C      1  0.5081770000000  0.5207060000000  0.5274450000000 1.0
C      1  0.4910990000000  0.5207070000000  0.4726720000000 1.0
C      1  0.5080740000000  0.4787280000000  0.5285920000000 1.0
C      1  0.4912020000000  0.4787280000000  0.4715250000000 1.0
C      1  0.5842280000000  0.5391940000000  0.5339640000000 1.0
C      1  0.4150480000000  0.5391950000000  0.4661530000000 1.0
C      1  0.5850650000000  0.4620330000000  0.5302680000000 1.0
C      1  0.4142110000000  0.4620340000000  0.4698480000000 1.0
C      1  0.4164940000000  0.5652640000000  0.4819350000000 1.0
C      1  0.5827830000000  0.5652640000000  0.5181820000000 1.0
C      1  0.4159790000000  0.4369300000000  0.4868830000000 1.0
C      1  0.5832970000000  0.4369290000000  0.5132330000000 1.0
C      1  0.5110780000000  0.4113400000000  0.4890560000000 1.0
C      1  0.4881980000000  0.4113400000000  0.5110600000000 1.0
C      1  0.5115640000000  0.5889020000000  0.4896560000000 1.0
C      1  0.4877130000000  0.5889020000000  0.5104610000000 1.0
C      1  0.5574010000000  0.5813030000000  0.5236020000000 1.0
C      1  0.4418760000000  0.5813030000000  0.4765140000000 1.0
C      1  0.5590220000000  0.4194120000000  0.5199210000000 1.0
C      1  0.4402540000000  0.4194130000000  0.4801950000000 1.0
C      1  0.4740050000000  0.5698650000000  0.5614870000000 1.0
C      1  0.5252720000000  0.5698650000000  0.4386300000000 1.0
C      1  0.4775550000000  0.4287500000000  0.5629480000000 1.0
C      1  0.5217210000000  0.4287500000000  0.4371690000000 1.0
C      1  0.4920440000000  0.5895220000000  0.5400170000000 1.0
C      1  0.5072330000000  0.5895220000000  0.4601000000000 1.0
C      1  0.4940210000000  0.4096350000000  0.5402250000000 1.0
C      1  0.5052550000000  0.4096350000000  0.4598910000000 1.0
C      1  0.5039820000000  0.4383970000000  0.5779730000000 1.0
C      1  0.4952940000000  0.4383980000000  0.4221430000000 1.0
C      1  0.4997930000000  0.5591110000000  0.5773030000000 1.0
C      1  0.4994830000000  0.5591110000000  0.4228130000000 1.0
C      1  0.4611310000000  0.5766400000000  0.5038030000000 1.0
C      1  0.5381460000000  0.5766400000000  0.4963140000000 1.0
C      1  0.4616280000000  0.4244780000000  0.5059490000000 1.0
C      1  0.5376480000000  0.4244780000000  0.4941670000000 1.0
C      1  0.4621720000000  0.4737840000000  0.4278810000000 1.0
C      1  0.5371040000000  0.4737840000000  0.5722360000000 1.0
C      1  0.4652660000000  0.5249570000000  0.4279800000000 1.0
C      1  0.5340110000000  0.5249570000000  0.5721370000000 1.0
C      1  0.4533640000000  0.5007380000000  0.5695470000000 1.0
C      1  0.5459120000000  0.5007380000000  0.4305690000000 1.0
C      1  0.4996380000000  0.4990120000000  0.5000580000000 1.0
END
