TITL C-862133-5440-1206 0.012217177236324 125000 -437.912969777709 0 0 72 (S4) n - 1
REM
REM in /home/nfs/bkarasulu/CARBON/AIRSS/Generating-Clusters/TERSOFF/Higher-Symm/FIRE-HFTN
REM
REM
REM
REM
REM
REM ./C.cell (b20cbc046b6831c77cfcea5457e17084)
REM AIRSS Version 0.9.1 bugfix July 2018 build 013d7b7c2542+ Fri, 06 Jul 2018 19:26:36 +0100
REM compiler GCC version 9.2.1 20190827 (Red Hat 9.2.1-1)
REM options -cpp -mtune=generic -march=x86-64 -g -O0 -fpre-include=/usr/include/finclude/math-vector-fortran.h
REM seed 313963888 -219806173 -60338281 -921427821 -2053646561 -1884392331 -2017424913 -1901493926 1146355992 115409240 -969335529 2121999142 -419984939 -470591742 -1198313181 -1445457603 -1438161664 1865818820 513341965 24487507 1126495755 1187904663 74619204 -2005006124 120874344 1763784864 -541232212 21883474 -1087234382 632712616 1911498710 155876781 1465900520
REM
CELL 1.54180   50.00000   50.00000   50.00000   90.00000   90.00000   90.00000
LATT -1
SFAC C  
C      1  0.5518180000000  0.4453140000000  0.5345490000000 1.0
C      1  0.5518170000000  0.5546890000000  0.4654530000000 1.0
C      1  0.4493440000000  0.5557740000000  0.5341750000000 1.0
C      1  0.4493480000000  0.4442230000000  0.4658240000000 1.0
C      1  0.5506540000000  0.5341770000000  0.4442250000000 1.0
C      1  0.5506540000000  0.4658260000000  0.5557760000000 1.0
C      1  0.4481810000000  0.5345470000000  0.5546870000000 1.0
C      1  0.4481840000000  0.4654510000000  0.4453120000000 1.0
C      1  0.5516270000000  0.4171170000000  0.5422380000000 1.0
C      1  0.5516240000000  0.5828850000000  0.4577630000000 1.0
C      1  0.4508550000000  0.5836320000000  0.5428950000000 1.0
C      1  0.4508600000000  0.4163660000000  0.4571030000000 1.0
C      1  0.5491430000000  0.5428970000000  0.4163680000000 1.0
C      1  0.5491420000000  0.4571050000000  0.5836340000000 1.0
C      1  0.4483720000000  0.5422360000000  0.5828830000000 1.0
C      1  0.4483770000000  0.4577610000000  0.4171150000000 1.0
C      1  0.5104590000000  0.5313480000000  0.5107390000000 1.0
C      1  0.5104600000000  0.4686520000000  0.4892620000000 1.0
C      1  0.4902520000000  0.4682140000000  0.5106950000000 1.0
C      1  0.4902500000000  0.5317860000000  0.4893050000000 1.0
C      1  0.5097480000000  0.5106950000000  0.5317860000000 1.0
C      1  0.5097500000000  0.4893050000000  0.4682140000000 1.0
C      1  0.4895410000000  0.5107380000000  0.4686520000000 1.0
C      1  0.4895400000000  0.4892610000000  0.5313480000000 1.0
C      1  0.4312180000000  0.5247550000000  0.4989370000000 1.0
C      1  0.4312190000000  0.4752420000000  0.5010610000000 1.0
C      1  0.5679990000000  0.4790630000000  0.5014790000000 1.0
C      1  0.5679980000000  0.5209400000000  0.4985230000000 1.0
C      1  0.4320010000000  0.5014760000000  0.5209370000000 1.0
C      1  0.4320020000000  0.4985200000000  0.4790600000000 1.0
C      1  0.5687820000000  0.4989390000000  0.4752440000000 1.0
C      1  0.5687810000000  0.5010640000000  0.5247580000000 1.0
C      1  0.4615410000000  0.4401020000000  0.5393420000000 1.0
C      1  0.4615400000000  0.5598960000000  0.4606570000000 1.0
C      1  0.5405980000000  0.5585940000000  0.5391590000000 1.0
C      1  0.5406020000000  0.4414080000000  0.4608420000000 1.0
C      1  0.4594000000000  0.5391580000000  0.4414060000000 1.0
C      1  0.4594000000000  0.4608410000000  0.5585930000000 1.0
C      1  0.5384580000000  0.5393430000000  0.5598970000000 1.0
C      1  0.5384610000000  0.4606590000000  0.4401040000000 1.0
C      1  0.4693300000000  0.4881730000000  0.5541770000000 1.0
C      1  0.4693320000000  0.5118260000000  0.4458220000000 1.0
C      1  0.5286760000000  0.5119800000000  0.5555590000000 1.0
C      1  0.5286790000000  0.4880220000000  0.4444420000000 1.0
C      1  0.4713210000000  0.5555580000000  0.4880210000000 1.0
C      1  0.4713240000000  0.4444410000000  0.5119790000000 1.0
C      1  0.5306680000000  0.5541790000000  0.5118270000000 1.0
C      1  0.5306710000000  0.4458230000000  0.4881740000000 1.0
C      1  0.5527700000000  0.5459650000000  0.4934250000000 1.0
C      1  0.5527720000000  0.4540380000000  0.5065760000000 1.0
C      1  0.4486020000000  0.4518630000000  0.4941090000000 1.0
C      1  0.4486000000000  0.5481340000000  0.5058890000000 1.0
C      1  0.5513990000000  0.4941110000000  0.5481360000000 1.0
C      1  0.5514000000000  0.5058910000000  0.4518650000000 1.0
C      1  0.4472290000000  0.4934230000000  0.4540360000000 1.0
C      1  0.4472280000000  0.5065740000000  0.5459630000000 1.0
C      1  0.4510850000000  0.4092400000000  0.4290280000000 1.0
C      1  0.4510780000000  0.5907580000000  0.5709700000000 1.0
C      1  0.5501770000000  0.5910310000000  0.4300050000000 1.0
C      1  0.5501790000000  0.4089710000000  0.5699960000000 1.0
C      1  0.4498250000000  0.4300030000000  0.4089690000000 1.0
C      1  0.4498190000000  0.5699940000000  0.5910290000000 1.0
C      1  0.5489190000000  0.4290300000000  0.5907600000000 1.0
C      1  0.5489180000000  0.5709720000000  0.4092420000000 1.0
C      1  0.4872060000000  0.5789680000000  0.4974320000000 1.0
C      1  0.4872090000000  0.4210310000000  0.5025670000000 1.0
C      1  0.5157460000000  0.4216660000000  0.4975850000000 1.0
C      1  0.5157430000000  0.5783350000000  0.5024150000000 1.0
C      1  0.4842540000000  0.4975850000000  0.5783340000000 1.0
C      1  0.4842570000000  0.5024140000000  0.4216650000000 1.0
C      1  0.5127940000000  0.4974330000000  0.4210320000000 1.0
C      1  0.5127910000000  0.5025680000000  0.5789690000000 1.0
END
