TITL C-862501-1041-619 0.000222420886586933 125000 -985.313760738273 0 0 182 (C2) n - 1
REM
REM in /home/nfs/bkarasulu/CARBON/AIRSS/Generating-Clusters/TERSOFF/Higher-Symm/FIRE-HFTN
REM
REM
REM
REM
REM
REM ./C.cell (b20cbc046b6831c77cfcea5457e17084)
REM AIRSS Version 0.9.1 bugfix July 2018 build 013d7b7c2542+ Fri, 06 Jul 2018 19:26:36 +0100
REM compiler GCC version 9.2.1 20190827 (Red Hat 9.2.1-1)
REM options -cpp -mtune=generic -march=x86-64 -g -O0 -fpre-include=/usr/include/finclude/math-vector-fortran.h
REM seed -2135272536 17978112 1995943706 328742489 -1237624564 -1042987235 623988312 -1067420415 -1159079926 -2057567353 -1353969610 -2048979099 -1533329496 1987909338 622359917 1154464166 -932625010 917723032 921088656 -1030798539 498579709 1450775193 -533887973 -854739920 1656834096 966561554 757924807 881761730 1832156292 -1449204201 434398378 494895222 -1983348243
REM
CELL 1.54180   50.00000   50.00000   50.00000   90.00000   90.00000   90.00000
LATT -1
SFAC C  
C      1  0.4782150000000  0.5170060000000  0.6117180000000 1.0
C      1  0.4779480000000  0.5877230000000  0.4285320000000 1.0
C      1  0.4776810000000  0.3944470000000  0.4584140000000 1.0
C      1  0.5225540000000  0.5180320000000  0.3882960000000 1.0
C      1  0.5228230000000  0.5887920000000  0.5706190000000 1.0
C      1  0.5222880000000  0.3947480000000  0.5411330000000 1.0
C      1  0.5223240000000  0.4817050000000  0.3877100000000 1.0
C      1  0.5251180000000  0.4126300000000  0.5727340000000 1.0
C      1  0.5236890000000  0.6069450000000  0.5391450000000 1.0
C      1  0.4753860000000  0.4806960000000  0.6120320000000 1.0
C      1  0.4768140000000  0.4126280000000  0.4269570000000 1.0
C      1  0.4781790000000  0.6063940000000  0.4596990000000 1.0
C      1  0.5224890000000  0.5353240000000  0.5098490000000 1.0
C      1  0.5072280000000  0.4807770000000  0.4724630000000 1.0
C      1  0.5157190000000  0.4763130000000  0.5348760000000 1.0
C      1  0.4932750000000  0.5334600000000  0.5028800000000 1.0
C      1  0.4847840000000  0.4816420000000  0.5379530000000 1.0
C      1  0.4780140000000  0.4738090000000  0.4743340000000 1.0
C      1  0.4852220000000  0.4708750000000  0.5067460000000 1.0
C      1  0.4834160000000  0.5112690000000  0.5257360000000 1.0
C      1  0.4860560000000  0.5187330000000  0.4777350000000 1.0
C      1  0.5170880000000  0.4720790000000  0.5031100000000 1.0
C      1  0.5144470000000  0.5099170000000  0.4726450000000 1.0
C      1  0.5152820000000  0.5087210000000  0.5285970000000 1.0
C      1  0.4751780000000  0.4862810000000  0.4459110000000 1.0
C      1  0.4712640000000  0.4559580000000  0.5465310000000 1.0
C      1  0.4781910000000  0.5547570000000  0.5153990000000 1.0
C      1  0.5292390000000  0.4817250000000  0.5614080000000 1.0
C      1  0.5223130000000  0.4592870000000  0.4602790000000 1.0
C      1  0.5253250000000  0.5537030000000  0.4848370000000 1.0
C      1  0.5249280000000  0.5122370000000  0.5562390000000 1.0
C      1  0.5241810000000  0.5353360000000  0.4609480000000 1.0
C      1  0.5238380000000  0.4456720000000  0.4883370000000 1.0
C      1  0.4763220000000  0.5161530000000  0.4498730000000 1.0
C      1  0.4766650000000  0.5372650000000  0.5412180000000 1.0
C      1  0.4755750000000  0.4451780000000  0.5175220000000 1.0
C      1  0.4581780000000  0.5812800000000  0.5652660000000 1.0
C      1  0.4585060000000  0.5162080000000  0.3971210000000 1.0
C      1  0.4580010000000  0.4021530000000  0.5354200000000 1.0
C      1  0.5419970000000  0.5809930000000  0.4345250000000 1.0
C      1  0.5425020000000  0.5182510000000  0.6024480000000 1.0
C      1  0.5423250000000  0.4028390000000  0.4622430000000 1.0
C      1  0.5424400000000  0.4187620000000  0.4342380000000 1.0
C      1  0.5427140000000  0.4859960000000  0.6039970000000 1.0
C      1  0.5423710000000  0.5975850000000  0.4617690000000 1.0
C      1  0.4577890000000  0.4169390000000  0.5641270000000 1.0
C      1  0.4581320000000  0.4843170000000  0.3963740000000 1.0
C      1  0.4580640000000  0.5975720000000  0.5374730000000 1.0
C      1  0.4347360000000  0.4356400000000  0.5717100000000 1.0
C      1  0.4354960000000  0.5933260000000  0.5176980000000 1.0
C      1  0.4344170000000  0.4691100000000  0.4071380000000 1.0
C      1  0.5650070000000  0.4380110000000  0.4280270000000 1.0
C      1  0.5660860000000  0.5958670000000  0.4803200000000 1.0
C      1  0.5657680000000  0.4700790000000  0.5915930000000 1.0
C      1  0.5651760000000  0.5633660000000  0.4267470000000 1.0
C      1  0.5653980000000  0.4059660000000  0.4817590000000 1.0
C      1  0.5655910000000  0.5329100000000  0.5892960000000 1.0
C      1  0.4351050000000  0.5628160000000  0.5723160000000 1.0
C      1  0.4349130000000  0.4062140000000  0.5161480000000 1.0
C      1  0.4353270000000  0.5317570000000  0.4084970000000 1.0
C      1  0.5002110000000  0.4239230000000  0.4016070000000 1.0
C      1  0.4994600000000  0.4535730000000  0.6148170000000 1.0
C      1  0.5007620000000  0.6225980000000  0.4829700000000 1.0
C      1  0.5010430000000  0.4237800000000  0.5976170000000 1.0
C      1  0.4997410000000  0.4534500000000  0.3853130000000 1.0
C      1  0.5002920000000  0.6232510000000  0.5166890000000 1.0
C      1  0.5006110000000  0.5773920000000  0.5969990000000 1.0
C      1  0.4999990000000  0.5463110000000  0.3863270000000 1.0
C      1  0.5013360000000  0.3767480000000  0.5174590000000 1.0
C      1  0.5005040000000  0.5752890000000  0.4030580000000 1.0
C      1  0.4991680000000  0.5465070000000  0.6154700000000 1.0
C      1  0.4998930000000  0.3773020000000  0.4814770000000 1.0
C      1  0.4852480000000  0.4255290000000  0.5717510000000 1.0
C      1  0.4848770000000  0.5989810000000  0.5253590000000 1.0
C      1  0.4842460000000  0.4724170000000  0.4027010000000 1.0
C      1  0.5156260000000  0.4285490000000  0.4269610000000 1.0
C      1  0.5162570000000  0.5980560000000  0.4752380000000 1.0
C      1  0.5152560000000  0.4750990000000  0.6003690000000 1.0
C      1  0.5158630000000  0.5697390000000  0.4281510000000 1.0
C      1  0.5156250000000  0.4019360000000  0.4746980000000 1.0
C      1  0.5155420000000  0.5294810000000  0.5971030000000 1.0
C      1  0.4848780000000  0.5709450000000  0.5722750000000 1.0
C      1  0.4849620000000  0.4011670000000  0.5230220000000 1.0
C      1  0.4846400000000  0.5273540000000  0.4036810000000 1.0
C      1  0.4999940000000  0.5164710000000  0.4262310000000 1.0
C      1  0.5006120000000  0.4257350000000  0.5213760000000 1.0
C      1  0.5006250000000  0.5571070000000  0.5518620000000 1.0
C      1  0.4998910000000  0.5186220000000  0.5750040000000 1.0
C      1  0.4998780000000  0.4265340000000  0.4764760000000 1.0
C      1  0.5005090000000  0.5556520000000  0.4488520000000 1.0
C      1  0.4983980000000  0.4861990000000  0.5773740000000 1.0
C      1  0.5007680000000  0.5732670000000  0.4772850000000 1.0
C      1  0.4994320000000  0.4415930000000  0.4472670000000 1.0
C      1  0.4997350000000  0.4830400000000  0.4251920000000 1.0
C      1  0.5010710000000  0.5748730000000  0.5242160000000 1.0
C      1  0.5021060000000  0.4398940000000  0.5506400000000 1.0
C      1  0.4391900000000  0.4707240000000  0.4987740000000 1.0
C      1  0.4415480000000  0.5141590000000  0.5241180000000 1.0
C      1  0.4386530000000  0.5153450000000  0.4744030000000 1.0
C      1  0.5589550000000  0.4720350000000  0.4997980000000 1.0
C      1  0.5618500000000  0.5144960000000  0.4739130000000 1.0
C      1  0.5613140000000  0.5157010000000  0.5247410000000 1.0
C      1  0.5627920000000  0.5298140000000  0.4994420000000 1.0
C      1  0.5594050000000  0.4858950000000  0.4742460000000 1.0
C      1  0.5603270000000  0.4864260000000  0.5242950000000 1.0
C      1  0.4410980000000  0.5293560000000  0.4993390000000 1.0
C      1  0.4401760000000  0.4857480000000  0.5239040000000 1.0
C      1  0.4377120000000  0.4855780000000  0.4739020000000 1.0
C      1  0.5882190000000  0.4854830000000  0.4195040000000 1.0
C      1  0.5897920000000  0.4371260000000  0.5552000000000 1.0
C      1  0.5895710000000  0.5794070000000  0.5260040000000 1.0
C      1  0.4107120000000  0.4836330000000  0.5820510000000 1.0
C      1  0.4109320000000  0.4377770000000  0.4442350000000 1.0
C      1  0.4122840000000  0.5769710000000  0.4723250000000 1.0
C      1  0.4112290000000  0.5144890000000  0.5813590000000 1.0
C      1  0.4119610000000  0.5627770000000  0.4453660000000 1.0
C      1  0.4113770000000  0.4230880000000  0.4710700000000 1.0
C      1  0.5885410000000  0.5159260000000  0.4183170000000 1.0
C      1  0.5891270000000  0.5635120000000  0.5521430000000 1.0
C      1  0.5892740000000  0.4222980000000  0.5281320000000 1.0
C      1  0.4001240000000  0.4659390000000  0.4418150000000 1.0
C      1  0.3992770000000  0.4675240000000  0.5590420000000 1.0
C      1  0.4030650000000  0.5632490000000  0.4976200000000 1.0
C      1  0.6012270000000  0.4651080000000  0.5576470000000 1.0
C      1  0.5974380000000  0.4704380000000  0.4440350000000 1.0
C      1  0.6003800000000  0.5674220000000  0.5004050000000 1.0
C      1  0.5991470000000  0.5350270000000  0.5538410000000 1.0
C      1  0.5993210000000  0.5322400000000  0.4413320000000 1.0
C      1  0.5986730000000  0.4353250000000  0.5023740000000 1.0
C      1  0.4011820000000  0.5346880000000  0.4427460000000 1.0
C      1  0.4018300000000  0.5302820000000  0.5571980000000 1.0
C      1  0.4013560000000  0.4358600000000  0.4965880000000 1.0
C      1  0.4645650000000  0.5600580000000  0.4448010000000 1.0
C      1  0.4637790000000  0.4231020000000  0.4737650000000 1.0
C      1  0.4637800000000  0.5168130000000  0.5795300000000 1.0
C      1  0.5367250000000  0.5611700000000  0.5534780000000 1.0
C      1  0.5367230000000  0.4227190000000  0.5252050000000 1.0
C      1  0.5359380000000  0.5177760000000  0.4203890000000 1.0
C      1  0.5381060000000  0.4411840000000  0.5550430000000 1.0
C      1  0.5372650000000  0.5783200000000  0.5225060000000 1.0
C      1  0.5358090000000  0.4832560000000  0.4200410000000 1.0
C      1  0.4632390000000  0.4413510000000  0.4434270000000 1.0
C      1  0.4646940000000  0.5776190000000  0.4745220000000 1.0
C      1  0.4623980000000  0.4817400000000  0.5784580000000 1.0
C      1  0.4508000000000  0.4419260000000  0.5008080000000 1.0
C      1  0.4484990000000  0.5292840000000  0.5492080000000 1.0
C      1  0.4485790000000  0.5279530000000  0.4488540000000 1.0
C      1  0.5520050000000  0.4427440000000  0.4992440000000 1.0
C      1  0.5519240000000  0.5303180000000  0.4502190000000 1.0
C      1  0.5497040000000  0.5283390000000  0.5506980000000 1.0
C      1  0.5543620000000  0.5590290000000  0.4967200000000 1.0
C      1  0.5480040000000  0.4700490000000  0.4501740000000 1.0
C      1  0.5565430000000  0.4729010000000  0.5499700000000 1.0
C      1  0.4524990000000  0.5581270000000  0.5010260000000 1.0
C      1  0.4439600000000  0.4702750000000  0.5484540000000 1.0
C      1  0.4461410000000  0.4733270000000  0.4472400000000 1.0
C      1  0.5639610000000  0.4063220000000  0.5161410000000 1.0
C      1  0.5641130000000  0.5615970000000  0.5717330000000 1.0
C      1  0.5633590000000  0.5339270000000  0.4101020000000 1.0
C      1  0.4363910000000  0.4070800000000  0.4825230000000 1.0
C      1  0.4371440000000  0.5608910000000  0.4256700000000 1.0
C      1  0.4365420000000  0.5328610000000  0.5891990000000 1.0
C      1  0.4370910000000  0.5931460000000  0.4839280000000 1.0
C      1  0.4359790000000  0.4397990000000  0.4243040000000 1.0
C      1  0.4361390000000  0.4650370000000  0.5892620000000 1.0
C      1  0.5645240000000  0.5956560000000  0.5142880000000 1.0
C      1  0.5643640000000  0.4401790000000  0.5749100000000 1.0
C      1  0.5634120000000  0.4673470000000  0.4112980000000 1.0
C      1  0.5789100000000  0.5159340000000  0.5664950000000 1.0
C      1  0.5784430000000  0.5517230000000  0.4520650000000 1.0
C      1  0.5774110000000  0.4345670000000  0.4804130000000 1.0
C      1  0.4220600000000  0.5156520000000  0.4312390000000 1.0
C      1  0.4230930000000  0.5496800000000  0.5468740000000 1.0
C      1  0.4215940000000  0.4344480000000  0.5194490000000 1.0
C      1  0.4209470000000  0.4850200000000  0.4301280000000 1.0
C      1  0.4202110000000  0.4485440000000  0.5472160000000 1.0
C      1  0.4238200000000  0.5644750000000  0.5199190000000 1.0
C      1  0.5802920000000  0.4848400000000  0.5681710000000 1.0
C      1  0.5766830000000  0.4505130000000  0.4541230000000 1.0
C      1  0.5795560000000  0.5680020000000  0.4780370000000 1.0
C      1  0.5304460000000  0.5030480000000  0.4993140000000 1.0
C      1  0.4700570000000  0.4990710000000  0.4970170000000 1.0
END
