TITL C-862130-1496-276 1.52701056793655e-07 125000 -143.372831673563 0 0 24 (C3i) n - 1
REM
REM in /home/nfs/bkarasulu/CARBON/AIRSS/Generating-Clusters/TERSOFF/Higher-Symm/FIRE-HFTN
REM
REM
REM
REM
REM
REM ./C.cell (b20cbc046b6831c77cfcea5457e17084)
REM AIRSS Version 0.9.1 bugfix July 2018 build 013d7b7c2542+ Fri, 06 Jul 2018 19:26:36 +0100
REM compiler GCC version 9.2.1 20190827 (Red Hat 9.2.1-1)
REM options -cpp -mtune=generic -march=x86-64 -g -O0 -fpre-include=/usr/include/finclude/math-vector-fortran.h
REM seed -411726424 1757148975 -923856503 -202610746 1423845442 1739110252 95797182 -2127942175 1145802981 -1358221558 2019074194 -1804571894 2050906151 537805667 427292268 -1730259375 -54544629 -1110121656 -1826520437 -173952482 -34699998 2124032829 1562674877 1099747252 -145463570 -1125813445 -1823418008 -1546984610 -201261471 -1078029633 1172853294 -83891476 1102831275
REM
CELL 1.54180   50.00000   50.00000   50.00000   90.00000   90.00000   90.00000
LATT -1
SFAC C  
C      1  0.4871220000000  0.4857350000000  0.5417000000000 1.0
C      1  0.5128780000000  0.5289810000000  0.5332040000000 1.0
C      1  0.4871220000000  0.5432460000000  0.4915030000000 1.0
C      1  0.5128780000000  0.5142650000000  0.4583000000000 1.0
C      1  0.4871220000000  0.4710190000000  0.4667960000000 1.0
C      1  0.5128780000000  0.4567540000000  0.5084970000000 1.0
C      1  0.4871220000000  0.4564940000000  0.4929520000000 1.0
C      1  0.5128780000000  0.4721430000000  0.5341530000000 1.0
C      1  0.4871220000000  0.5156490000000  0.5412010000000 1.0
C      1  0.5128780000000  0.5435060000000  0.5070480000000 1.0
C      1  0.4871220000000  0.5278570000000  0.4658470000000 1.0
C      1  0.5128780000000  0.4843510000000  0.4587990000000 1.0
C      1  0.4629480000000  0.5435910000000  0.5077610000000 1.0
C      1  0.5370520000000  0.5285160000000  0.4661300000000 1.0
C      1  0.4629480000000  0.4849260000000  0.4583690000000 1.0
C      1  0.5370520000000  0.4564090000000  0.4922390000000 1.0
C      1  0.4629480000000  0.4714840000000  0.5338700000000 1.0
C      1  0.5370520000000  0.5150740000000  0.5416310000000 1.0
C      1  0.5370520000000  0.4703690000000  0.4671010000000 1.0
C      1  0.4629480000000  0.4566930000000  0.5092120000000 1.0
C      1  0.5370520000000  0.4863240000000  0.5421110000000 1.0
C      1  0.4629480000000  0.5296310000000  0.5328990000000 1.0
C      1  0.5370520000000  0.5433070000000  0.4907880000000 1.0
C      1  0.4629480000000  0.5136760000000  0.4578890000000 1.0
END
