TITL C-862502-1143-28 -3.84107634192351e-05 125000 -984.113783257268 0 0 168 (C4) n - 1
REM
REM in /home/nfs/bkarasulu/CARBON/AIRSS/Generating-Clusters/TERSOFF/Higher-Symm/FIRE-HFTN
REM
REM
REM
REM
REM
REM ./C.cell (b20cbc046b6831c77cfcea5457e17084)
REM AIRSS Version 0.9.1 bugfix July 2018 build 013d7b7c2542+ Fri, 06 Jul 2018 19:26:36 +0100
REM compiler GCC version 9.2.1 20190827 (Red Hat 9.2.1-1)
REM options -cpp -mtune=generic -march=x86-64 -g -O0 -fpre-include=/usr/include/finclude/math-vector-fortran.h
REM seed -911947893 203822906 -1844922410 -363918064 -946208543 -168246613 696183588 823075255 -1372073973 -1323054299 1889988924 2075148334 -68360330 895135178 -1521353545 -80579125 -1956488926 930773558 -1668966841 1022895939 -1666768764 2071170199 1585870000 1008371087 961773533 -580766247 -927886612 -116664376 774742355 -1926855208 402549552 -67099787 -1795209608
REM
CELL 1.54180   50.00000   50.00000   50.00000   90.00000   90.00000   90.00000
LATT -1
SFAC C  
C      1  0.4705510000000  0.5903620000000  0.5375760000000 1.0
C      1  0.5903620000000  0.5294490000000  0.5375760000000 1.0
C      1  0.5294490000000  0.4096380000000  0.5375760000000 1.0
C      1  0.4096380000000  0.4705510000000  0.5375760000000 1.0
C      1  0.4705510000000  0.4096380000000  0.4624240000000 1.0
C      1  0.5903620000000  0.4705510000000  0.4624240000000 1.0
C      1  0.5294490000000  0.5903620000000  0.4624240000000 1.0
C      1  0.4096380000000  0.5294490000000  0.4624240000000 1.0
C      1  0.4477550000000  0.5742600000000  0.4720870000000 1.0
C      1  0.5742600000000  0.5522450000000  0.4720870000000 1.0
C      1  0.5522450000000  0.4257400000000  0.4720870000000 1.0
C      1  0.4257400000000  0.4477550000000  0.4720870000000 1.0
C      1  0.4477550000000  0.4257400000000  0.5279130000000 1.0
C      1  0.5742600000000  0.4477550000000  0.5279130000000 1.0
C      1  0.5522450000000  0.5742600000000  0.5279130000000 1.0
C      1  0.4257400000000  0.5522450000000  0.5279130000000 1.0
C      1  0.5824070000000  0.5053580000000  0.4572820000000 1.0
C      1  0.5053580000000  0.4175930000000  0.4572820000000 1.0
C      1  0.4175930000000  0.4946420000000  0.4572820000000 1.0
C      1  0.4946420000000  0.5824070000000  0.4572820000000 1.0
C      1  0.5824070000000  0.4946420000000  0.5427180000000 1.0
C      1  0.5053580000000  0.5824070000000  0.5427180000000 1.0
C      1  0.4175930000000  0.5053580000000  0.5427180000000 1.0
C      1  0.4946420000000  0.4175930000000  0.5427180000000 1.0
C      1  0.4948520000000  0.4747440000000  0.5327600000000 1.0
C      1  0.4747440000000  0.5051480000000  0.5327600000000 1.0
C      1  0.5051480000000  0.5252560000000  0.5327600000000 1.0
C      1  0.5252560000000  0.4948520000000  0.5327600000000 1.0
C      1  0.4948520000000  0.5252560000000  0.4672400000000 1.0
C      1  0.4747440000000  0.4948520000000  0.4672400000000 1.0
C      1  0.5051480000000  0.4747440000000  0.4672400000000 1.0
C      1  0.5252560000000  0.5051480000000  0.4672400000000 1.0
C      1  0.5472470000000  0.4349430000000  0.5251680000000 1.0
C      1  0.4349430000000  0.4527530000000  0.5251680000000 1.0
C      1  0.4527530000000  0.5650570000000  0.5251680000000 1.0
C      1  0.5650570000000  0.5472470000000  0.5251680000000 1.0
C      1  0.5472470000000  0.5650570000000  0.4748320000000 1.0
C      1  0.4349430000000  0.5472470000000  0.4748320000000 1.0
C      1  0.4527530000000  0.4349430000000  0.4748320000000 1.0
C      1  0.5650570000000  0.4527530000000  0.4748320000000 1.0
C      1  0.6015180000000  0.5207020000000  0.4114590000000 1.0
C      1  0.5207020000000  0.3984820000000  0.4114590000000 1.0
C      1  0.3984820000000  0.4792980000000  0.4114590000000 1.0
C      1  0.4792980000000  0.6015180000000  0.4114590000000 1.0
C      1  0.6015180000000  0.4792980000000  0.5885410000000 1.0
C      1  0.5207020000000  0.6015180000000  0.5885410000000 1.0
C      1  0.3984820000000  0.5207020000000  0.5885410000000 1.0
C      1  0.4792980000000  0.3984820000000  0.5885410000000 1.0
C      1  0.5775130000000  0.4765820000000  0.5167840000000 1.0
C      1  0.4765820000000  0.4224870000000  0.5167840000000 1.0
C      1  0.4224870000000  0.5234180000000  0.5167840000000 1.0
C      1  0.5234180000000  0.5775130000000  0.5167840000000 1.0
C      1  0.5775130000000  0.5234180000000  0.4832160000000 1.0
C      1  0.4765820000000  0.5775130000000  0.4832160000000 1.0
C      1  0.4224870000000  0.4765820000000  0.4832160000000 1.0
C      1  0.5234180000000  0.4224870000000  0.4832160000000 1.0
C      1  0.5704050000000  0.5723580000000  0.4296970000000 1.0
C      1  0.5723580000000  0.4295950000000  0.4296970000000 1.0
C      1  0.4295950000000  0.4276420000000  0.4296970000000 1.0
C      1  0.4276420000000  0.5704050000000  0.4296970000000 1.0
C      1  0.5704050000000  0.4276420000000  0.5703030000000 1.0
C      1  0.5723580000000  0.5704050000000  0.5703030000000 1.0
C      1  0.4295950000000  0.5723580000000  0.5703030000000 1.0
C      1  0.4276420000000  0.4295950000000  0.5703030000000 1.0
C      1  0.5271210000000  0.5982780000000  0.5605540000000 1.0
C      1  0.5982780000000  0.4728790000000  0.5605540000000 1.0
C      1  0.4728790000000  0.4017220000000  0.5605540000000 1.0
C      1  0.4017220000000  0.5271210000000  0.5605540000000 1.0
C      1  0.5271210000000  0.4017220000000  0.4394460000000 1.0
C      1  0.5982780000000  0.5271210000000  0.4394460000000 1.0
C      1  0.4728790000000  0.5982780000000  0.4394460000000 1.0
C      1  0.4017220000000  0.4728790000000  0.4394460000000 1.0
C      1  0.4022850000000  0.5234430000000  0.4938590000000 1.0
C      1  0.5234430000000  0.5977150000000  0.4938590000000 1.0
C      1  0.5977150000000  0.4765570000000  0.4938590000000 1.0
C      1  0.4765570000000  0.4022850000000  0.4938590000000 1.0
C      1  0.4022850000000  0.4765570000000  0.5061410000000 1.0
C      1  0.5234430000000  0.4022850000000  0.5061410000000 1.0
C      1  0.5977150000000  0.5234430000000  0.5061410000000 1.0
C      1  0.4765570000000  0.5977150000000  0.5061410000000 1.0
C      1  0.4495630000000  0.5125340000000  0.5077170000000 1.0
C      1  0.5125340000000  0.5504370000000  0.5077170000000 1.0
C      1  0.5504370000000  0.4874660000000  0.5077170000000 1.0
C      1  0.4874660000000  0.4495630000000  0.5077170000000 1.0
C      1  0.4495630000000  0.4874660000000  0.4922830000000 1.0
C      1  0.5125340000000  0.4495630000000  0.4922830000000 1.0
C      1  0.5504370000000  0.5125340000000  0.4922830000000 1.0
C      1  0.4874660000000  0.5504370000000  0.4922830000000 1.0
C      1  0.5220630000000  0.5288100000000  0.3807280000000 1.0
C      1  0.5288100000000  0.4779370000000  0.3807280000000 1.0
C      1  0.4779370000000  0.4711900000000  0.3807280000000 1.0
C      1  0.4711900000000  0.5220630000000  0.3807280000000 1.0
C      1  0.5220630000000  0.4711900000000  0.6192720000000 1.0
C      1  0.5288100000000  0.5220630000000  0.6192720000000 1.0
C      1  0.4779370000000  0.5288100000000  0.6192720000000 1.0
C      1  0.4711900000000  0.4779370000000  0.6192720000000 1.0
C      1  0.5157610000000  0.4238040000000  0.3994520000000 1.0
C      1  0.4238040000000  0.4842390000000  0.3994520000000 1.0
C      1  0.4842390000000  0.5761960000000  0.3994520000000 1.0
C      1  0.5761960000000  0.5157610000000  0.3994520000000 1.0
C      1  0.5157610000000  0.5761960000000  0.6005480000000 1.0
C      1  0.4238040000000  0.5157610000000  0.6005480000000 1.0
C      1  0.4842390000000  0.4238040000000  0.6005480000000 1.0
C      1  0.5761960000000  0.4842390000000  0.6005480000000 1.0
C      1  0.4472100000000  0.5183660000000  0.5834820000000 1.0
C      1  0.5183660000000  0.5527900000000  0.5834820000000 1.0
C      1  0.5527900000000  0.4816340000000  0.5834820000000 1.0
C      1  0.4816340000000  0.4472100000000  0.5834820000000 1.0
C      1  0.4472100000000  0.4816340000000  0.4165180000000 1.0
C      1  0.5183660000000  0.4472100000000  0.4165180000000 1.0
C      1  0.5527900000000  0.5183660000000  0.4165180000000 1.0
C      1  0.4816340000000  0.5527900000000  0.4165180000000 1.0
C      1  0.4654450000000  0.5312810000000  0.4082380000000 1.0
C      1  0.5312810000000  0.5345550000000  0.4082380000000 1.0
C      1  0.5345550000000  0.4687190000000  0.4082380000000 1.0
C      1  0.4687190000000  0.4654450000000  0.4082380000000 1.0
C      1  0.4654450000000  0.4687190000000  0.5917620000000 1.0
C      1  0.5312810000000  0.4654450000000  0.5917620000000 1.0
C      1  0.5345550000000  0.5312810000000  0.5917620000000 1.0
C      1  0.4687190000000  0.5345550000000  0.5917620000000 1.0
C      1  0.5412040000000  0.4237550000000  0.5651890000000 1.0
C      1  0.4237550000000  0.4587960000000  0.5651890000000 1.0
C      1  0.4587960000000  0.5762450000000  0.5651890000000 1.0
C      1  0.5762450000000  0.5412040000000  0.5651890000000 1.0
C      1  0.5412040000000  0.5762450000000  0.4348110000000 1.0
C      1  0.4237550000000  0.5412040000000  0.4348110000000 1.0
C      1  0.4587960000000  0.4237550000000  0.4348110000000 1.0
C      1  0.5762450000000  0.4587960000000  0.4348110000000 1.0
C      1  0.5045670000000  0.4648550000000  0.3710170000000 1.0
C      1  0.4648550000000  0.4954330000000  0.3710170000000 1.0
C      1  0.4954330000000  0.5351450000000  0.3710170000000 1.0
C      1  0.5351450000000  0.5045670000000  0.3710170000000 1.0
C      1  0.5045670000000  0.5351450000000  0.6289830000000 1.0
C      1  0.4648550000000  0.5045670000000  0.6289830000000 1.0
C      1  0.4954330000000  0.4648550000000  0.6289830000000 1.0
C      1  0.5351450000000  0.4954330000000  0.6289830000000 1.0
C      1  0.4446860000000  0.5878410000000  0.4467110000000 1.0
C      1  0.5878410000000  0.5553140000000  0.4467110000000 1.0
C      1  0.5553140000000  0.4121590000000  0.4467110000000 1.0
C      1  0.4121590000000  0.4446860000000  0.4467110000000 1.0
C      1  0.4446860000000  0.4121590000000  0.5532890000000 1.0
C      1  0.5878410000000  0.4446860000000  0.5532890000000 1.0
C      1  0.5553140000000  0.5878410000000  0.5532890000000 1.0
C      1  0.4121590000000  0.5553140000000  0.5532890000000 1.0
C      1  0.4716970000000  0.4533920000000  0.4834650000000 1.0
C      1  0.4533920000000  0.5283030000000  0.4834650000000 1.0
C      1  0.5283030000000  0.5466080000000  0.4834650000000 1.0
C      1  0.5466080000000  0.4716970000000  0.4834650000000 1.0
C      1  0.4716970000000  0.5466080000000  0.5165350000000 1.0
C      1  0.4533920000000  0.4716970000000  0.5165350000000 1.0
C      1  0.5283030000000  0.4533920000000  0.5165350000000 1.0
C      1  0.5466080000000  0.5283030000000  0.5165350000000 1.0
C      1  0.5520190000000  0.5030170000000  0.4431560000000 1.0
C      1  0.5030170000000  0.4479810000000  0.4431560000000 1.0
C      1  0.4479810000000  0.4969830000000  0.4431560000000 1.0
C      1  0.4969830000000  0.5520190000000  0.4431560000000 1.0
C      1  0.5520190000000  0.4969830000000  0.5568440000000 1.0
C      1  0.5030170000000  0.5520190000000  0.5568440000000 1.0
C      1  0.4479810000000  0.5030170000000  0.5568440000000 1.0
C      1  0.4969830000000  0.4479810000000  0.5568440000000 1.0
C      1  0.5224440000000  0.4444520000000  0.5739560000000 1.0
C      1  0.4444520000000  0.4775560000000  0.5739560000000 1.0
C      1  0.4775560000000  0.5555480000000  0.5739560000000 1.0
C      1  0.5555480000000  0.5224440000000  0.5739560000000 1.0
C      1  0.5224440000000  0.5555480000000  0.4260440000000 1.0
C      1  0.4444520000000  0.5224440000000  0.4260440000000 1.0
C      1  0.4775560000000  0.4444520000000  0.4260440000000 1.0
C      1  0.5555480000000  0.4775560000000  0.4260440000000 1.0
END
