TITL C-862502-1143-1083 -17027.0477184055 125000 -399.271478893678 0 0 79 (C1) n - 1
REM
REM in /home/nfs/bkarasulu/CARBON/AIRSS/Generating-Clusters/TERSOFF/Higher-Symm/FIRE-HFTN
REM
REM
REM
REM
REM
REM ./C.cell (b20cbc046b6831c77cfcea5457e17084)
REM AIRSS Version 0.9.1 bugfix July 2018 build 013d7b7c2542+ Fri, 06 Jul 2018 19:26:36 +0100
REM compiler GCC version 9.2.1 20190827 (Red Hat 9.2.1-1)
REM options -cpp -mtune=generic -march=x86-64 -g -O0 -fpre-include=/usr/include/finclude/math-vector-fortran.h
REM seed -1959063777 317365692 -957559168 1440465607 -1736432754 -1240417411 2124280754 1571305553 270093475 1757906321 977060286 -196018942 -780181986 1331823172 -2134800973 -2006238123 1478363089 -1654034474 1019204866 -1043574770 -539105259 -2138843821 -1005742772 417916941 1645309529 67579237 2089275604 -1232904015 -1836043432 1541001999 1968965061 1108668952 1068461056
REM
CELL 1.54180   50.00000   50.00000   50.00000   90.00000   90.00000   90.00000
LATT -1
SFAC C  
C      1  0.4804690000000  0.4601410000000  0.4326680000000 1.0
C      1  0.4815120000000  0.5740110000000  0.4889650000000 1.0
C      1  0.4786940000000  0.4613210000000  0.5682230000000 1.0
C      1  0.5307040000000  0.5711010000000  0.4914650000000 1.0
C      1  0.5260030000000  0.4673210000000  0.5690730000000 1.0
C      1  0.5291360000000  0.4569190000000  0.4397830000000 1.0
C      1  0.4529730000000  0.5445270000000  0.5600990000000 1.0
C      1  0.4578170000000  0.4156660000000  0.5042790000000 1.0
C      1  0.4564630000000  0.5382630000000  0.4271620000000 1.0
C      1  0.4824670000000  0.4704680000000  0.5955060000000 1.0
C      1  0.4841180000000  0.4324880000000  0.4247090000000 1.0
C      1  0.4892930000000  0.5914980000000  0.4670980000000 1.0
C      1  0.5565280000000  0.5180020000000  0.5404120000000 1.0
C      1  0.5585410000000  0.4557120000000  0.4989220000000 1.0
C      1  0.5579480000000  0.5229220000000  0.4631700000000 1.0
C      1  0.4598220000000  0.4681320000000  0.4514810000000 1.0
C      1  0.4582030000000  0.5552100000000  0.4858780000000 1.0
C      1  0.4577320000000  0.4724290000000  0.5511530000000 1.0
C      1  0.4456050000000  0.4416510000000  0.4900930000000 1.0
C      1  0.4440960000000  0.5379610000000  0.4570470000000 1.0
C      1  0.4425780000000  0.5186140000000  0.5448940000000 1.0
C      1  0.5047820000000  0.5402260000000  0.4251360000000 1.0
C      1  0.5003150000000  0.5429410000000  0.5699780000000 1.0
C      1  0.5062940000000  0.4133230000000  0.5015890000000 1.0
C      1  0.4513100000000  0.5447560000000  0.5125390000000 1.0
C      1  0.4516390000000  0.4556140000000  0.5294350000000 1.0
C      1  0.4522720000000  0.4948200000000  0.4479750000000 1.0
C      1  0.4954750000000  0.4686200000000  0.4831210000000 1.0
C      1  0.4972640000000  0.5265870000000  0.4836020000000 1.0
C      1  0.4945540000000  0.4972940000000  0.5338740000000 1.0
C      1  0.4301110000000  0.5075420000000  0.4653060000000 1.0
C      1  0.4293180000000  0.5232580000000  0.5167890000000 1.0
C      1  0.4301150000000  0.4640150000000  0.5078680000000 1.0
C      1  0.5121240000000  0.4180320000000  0.4727990000000 1.0
C      1  0.5094230000000  0.5631060000000  0.4435890000000 1.0
C      1  0.5063490000000  0.5165930000000  0.5828310000000 1.0
C      1  0.5296300000000  0.5288810000000  0.4570040000000 1.0
C      1  0.5270680000000  0.5205970000000  0.5465870000000 1.0
C      1  0.5294690000000  0.4479670000000  0.4965120000000 1.0
C      1  0.5491700000000  0.4857010000000  0.5392750000000 1.0
C      1  0.5508570000000  0.4739430000000  0.4714410000000 1.0
C      1  0.5504000000000  0.5340630000000  0.4931110000000 1.0
C      1  0.4624390000000  0.4970660000000  0.5355210000000 1.0
C      1  0.4640340000000  0.4643380000000  0.4800300000000 1.0
C      1  0.4662250000000  0.5232710000000  0.4797020000000 1.0
C      1  0.5130180000000  0.4948120000000  0.5624010000000 1.0
C      1  0.5163560000000  0.4474920000000  0.4661510000000 1.0
C      1  0.5161350000000  0.5538540000000  0.4717530000000 1.0
C      1  0.4705590000000  0.5482740000000  0.5349130000000 1.0
C      1  0.4730560000000  0.4368060000000  0.5214810000000 1.0
C      1  0.4730680000000  0.5125130000000  0.4370190000000 1.0
C      1  0.5069070000000  0.5461710000000  0.5342700000000 1.0
C      1  0.5090780000000  0.4420300000000  0.5236990000000 1.0
C      1  0.5090620000000  0.5075740000000  0.4405620000000 1.0
C      1  0.5619290000000  0.4590870000000  0.5294160000000 1.0
C      1  0.5621560000000  0.4951310000000  0.4517510000000 1.0
C      1  0.5615840000000  0.5413440000000  0.5212210000000 1.0
C      1  0.5187360000000  0.4891320000000  0.4708920000000 1.0
C      1  0.5195930000000  0.5270010000000  0.5057720000000 1.0
C      1  0.5190750000000  0.4772430000000  0.5247620000000 1.0
C      1  0.5361790000000  0.5625360000000  0.5204790000000 1.0
C      1  0.5365800000000  0.4464440000000  0.5470470000000 1.0
C      1  0.5374830000000  0.4861760000000  0.4335830000000 1.0
C      1  0.4960450000000  0.4407630000000  0.5563950000000 1.0
C      1  0.4973260000000  0.4815960000000  0.4221980000000 1.0
C      1  0.4963500000000  0.5749520000000  0.5152880000000 1.0
C      1  0.4804140000000  0.5443340000000  0.4106110000000 1.0
C      1  0.4743790000000  0.5520220000000  0.5784430000000 1.0
C      1  0.4817510000000  0.3985000000000  0.5039720000000 1.0
C      1  0.5880900000000  0.5023760000000  0.4839730000000 1.0
C      1  0.5327290000000  0.4969420000000  0.5014570000000 1.0
C      1  0.3938180000000  0.4928420000000  0.4976730000000 1.0
C      1  0.4245120000000  0.4978490000000  0.4964430000000 1.0
C      1  0.4907340000000  0.4969140000000  0.5010820000000 1.0
C      1  0.3746280000000  0.5108000000000  0.5097930000000 1.0
C      1  0.6375710000000  0.4923400000000  0.4748830000000 1.0
C      1  0.5666270000000  0.4966930000000  0.5029330000000 1.0
C      1  0.4579350000000  0.4943020000000  0.4994540000000 1.0
C      1  0.6161980000000  0.5036990000000  0.4907570000000 1.0
END
