TITL C-862131-2149-277 6.00381766537594 125000 -873.449579589316 0 0 152 (C1) n - 1
REM
REM in /home/nfs/bkarasulu/CARBON/AIRSS/Generating-Clusters/TERSOFF/Higher-Symm/FIRE-HFTN
REM
REM
REM
REM
REM
REM ./C.cell (b20cbc046b6831c77cfcea5457e17084)
REM AIRSS Version 0.9.1 bugfix July 2018 build 013d7b7c2542+ Fri, 06 Jul 2018 19:26:36 +0100
REM compiler GCC version 9.2.1 20190827 (Red Hat 9.2.1-1)
REM options -cpp -mtune=generic -march=x86-64 -g -O0 -fpre-include=/usr/include/finclude/math-vector-fortran.h
REM seed -668584200 -129146896 -199961509 -709144197 -267881629 1764191661 -2084427418 -1590948447 947552345 -1004311184 1798959965 961703852 -288500263 2011681033 -1148493149 1098237299 1542229095 304335042 -1220320250 487224138 1946232132 1875214416 -702508048 2034343544 -1899484285 1546790842 289830179 22539075 1593991941 1747408270 -496630008 1835839942 -761969446
REM
CELL 1.54180   50.00000   50.00000   50.00000   90.00000   90.00000   90.00000
LATT -1
SFAC C  
C      1  0.5557280000000  0.5514220000000  0.4117610000000 1.0
C      1  0.5452110000000  0.5491380000000  0.5915460000000 1.0
C      1  0.3965620000000  0.5517810000000  0.4953020000000 1.0
C      1  0.4442410000000  0.4480970000000  0.4134530000000 1.0
C      1  0.4496600000000  0.4445330000000  0.5977100000000 1.0
C      1  0.6037000000000  0.4485600000000  0.4947890000000 1.0
C      1  0.5000760000000  0.5335460000000  0.6102730000000 1.0
C      1  0.4017450000000  0.5375200000000  0.4445340000000 1.0
C      1  0.5971460000000  0.5379810000000  0.4421730000000 1.0
C      1  0.4987900000000  0.4595350000000  0.6105690000000 1.0
C      1  0.5978190000000  0.4624510000000  0.4440190000000 1.0
C      1  0.4044090000000  0.4620530000000  0.4447700000000 1.0
C      1  0.5788110000000  0.5315840000000  0.5659650000000 1.0
C      1  0.4033380000000  0.5330180000000  0.5365890000000 1.0
C      1  0.5175000000000  0.5320330000000  0.3965050000000 1.0
C      1  0.4243800000000  0.4694170000000  0.5667050000000 1.0
C      1  0.5974390000000  0.4665510000000  0.5349430000000 1.0
C      1  0.4820610000000  0.4662250000000  0.3971620000000 1.0
C      1  0.5271880000000  0.5716570000000  0.5433420000000 1.0
C      1  0.4480580000000  0.5733560000000  0.5006730000000 1.0
C      1  0.5242670000000  0.5717720000000  0.4533670000000 1.0
C      1  0.4714320000000  0.4242420000000  0.5437000000000 1.0
C      1  0.5517540000000  0.4278960000000  0.5030050000000 1.0
C      1  0.4774300000000  0.4284560000000  0.4540770000000 1.0
C      1  0.5591530000000  0.4339710000000  0.5643650000000 1.0
C      1  0.4187430000000  0.4371450000000  0.5203520000000 1.0
C      1  0.5280100000000  0.4348670000000  0.4157550000000 1.0
C      1  0.4406780000000  0.5644700000000  0.5675440000000 1.0
C      1  0.5845610000000  0.5637160000000  0.5176610000000 1.0
C      1  0.4727290000000  0.5636170000000  0.4161450000000 1.0
C      1  0.3912000000000  0.5020370000000  0.4811950000000 1.0
C      1  0.5724800000000  0.5021920000000  0.4136690000000 1.0
C      1  0.5362720000000  0.4992780000000  0.6026430000000 1.0
C      1  0.6105210000000  0.4976880000000  0.4791160000000 1.0
C      1  0.4273580000000  0.4971350000000  0.4148400000000 1.0
C      1  0.4611270000000  0.4953890000000  0.6088140000000 1.0
C      1  0.3846780000000  0.5235860000000  0.5001780000000 1.0
C      1  0.5585380000000  0.5234610000000  0.3987500000000 1.0
C      1  0.5555740000000  0.5214370000000  0.5994380000000 1.0
C      1  0.6163880000000  0.4762680000000  0.4987560000000 1.0
C      1  0.4412110000000  0.4755530000000  0.3999600000000 1.0
C      1  0.4403130000000  0.4739790000000  0.6052810000000 1.0
C      1  0.4244420000000  0.4820190000000  0.5196920000000 1.0
C      1  0.5238390000000  0.4798280000000  0.4217060000000 1.0
C      1  0.5552380000000  0.4795950000000  0.5583920000000 1.0
C      1  0.5764180000000  0.5193130000000  0.5160390000000 1.0
C      1  0.4762600000000  0.5193450000000  0.4241320000000 1.0
C      1  0.4483070000000  0.5236330000000  0.5589050000000 1.0
C      1  0.4764490000000  0.4666360000000  0.5741080000000 1.0
C      1  0.4437130000000  0.4728240000000  0.4548580000000 1.0
C      1  0.5686950000000  0.4723490000000  0.4725950000000 1.0
C      1  0.5069380000000  0.5257340000000  0.5696030000000 1.0
C      1  0.5581070000000  0.5283380000000  0.4542280000000 1.0
C      1  0.4325050000000  0.5291300000000  0.4718400000000 1.0
C      1  0.5145090000000  0.4939300000000  0.5432390000000 1.0
C      1  0.4539150000000  0.4967400000000  0.4878410000000 1.0
C      1  0.5344290000000  0.4950640000000  0.4640160000000 1.0
C      1  0.4786260000000  0.5082890000000  0.5268250000000 1.0
C      1  0.5352380000000  0.5024940000000  0.5053380000000 1.0
C      1  0.4883970000000  0.5031910000000  0.4647620000000 1.0
C      1  0.5809060000000  0.5107650000000  0.4411890000000 1.0
C      1  0.5076980000000  0.5065190000000  0.5955340000000 1.0
C      1  0.4100040000000  0.5107720000000  0.4595330000000 1.0
C      1  0.4199590000000  0.4891760000000  0.4425660000000 1.0
C      1  0.4873180000000  0.4848170000000  0.5983380000000 1.0
C      1  0.5909010000000  0.4892890000000  0.4583980000000 1.0
C      1  0.4846450000000  0.5280710000000  0.4797890000000 1.0
C      1  0.5236670000000  0.5276410000000  0.4953120000000 1.0
C      1  0.4906870000000  0.5338570000000  0.5209280000000 1.0
C      1  0.5225040000000  0.4718230000000  0.4772680000000 1.0
C      1  0.4716960000000  0.4735550000000  0.4916030000000 1.0
C      1  0.5029590000000  0.4669870000000  0.5416660000000 1.0
C      1  0.4086160000000  0.4485160000000  0.4916180000000 1.0
C      1  0.5569150000000  0.4475900000000  0.4222940000000 1.0
C      1  0.5391250000000  0.4454480000000  0.5868480000000 1.0
C      1  0.5940380000000  0.5520440000000  0.4888940000000 1.0
C      1  0.4432810000000  0.5518160000000  0.4228580000000 1.0
C      1  0.4613140000000  0.5506580000000  0.5883040000000 1.0
C      1  0.4049320000000  0.4560890000000  0.5462700000000 1.0
C      1  0.5110690000000  0.4545830000000  0.3907240000000 1.0
C      1  0.5886640000000  0.4546210000000  0.5628510000000 1.0
C      1  0.5979980000000  0.5425130000000  0.5435650000000 1.0
C      1  0.4883600000000  0.5425960000000  0.3913560000000 1.0
C      1  0.4116840000000  0.5432290000000  0.5647400000000 1.0
C      1  0.4499080000000  0.4435410000000  0.4447060000000 1.0
C      1  0.5744290000000  0.4432460000000  0.4830600000000 1.0
C      1  0.4768570000000  0.4361790000000  0.5755980000000 1.0
C      1  0.5518320000000  0.5569630000000  0.4433450000000 1.0
C      1  0.4255770000000  0.5577760000000  0.4823410000000 1.0
C      1  0.5210180000000  0.5545500000000  0.5711810000000 1.0
C      1  0.4771110000000  0.4242440000000  0.4836650000000 1.0
C      1  0.5268330000000  0.4230980000000  0.4873890000000 1.0
C      1  0.4979650000000  0.4190080000000  0.5293560000000 1.0
C      1  0.5239070000000  0.5764930000000  0.4830390000000 1.0
C      1  0.4741560000000  0.5768350000000  0.4863070000000 1.0
C      1  0.5020490000000  0.5810950000000  0.5289600000000 1.0
C      1  0.5765270000000  0.4401360000000  0.4468440000000 1.0
C      1  0.5087160000000  0.4371920000000  0.5923340000000 1.0
C      1  0.4181640000000  0.4403220000000  0.4621000000000 1.0
C      1  0.4227060000000  0.5607700000000  0.4461020000000 1.0
C      1  0.4918140000000  0.5575130000000  0.5924620000000 1.0
C      1  0.5843120000000  0.5606850000000  0.4594350000000 1.0
C      1  0.6106660000000  0.5261030000000  0.4927180000000 1.0
C      1  0.4499060000000  0.5243940000000  0.6008570000000 1.0
C      1  0.4384210000000  0.5255490000000  0.4070330000000 1.0
C      1  0.3911930000000  0.4737470000000  0.4954480000000 1.0
C      1  0.5499940000000  0.4712520000000  0.5991790000000 1.0
C      1  0.5620310000000  0.4732980000000  0.4055940000000 1.0
C      1  0.5638700000000  0.4967980000000  0.5062560000000 1.0
C      1  0.4638890000000  0.5027090000000  0.5506750000000 1.0
C      1  0.4745250000000  0.4969890000000  0.4400120000000 1.0
C      1  0.4318370000000  0.5031830000000  0.5047550000000 1.0
C      1  0.5382670000000  0.5006250000000  0.5575360000000 1.0
C      1  0.5316960000000  0.5011270000000  0.4363420000000 1.0
C      1  0.5332510000000  0.4791520000000  0.3910180000000 1.0
C      1  0.5767670000000  0.4785640000000  0.5820720000000 1.0
C      1  0.3929710000000  0.4800190000000  0.5271510000000 1.0
C      1  0.4664350000000  0.5182320000000  0.3936450000000 1.0
C      1  0.4249880000000  0.5184760000000  0.5825720000000 1.0
C      1  0.6075750000000  0.5185070000000  0.5234490000000 1.0
C      1  0.5080560000000  0.4362790000000  0.4427680000000 1.0
C      1  0.5450770000000  0.4364030000000  0.5345660000000 1.0
C      1  0.4507110000000  0.4385610000000  0.5237990000000 1.0
C      1  0.4941680000000  0.5630110000000  0.4425960000000 1.0
C      1  0.4528440000000  0.5676420000000  0.5337520000000 1.0
C      1  0.5508170000000  0.5624400000000  0.5225250000000 1.0
C      1  0.4652780000000  0.4877030000000  0.3829350000000 1.0
C      1  0.6179690000000  0.4884150000000  0.5280950000000 1.0
C      1  0.4167670000000  0.4881090000000  0.5887470000000 1.0
C      1  0.5343760000000  0.5108640000000  0.3814910000000 1.0
C      1  0.3827200000000  0.5114030000000  0.5298720000000 1.0
C      1  0.5834970000000  0.5104220000000  0.5880430000000 1.0
C      1  0.4804090000000  0.5553770000000  0.4680700000000 1.0
C      1  0.5359760000000  0.5549540000000  0.4978280000000 1.0
C      1  0.4822730000000  0.5600760000000  0.5322770000000 1.0
C      1  0.5231210000000  0.4436140000000  0.4674690000000 1.0
C      1  0.4633100000000  0.4453460000000  0.4974910000000 1.0
C      1  0.5158520000000  0.4401030000000  0.5377810000000 1.0
C      1  0.4766780000000  0.4708460000000  0.4273860000000 1.0
C      1  0.5741260000000  0.4706930000000  0.5147770000000 1.0
C      1  0.4552540000000  0.4763650000000  0.5574340000000 1.0
C      1  0.5244890000000  0.5274480000000  0.4263580000000 1.0
C      1  0.4259460000000  0.5296370000000  0.5155490000000 1.0
C      1  0.5502050000000  0.5267660000000  0.5563560000000 1.0
C      1  0.5555870000000  0.4634150000000  0.5346920000000 1.0
C      1  0.4465290000000  0.4666750000000  0.5312020000000 1.0
C      1  0.5030570000000  0.4635880000000  0.4334070000000 1.0
C      1  0.4448010000000  0.5391990000000  0.5343430000000 1.0
C      1  0.5567510000000  0.5350130000000  0.5304060000000 1.0
C      1  0.4984200000000  0.5355010000000  0.4337330000000 1.0
C      1  0.5006350000000  0.4143780000000  0.4995060000000 1.0
C      1  0.5000400000000  0.5870590000000  0.4987250000000 1.0
END
