TITL C-862130-1496-170 -7.09279779682325e-05 125000 -574.700198043548 0 0 100 (C4h) n - 1
REM
REM in /home/nfs/bkarasulu/CARBON/AIRSS/Generating-Clusters/TERSOFF/Higher-Symm/FIRE-HFTN
REM
REM
REM
REM
REM
REM ./C.cell (b20cbc046b6831c77cfcea5457e17084)
REM AIRSS Version 0.9.1 bugfix July 2018 build 013d7b7c2542+ Fri, 06 Jul 2018 19:26:36 +0100
REM compiler GCC version 9.2.1 20190827 (Red Hat 9.2.1-1)
REM options -cpp -mtune=generic -march=x86-64 -g -O0 -fpre-include=/usr/include/finclude/math-vector-fortran.h
REM seed 336055653 -703005960 485726099 -538528973 1579283798 2094566967 -798454147 -24991806 -1607325982 -1538764912 -545781349 -144607840 2039638680 -1887285022 1810713236 -590600787 -2114277648 93568554 246537239 -1039085732 1158013247 -867006135 1124777570 1718706026 -498343036 1320629171 -587743004 -442267577 19100213 994292502 1861822413 -1482631752 29929918
REM
CELL 1.54180   50.00000   50.00000   50.00000   90.00000   90.00000   90.00000
LATT -1
SFAC C  
C      1  0.5414430000000  0.5290120000000  0.5667430000000 1.0
C      1  0.5414430000000  0.4332570000000  0.5290120000000 1.0
C      1  0.5414430000000  0.4709880000000  0.4332570000000 1.0
C      1  0.5414430000000  0.5667430000000  0.4709880000000 1.0
C      1  0.4579210000000  0.5290120000000  0.5667430000000 1.0
C      1  0.4579210000000  0.4332570000000  0.5290120000000 1.0
C      1  0.4579210000000  0.4709880000000  0.4332570000000 1.0
C      1  0.4579210000000  0.5667430000000  0.4709880000000 1.0
C      1  0.5478170000000  0.5049340000000  0.4782480000000 1.0
C      1  0.5478170000000  0.5217520000000  0.5049340000000 1.0
C      1  0.5478170000000  0.4950660000000  0.5217520000000 1.0
C      1  0.5478170000000  0.4782480000000  0.4950660000000 1.0
C      1  0.4515460000000  0.5049340000000  0.4782480000000 1.0
C      1  0.4515460000000  0.5217520000000  0.5049340000000 1.0
C      1  0.4515460000000  0.4950660000000  0.5217520000000 1.0
C      1  0.4515460000000  0.4782480000000  0.4950660000000 1.0
C      1  0.5158130000000  0.4135730000000  0.5255210000000 1.0
C      1  0.5158130000000  0.4744790000000  0.4135730000000 1.0
C      1  0.5158130000000  0.5864270000000  0.4744790000000 1.0
C      1  0.5158130000000  0.5255210000000  0.5864270000000 1.0
C      1  0.4835500000000  0.4135730000000  0.5255210000000 1.0
C      1  0.4835500000000  0.4744790000000  0.4135730000000 1.0
C      1  0.4835500000000  0.5864270000000  0.4744790000000 1.0
C      1  0.4835500000000  0.5255210000000  0.5864270000000 1.0
C      1  0.4852110000000  0.4395320000000  0.4925490000000 1.0
C      1  0.4852110000000  0.5074510000000  0.4395320000000 1.0
C      1  0.4852110000000  0.5604680000000  0.5074510000000 1.0
C      1  0.4852110000000  0.4925490000000  0.5604680000000 1.0
C      1  0.5141520000000  0.4395320000000  0.4925490000000 1.0
C      1  0.5141520000000  0.5074510000000  0.4395320000000 1.0
C      1  0.5141520000000  0.5604680000000  0.5074510000000 1.0
C      1  0.5141520000000  0.4925490000000  0.5604680000000 1.0
C      1  0.4757380000000  0.4635690000000  0.5060490000000 1.0
C      1  0.4757380000000  0.4939510000000  0.4635690000000 1.0
C      1  0.4757380000000  0.5364310000000  0.4939510000000 1.0
C      1  0.4757380000000  0.5060490000000  0.5364310000000 1.0
C      1  0.5236250000000  0.4635690000000  0.5060490000000 1.0
C      1  0.5236250000000  0.4939510000000  0.4635690000000 1.0
C      1  0.5236250000000  0.5364310000000  0.4939510000000 1.0
C      1  0.5236250000000  0.5060490000000  0.5364310000000 1.0
C      1  0.4852640000000  0.4200220000000  0.5781380000000 1.0
C      1  0.4852640000000  0.4218620000000  0.4200220000000 1.0
C      1  0.4852640000000  0.5799780000000  0.4218620000000 1.0
C      1  0.4852640000000  0.5781380000000  0.5799780000000 1.0
C      1  0.5140990000000  0.4200220000000  0.5781380000000 1.0
C      1  0.5140990000000  0.4218620000000  0.4200220000000 1.0
C      1  0.5140990000000  0.5799780000000  0.4218620000000 1.0
C      1  0.5140990000000  0.5781380000000  0.5799780000000 1.0
C      1  0.5442890000000  0.4473590000000  0.4525870000000 1.0
C      1  0.5442890000000  0.5474130000000  0.4473590000000 1.0
C      1  0.5442890000000  0.5526410000000  0.5474130000000 1.0
C      1  0.5442890000000  0.4525870000000  0.5526410000000 1.0
C      1  0.4550740000000  0.4473590000000  0.4525870000000 1.0
C      1  0.4550740000000  0.5474130000000  0.4473590000000 1.0
C      1  0.4550740000000  0.5526410000000  0.5474130000000 1.0
C      1  0.4550740000000  0.4525870000000  0.5526410000000 1.0
C      1  0.5149120000000  0.5330490000000  0.4062670000000 1.0
C      1  0.5149120000000  0.5937330000000  0.5330490000000 1.0
C      1  0.5149120000000  0.4669510000000  0.5937330000000 1.0
C      1  0.5149120000000  0.4062670000000  0.4669510000000 1.0
C      1  0.4844510000000  0.5330490000000  0.4062670000000 1.0
C      1  0.4844510000000  0.5937330000000  0.5330490000000 1.0
C      1  0.4844510000000  0.4669510000000  0.5937330000000 1.0
C      1  0.4844510000000  0.4062670000000  0.4669510000000 1.0
C      1  0.5285040000000  0.5777920000000  0.5545210000000 1.0
C      1  0.5285040000000  0.4454790000000  0.5777920000000 1.0
C      1  0.5285040000000  0.4222080000000  0.4454790000000 1.0
C      1  0.5285040000000  0.5545210000000  0.4222080000000 1.0
C      1  0.4708590000000  0.5777920000000  0.5545210000000 1.0
C      1  0.4708590000000  0.4454790000000  0.5777920000000 1.0
C      1  0.4708590000000  0.4222080000000  0.4454790000000 1.0
C      1  0.4708590000000  0.5545210000000  0.4222080000000 1.0
C      1  0.4391390000000  0.4950270000000  0.4340260000000 1.0
C      1  0.4391390000000  0.5659740000000  0.4950270000000 1.0
C      1  0.4391390000000  0.5049730000000  0.5659740000000 1.0
C      1  0.4391390000000  0.4340260000000  0.5049730000000 1.0
C      1  0.5602240000000  0.4950270000000  0.4340260000000 1.0
C      1  0.5602240000000  0.5659740000000  0.4950270000000 1.0
C      1  0.5602240000000  0.5049730000000  0.5659740000000 1.0
C      1  0.5602240000000  0.4340260000000  0.5049730000000 1.0
C      1  0.5266130000000  0.5889610000000  0.5052450000000 1.0
C      1  0.5266130000000  0.4947550000000  0.5889610000000 1.0
C      1  0.5266130000000  0.4110390000000  0.4947550000000 1.0
C      1  0.5266130000000  0.5052450000000  0.4110390000000 1.0
C      1  0.4727500000000  0.5889610000000  0.5052450000000 1.0
C      1  0.4727500000000  0.4947550000000  0.5889610000000 1.0
C      1  0.4727500000000  0.4110390000000  0.4947550000000 1.0
C      1  0.4727500000000  0.5052450000000  0.4110390000000 1.0
C      1  0.4425760000000  0.5473660000000  0.5186270000000 1.0
C      1  0.4425760000000  0.4813730000000  0.5473660000000 1.0
C      1  0.4425760000000  0.4526340000000  0.4813730000000 1.0
C      1  0.4425760000000  0.5186270000000  0.4526340000000 1.0
C      1  0.5567870000000  0.5473660000000  0.5186270000000 1.0
C      1  0.5567870000000  0.4813730000000  0.5473660000000 1.0
C      1  0.5567870000000  0.4526340000000  0.4813730000000 1.0
C      1  0.5567870000000  0.5186270000000  0.4526340000000 1.0
C      1  0.4996820000000  0.5233100000000  0.4816890000000 1.0
C      1  0.4996820000000  0.5183110000000  0.5233100000000 1.0
C      1  0.4996820000000  0.4766900000000  0.5183110000000 1.0
C      1  0.4996820000000  0.4816890000000  0.4766900000000 1.0
END
