TITL C-862505-1648-682 0.00943195532580739 125000 -276.348791726561 0 0 49 (C1) n - 1
REM
REM in /home/nfs/bkarasulu/CARBON/AIRSS/Generating-Clusters/TERSOFF/Higher-Symm/FIRE-HFTN
REM
REM
REM
REM
REM
REM ./C.cell (b20cbc046b6831c77cfcea5457e17084)
REM AIRSS Version 0.9.1 bugfix July 2018 build 013d7b7c2542+ Fri, 06 Jul 2018 19:26:36 +0100
REM compiler GCC version 9.2.1 20190827 (Red Hat 9.2.1-1)
REM options -cpp -mtune=generic -march=x86-64 -g -O0 -fpre-include=/usr/include/finclude/math-vector-fortran.h
REM seed -2055086168 644235412 -1809436467 -1646705122 1773588463 -643204290 1267897120 -1436013068 1173717237 782542463 -208988482 805547541 1273378035 498068650 1499334164 -801879482 -926506082 154273459 1753391841 579069430 1118107002 1431759173 894851104 1618753002 -198359382 1616396157 -1889191910 -1336327792 794149933 952319990 167639320 -314487750 -1112175445
REM
CELL 1.54180   50.00000   50.00000   50.00000   90.00000   90.00000   90.00000
LATT -1
SFAC C  
C      1  0.4446490000000  0.4735260000000  0.4679460000000 1.0
C      1  0.5076930000000  0.4973820000000  0.4302850000000 1.0
C      1  0.5025700000000  0.5585920000000  0.4699940000000 1.0
C      1  0.4592620000000  0.4478460000000  0.4713750000000 1.0
C      1  0.5194310000000  0.4271680000000  0.5128610000000 1.0
C      1  0.4820160000000  0.6005720000000  0.4893400000000 1.0
C      1  0.5056950000000  0.4809300000000  0.5297010000000 1.0
C      1  0.4474550000000  0.4918350000000  0.4952440000000 1.0
C      1  0.4425530000000  0.5263840000000  0.5492250000000 1.0
C      1  0.5471570000000  0.4612090000000  0.4649410000000 1.0
C      1  0.4630070000000  0.5304070000000  0.5698250000000 1.0
C      1  0.5484710000000  0.4901830000000  0.4619720000000 1.0
C      1  0.4539370000000  0.5305280000000  0.4627090000000 1.0
C      1  0.4294030000000  0.5008560000000  0.5433720000000 1.0
C      1  0.5100380000000  0.5113570000000  0.4883570000000 1.0
C      1  0.5207420000000  0.5372110000000  0.4776350000000 1.0
C      1  0.4863310000000  0.5173040000000  0.4272970000000 1.0
C      1  0.4270830000000  0.4889990000000  0.5167340000000 1.0
C      1  0.5072390000000  0.4407450000000  0.4900600000000 1.0
C      1  0.4520660000000  0.5211770000000  0.4899490000000 1.0
C      1  0.4480490000000  0.4872600000000  0.4424050000000 1.0
C      1  0.5138090000000  0.4298210000000  0.5624660000000 1.0
C      1  0.5520470000000  0.5281360000000  0.5241930000000 1.0
C      1  0.4980300000000  0.5646890000000  0.4419590000000 1.0
C      1  0.5226790000000  0.4457880000000  0.4659540000000 1.0
C      1  0.5487820000000  0.5441080000000  0.4807630000000 1.0
C      1  0.4882630000000  0.5722850000000  0.4911550000000 1.0
C      1  0.4894700000000  0.5419420000000  0.5650490000000 1.0
C      1  0.5114470000000  0.5065690000000  0.5173210000000 1.0
C      1  0.5645690000000  0.5056100000000  0.5091530000000 1.0
C      1  0.5159850000000  0.5251310000000  0.5643370000000 1.0
C      1  0.4723620000000  0.4765700000000  0.5045440000000 1.0
C      1  0.5002680000000  0.4532790000000  0.5727650000000 1.0
C      1  0.5349200000000  0.5033200000000  0.4393670000000 1.0
C      1  0.4569640000000  0.5395090000000  0.5119550000000 1.0
C      1  0.5659790000000  0.5058100000000  0.4797780000000 1.0
C      1  0.5646430000000  0.4541350000000  0.5127380000000 1.0
C      1  0.4804110000000  0.5564780000000  0.5143240000000 1.0
C      1  0.4978130000000  0.4918180000000  0.4707260000000 1.0
C      1  0.4995660000000  0.5512450000000  0.5358630000000 1.0
C      1  0.5237550000000  0.5275360000000  0.5334730000000 1.0
C      1  0.5426570000000  0.4333830000000  0.5546210000000 1.0
C      1  0.4937330000000  0.5447700000000  0.4215710000000 1.0
C      1  0.5708360000000  0.4807030000000  0.5228990000000 1.0
C      1  0.4605520000000  0.5132480000000  0.4407010000000 1.0
C      1  0.4965240000000  0.4773840000000  0.5572120000000 1.0
C      1  0.4798180000000  0.4507610000000  0.4922230000000 1.0
C      1  0.5031430000000  0.4189070000000  0.5365240000000 1.0
C      1  0.5461280000000  0.4355930000000  0.5251370000000 1.0
END
