TITL C-862130-1496-80 1.00578865999466e-05 125000 -259.082333579388 0 0 50 (C2v) n - 1
REM
REM in /home/nfs/bkarasulu/CARBON/AIRSS/Generating-Clusters/TERSOFF/Higher-Symm/FIRE-HFTN
REM
REM
REM
REM
REM
REM ./C.cell (b20cbc046b6831c77cfcea5457e17084)
REM AIRSS Version 0.9.1 bugfix July 2018 build 013d7b7c2542+ Fri, 06 Jul 2018 19:26:36 +0100
REM compiler GCC version 9.2.1 20190827 (Red Hat 9.2.1-1)
REM options -cpp -mtune=generic -march=x86-64 -g -O0 -fpre-include=/usr/include/finclude/math-vector-fortran.h
REM seed -763844237 -1408851704 -1708247347 1979992387 862693307 -1705875528 -2101452431 1785832627 -1756465213 -652905763 -1062390439 916761651 -1139000626 1804908988 -603797326 907584901 1853268296 1086143267 518532107 -576723757 -1126466047 -993146073 1380277430 1397428342 2069911624 -1708857722 1150318970 -561444886 -248342239 -888606020 -1287054720 271769971 -973805926
REM
CELL 1.54180   50.00000   50.00000   50.00000   90.00000   90.00000   90.00000
LATT -1
SFAC C  
C      1  0.5215240000000  0.5215400000000  0.4385140000000 1.0
C      1  0.5275850000000  0.4901230000000  0.4414210000000 1.0
C      1  0.5046370000000  0.4688600000000  0.4410840000000 1.0
C      1  0.4748620000000  0.4778310000000  0.4410960000000 1.0
C      1  0.4678540000000  0.5081280000000  0.4410840000000 1.0
C      1  0.4905700000000  0.5296380000000  0.4414210000000 1.0
C      1  0.5215240000000  0.5215400000000  0.5586160000000 1.0
C      1  0.5275850000000  0.4901230000000  0.5557090000000 1.0
C      1  0.5046370000000  0.4688600000000  0.5560470000000 1.0
C      1  0.4748620000000  0.4778310000000  0.5560340000000 1.0
C      1  0.4678540000000  0.5081280000000  0.5560470000000 1.0
C      1  0.4905700000000  0.5296380000000  0.5557090000000 1.0
C      1  0.5379700000000  0.5369440000000  0.4666200000000 1.0
C      1  0.5509820000000  0.4826650000000  0.4669360000000 1.0
C      1  0.5100950000000  0.4441960000000  0.4667350000000 1.0
C      1  0.4563840000000  0.4605220000000  0.4666960000000 1.0
C      1  0.4436000000000  0.5151850000000  0.4667350000000 1.0
C      1  0.4846560000000  0.5534730000000  0.4669360000000 1.0
C      1  0.5379700000000  0.5369440000000  0.5305110000000 1.0
C      1  0.5509820000000  0.4826650000000  0.5301950000000 1.0
C      1  0.5100950000000  0.4441960000000  0.5303960000000 1.0
C      1  0.4563840000000  0.4605220000000  0.5304350000000 1.0
C      1  0.4436000000000  0.5151850000000  0.5303960000000 1.0
C      1  0.4846560000000  0.5534730000000  0.5301950000000 1.0
C      1  0.4529410000000  0.5462420000000  0.4825900000000 1.0
C      1  0.5162670000000  0.5608410000000  0.4826850000000 1.0
C      1  0.5603980000000  0.5137270000000  0.4826850000000 1.0
C      1  0.5416950000000  0.4514890000000  0.4825900000000 1.0
C      1  0.4784770000000  0.4367500000000  0.4825270000000 1.0
C      1  0.4341050000000  0.4841210000000  0.4825270000000 1.0
C      1  0.4529410000000  0.5462420000000  0.5145410000000 1.0
C      1  0.5162670000000  0.5608410000000  0.5144460000000 1.0
C      1  0.5603980000000  0.5137270000000  0.5144460000000 1.0
C      1  0.5416950000000  0.4514890000000  0.5145410000000 1.0
C      1  0.4784770000000  0.4367500000000  0.5146030000000 1.0
C      1  0.4341050000000  0.4841210000000  0.5146030000000 1.0
C      1  0.5187670000000  0.5189570000000  0.5148430000000 1.0
C      1  0.5256460000000  0.4902400000000  0.5138360000000 1.0
C      1  0.5040490000000  0.4699970000000  0.5141330000000 1.0
C      1  0.4756900000000  0.4786060000000  0.5141130000000 1.0
C      1  0.4689510000000  0.5074680000000  0.5141330000000 1.0
C      1  0.4905610000000  0.5276960000000  0.5138360000000 1.0
C      1  0.5187670000000  0.5189570000000  0.4822880000000 1.0
C      1  0.5256460000000  0.4902400000000  0.4832950000000 1.0
C      1  0.5040490000000  0.4699970000000  0.4829980000000 1.0
C      1  0.4756900000000  0.4786060000000  0.4830180000000 1.0
C      1  0.4689510000000  0.5074680000000  0.4829980000000 1.0
C      1  0.4905610000000  0.5276960000000  0.4832950000000 1.0
C      1  0.5328880000000  0.5321840000000  0.4131020000000 1.0
C      1  0.5328880000000  0.5321840000000  0.5840290000000 1.0
END
