TITL C-862127-1500-2 0.000420077393154229 125000 -768.483066954273 0 0 123 (D3h) n - 1
REM
REM in /home/nfs/bkarasulu/CARBON/AIRSS/Generating-Clusters/TERSOFF/Higher-Symm/FIRE-HFTN
REM
REM
REM
REM
REM
REM ./C.cell (b20cbc046b6831c77cfcea5457e17084)
REM AIRSS Version 0.9.1 bugfix July 2018 build 013d7b7c2542+ Fri, 06 Jul 2018 19:26:36 +0100
REM compiler GCC version 9.2.1 20190827 (Red Hat 9.2.1-1)
REM options -cpp -mtune=generic -march=x86-64 -g -O0 -fpre-include=/usr/include/finclude/math-vector-fortran.h
REM seed 419128221 1644685573 722495555 1416593202 -1029328889 1142854706 -1890550332 -656808466 1506292508 1007269577 -1394825423 412485893 -1146842566 -900747379 -1693922534 777503670 -1136417289 -112994613 -1305901270 -692080139 1149147363 1701453159 -2071306123 1341043480 487992329 1370587315 986175580 -986521515 560217206 737379692 -1505231685 -1411299863 -617087448
REM
CELL 1.54180   50.00000   50.00000   50.00000   90.00000   90.00000   90.00000
LATT -1
SFAC C  
C      1  0.4669050000000  0.5624120000000  0.4472660000000 1.0
C      1  0.5705980000000  0.4974550000000  0.4472660000000 1.0
C      1  0.4624970000000  0.4401330000000  0.4472660000000 1.0
C      1  0.4669050000000  0.5624120000000  0.5530610000000 1.0
C      1  0.5705980000000  0.4974550000000  0.5530610000000 1.0
C      1  0.4624970000000  0.4401330000000  0.5530610000000 1.0
C      1  0.5330950000000  0.5624120000000  0.4472660000000 1.0
C      1  0.4294020000000  0.4974550000000  0.4472660000000 1.0
C      1  0.5375030000000  0.4401330000000  0.4472660000000 1.0
C      1  0.5330950000000  0.5624120000000  0.5530610000000 1.0
C      1  0.4294020000000  0.4974550000000  0.5530610000000 1.0
C      1  0.5375030000000  0.4401330000000  0.5530610000000 1.0
C      1  0.4709330000000  0.5000880000000  0.5830020000000 1.0
C      1  0.5146100000000  0.5251290000000  0.5830020000000 1.0
C      1  0.5144570000000  0.4747830000000  0.5830020000000 1.0
C      1  0.4709330000000  0.5000880000000  0.4173240000000 1.0
C      1  0.5146100000000  0.5251290000000  0.4173240000000 1.0
C      1  0.5144570000000  0.4747830000000  0.4173240000000 1.0
C      1  0.5290670000000  0.5000880000000  0.5830020000000 1.0
C      1  0.4853900000000  0.5251290000000  0.5830020000000 1.0
C      1  0.4855430000000  0.4747830000000  0.5830020000000 1.0
C      1  0.5290670000000  0.5000880000000  0.4173240000000 1.0
C      1  0.4853900000000  0.5251290000000  0.4173240000000 1.0
C      1  0.4855430000000  0.4747830000000  0.4173240000000 1.0
C      1  0.4849410000000  0.5845490000000  0.5447250000000 1.0
C      1  0.5807510000000  0.4707670000000  0.5447250000000 1.0
C      1  0.4343070000000  0.4446840000000  0.5447250000000 1.0
C      1  0.4849410000000  0.5845490000000  0.4556010000000 1.0
C      1  0.5807510000000  0.4707670000000  0.4556010000000 1.0
C      1  0.4343070000000  0.4446840000000  0.4556010000000 1.0
C      1  0.5150590000000  0.5845490000000  0.5447250000000 1.0
C      1  0.4192490000000  0.4707670000000  0.5447250000000 1.0
C      1  0.5656930000000  0.4446840000000  0.5447250000000 1.0
C      1  0.5150590000000  0.5845490000000  0.4556010000000 1.0
C      1  0.4192490000000  0.4707670000000  0.4556010000000 1.0
C      1  0.5656930000000  0.4446840000000  0.4556010000000 1.0
C      1  0.6151230000000  0.4940040000000  0.4848490000000 1.0
C      1  0.4372460000000  0.4032980000000  0.4848490000000 1.0
C      1  0.4476310000000  0.6026980000000  0.4848490000000 1.0
C      1  0.6151230000000  0.4940040000000  0.5154770000000 1.0
C      1  0.4372460000000  0.4032980000000  0.5154770000000 1.0
C      1  0.4476310000000  0.6026980000000  0.5154770000000 1.0
C      1  0.3848770000000  0.4940040000000  0.4848490000000 1.0
C      1  0.5627540000000  0.4032980000000  0.4848490000000 1.0
C      1  0.5523690000000  0.6026980000000  0.4848490000000 1.0
C      1  0.3848770000000  0.4940040000000  0.5154770000000 1.0
C      1  0.5627540000000  0.4032980000000  0.5154770000000 1.0
C      1  0.5523690000000  0.6026980000000  0.5154770000000 1.0
C      1  0.4460410000000  0.5029350000000  0.5148920000000 1.0
C      1  0.5295220000000  0.5452630000000  0.5148920000000 1.0
C      1  0.5244380000000  0.4518020000000  0.5148920000000 1.0
C      1  0.4460410000000  0.5029350000000  0.4854340000000 1.0
C      1  0.5295220000000  0.5452630000000  0.4854340000000 1.0
C      1  0.5244380000000  0.4518020000000  0.4854340000000 1.0
C      1  0.5539590000000  0.5029350000000  0.5148920000000 1.0
C      1  0.4704780000000  0.5452630000000  0.5148920000000 1.0
C      1  0.4755620000000  0.4518020000000  0.5148920000000 1.0
C      1  0.5539590000000  0.5029350000000  0.4854340000000 1.0
C      1  0.4704780000000  0.5452630000000  0.4854340000000 1.0
C      1  0.4755620000000  0.4518020000000  0.4854340000000 1.0
C      1  0.4717880000000  0.4496760000000  0.5787340000000 1.0
C      1  0.4705250000000  0.5495940000000  0.5787340000000 1.0
C      1  0.5576880000000  0.5007290000000  0.5787340000000 1.0
C      1  0.4717880000000  0.4496760000000  0.4215930000000 1.0
C      1  0.4705250000000  0.5495940000000  0.4215930000000 1.0
C      1  0.5576880000000  0.5007290000000  0.4215930000000 1.0
C      1  0.5282120000000  0.4496760000000  0.5787340000000 1.0
C      1  0.5294750000000  0.5495940000000  0.5787340000000 1.0
C      1  0.4423120000000  0.5007290000000  0.5787340000000 1.0
C      1  0.5282120000000  0.4496760000000  0.4215930000000 1.0
C      1  0.5294750000000  0.5495940000000  0.4215930000000 1.0
C      1  0.4423120000000  0.5007290000000  0.4215930000000 1.0
C      1  0.5680490000000  0.5747320000000  0.5165150000000 1.0
C      1  0.5306960000000  0.4037020000000  0.5165150000000 1.0
C      1  0.4012550000000  0.5215660000000  0.5165150000000 1.0
C      1  0.5680490000000  0.5747320000000  0.4838120000000 1.0
C      1  0.5306960000000  0.4037020000000  0.4838120000000 1.0
C      1  0.4012550000000  0.5215660000000  0.4838120000000 1.0
C      1  0.4319510000000  0.5747320000000  0.5165150000000 1.0
C      1  0.4693040000000  0.4037020000000  0.5165150000000 1.0
C      1  0.5987450000000  0.5215660000000  0.5165150000000 1.0
C      1  0.4319510000000  0.5747320000000  0.4838120000000 1.0
C      1  0.4693040000000  0.4037020000000  0.4838120000000 1.0
C      1  0.5987450000000  0.5215660000000  0.4838120000000 1.0
C      1  0.4858850000000  0.5246230000000  0.5278320000000 1.0
C      1  0.5283820000000  0.4999130000000  0.5278320000000 1.0
C      1  0.4857340000000  0.4754640000000  0.5278320000000 1.0
C      1  0.4858850000000  0.5246230000000  0.4724940000000 1.0
C      1  0.5283820000000  0.4999130000000  0.4724940000000 1.0
C      1  0.4857340000000  0.4754640000000  0.4724940000000 1.0
C      1  0.5141150000000  0.5246230000000  0.5278320000000 1.0
C      1  0.4716180000000  0.4999130000000  0.5278320000000 1.0
C      1  0.5142660000000  0.4754640000000  0.5278320000000 1.0
C      1  0.5141150000000  0.5246230000000  0.4724940000000 1.0
C      1  0.4716180000000  0.4999130000000  0.4724940000000 1.0
C      1  0.5142660000000  0.4754640000000  0.4724940000000 1.0
C      1  0.6010230000000  0.4692210000000  0.4767810000000 1.0
C      1  0.4228330000000  0.4279020000000  0.4767810000000 1.0
C      1  0.4761440000000  0.6028780000000  0.4767810000000 1.0
C      1  0.6010230000000  0.4692210000000  0.5235450000000 1.0
C      1  0.4228330000000  0.4279020000000  0.5235450000000 1.0
C      1  0.4761440000000  0.6028780000000  0.5235450000000 1.0
C      1  0.3989770000000  0.4692210000000  0.4767810000000 1.0
C      1  0.5771670000000  0.4279020000000  0.4767810000000 1.0
C      1  0.5238560000000  0.6028780000000  0.4767810000000 1.0
C      1  0.3989770000000  0.4692210000000  0.5235450000000 1.0
C      1  0.5771670000000  0.4279020000000  0.5235450000000 1.0
C      1  0.5238560000000  0.6028780000000  0.5235450000000 1.0
C      1  0.5724240000000  0.5218800000000  0.4692750000000 1.0
C      1  0.4827360000000  0.4263390000000  0.4692750000000 1.0
C      1  0.4448400000000  0.5517810000000  0.4692750000000 1.0
C      1  0.5724240000000  0.5218800000000  0.5310510000000 1.0
C      1  0.4827360000000  0.4263390000000  0.5310510000000 1.0
C      1  0.4448400000000  0.5517810000000  0.5310510000000 1.0
C      1  0.4275760000000  0.5218800000000  0.4692750000000 1.0
C      1  0.5172640000000  0.4263390000000  0.4692750000000 1.0
C      1  0.5551600000000  0.5517810000000  0.4692750000000 1.0
C      1  0.4275760000000  0.5218800000000  0.5310510000000 1.0
C      1  0.5172640000000  0.4263390000000  0.5310510000000 1.0
C      1  0.5551600000000  0.5517810000000  0.5310510000000 1.0
C      1  0.4039840000000  0.4445650000000  0.5001630000000 1.0
C      1  0.5960160000000  0.4445650000000  0.5001630000000 1.0
C      1  0.5000000000000  0.6108700000000  0.5001630000000 1.0
END
