TITL C-862129-6180-113 0.036997431876384 125000 -387.401904181661 0 0 67 (C2) n - 1
REM
REM in /home/nfs/bkarasulu/CARBON/AIRSS/Generating-Clusters/TERSOFF/Higher-Symm/FIRE-HFTN
REM
REM
REM
REM
REM
REM ./C.cell (b20cbc046b6831c77cfcea5457e17084)
REM AIRSS Version 0.9.1 bugfix July 2018 build 013d7b7c2542+ Fri, 06 Jul 2018 19:26:36 +0100
REM compiler GCC version 9.2.1 20190827 (Red Hat 9.2.1-1)
REM options -cpp -mtune=generic -march=x86-64 -g -O0 -fpre-include=/usr/include/finclude/math-vector-fortran.h
REM seed 1136450438 -369069754 843897285 544641938 -1131038901 163285751 1856666370 -1068892479 -550985851 -721881253 1367589916 1033380125 -931247682 -337964049 202133981 -1894841892 2069508084 -909283672 1399275571 810628990 -848055166 -1718855610 1712878119 -864693476 -623200578 1768130133 -2121078332 -1273672709 -1544274139 1532783587 -1046492258 937929482 -1275055950
REM
CELL 1.54180   50.00000   50.00000   50.00000   90.00000   90.00000   90.00000
LATT -1
SFAC C  
C      1  0.5191330000000  0.5151050000000  0.5448990000000 1.0
C      1  0.5191600000000  0.4838470000000  0.4549230000000 1.0
C      1  0.4969670000000  0.5381690000000  0.5003520000000 1.0
C      1  0.4971740000000  0.4608010000000  0.4996860000000 1.0
C      1  0.5020960000000  0.4287930000000  0.5034420000000 1.0
C      1  0.5021020000000  0.5701820000000  0.4963320000000 1.0
C      1  0.4935770000000  0.5561670000000  0.5659170000000 1.0
C      1  0.4935830000000  0.4429940000000  0.4338770000000 1.0
C      1  0.4113500000000  0.5278160000000  0.4813920000000 1.0
C      1  0.4114080000000  0.4712640000000  0.5184700000000 1.0
C      1  0.5037500000000  0.4834380000000  0.4802370000000 1.0
C      1  0.5037620000000  0.5154450000000  0.5195780000000 1.0
C      1  0.5512930000000  0.5645500000000  0.4745070000000 1.0
C      1  0.5513150000000  0.4344700000000  0.5252680000000 1.0
C      1  0.4989630000000  0.5079150000000  0.5810300000000 1.0
C      1  0.4989780000000  0.4912640000000  0.4188450000000 1.0
C      1  0.4700460000000  0.5701200000000  0.4964000000000 1.0
C      1  0.4700640000000  0.4289760000000  0.5033570000000 1.0
C      1  0.5138750000000  0.5788160000000  0.5223290000000 1.0
C      1  0.5138650000000  0.4202370000000  0.4774220000000 1.0
C      1  0.5464510000000  0.4954160000000  0.4535320000000 1.0
C      1  0.5464550000000  0.5036100000000  0.5463200000000 1.0
C      1  0.4331570000000  0.5350360000000  0.5003610000000 1.0
C      1  0.4332030000000  0.4640790000000  0.4994770000000 1.0
C      1  0.4913240000000  0.4249660000000  0.4569840000000 1.0
C      1  0.4913380000000  0.5741620000000  0.5427790000000 1.0
C      1  0.4832340000000  0.5281670000000  0.5671300000000 1.0
C      1  0.4832330000000  0.4709920000000  0.4326970000000 1.0
C      1  0.4547360000000  0.5474810000000  0.4841250000000 1.0
C      1  0.4548110000000  0.4516360000000  0.5156740000000 1.0
C      1  0.4665670000000  0.4235070000000  0.4737340000000 1.0
C      1  0.4665790000000  0.5756400000000  0.5260260000000 1.0
C      1  0.4931340000000  0.4717100000000  0.5464910000000 1.0
C      1  0.4930640000000  0.5274140000000  0.4534170000000 1.0
C      1  0.5653780000000  0.4837170000000  0.4725250000000 1.0
C      1  0.5653440000000  0.5153160000000  0.5272830000000 1.0
C      1  0.5646200000000  0.5456940000000  0.4552960000000 1.0
C      1  0.5646590000000  0.4533320000000  0.5444750000000 1.0
C      1  0.4654220000000  0.4728650000000  0.5367430000000 1.0
C      1  0.4653340000000  0.5262720000000  0.4630710000000 1.0
C      1  0.5085710000000  0.4599610000000  0.5930120000000 1.0
C      1  0.5086720000000  0.5392250000000  0.4069720000000 1.0
C      1  0.4478750000000  0.4987000000000  0.4604860000000 1.0
C      1  0.4479190000000  0.5004260000000  0.5393360000000 1.0
C      1  0.5428330000000  0.4246190000000  0.4751950000000 1.0
C      1  0.5428410000000  0.5744420000000  0.5245610000000 1.0
C      1  0.5582980000000  0.5601490000000  0.5036080000000 1.0
C      1  0.5583080000000  0.4388750000000  0.4961630000000 1.0
C      1  0.5569840000000  0.5306610000000  0.5037130000000 1.0
C      1  0.5570520000000  0.4683660000000  0.4960940000000 1.0
C      1  0.4194170000000  0.4887910000000  0.5404170000000 1.0
C      1  0.4193550000000  0.5102930000000  0.4594370000000 1.0
C      1  0.4460720000000  0.5098060000000  0.5101210000000 1.0
C      1  0.4460720000000  0.4893210000000  0.4897030000000 1.0
C      1  0.5132520000000  0.5374100000000  0.4725480000000 1.0
C      1  0.5133970000000  0.4616910000000  0.5274380000000 1.0
C      1  0.4555740000000  0.4775220000000  0.4408420000000 1.0
C      1  0.4555900000000  0.5216200000000  0.5589670000000 1.0
C      1  0.5002280000000  0.4798690000000  0.5735310000000 1.0
C      1  0.5002430000000  0.5192930000000  0.4263910000000 1.0
C      1  0.5217430000000  0.4317270000000  0.5290560000000 1.0
C      1  0.5217260000000  0.5673130000000  0.4707450000000 1.0
C      1  0.5511030000000  0.5226140000000  0.4417140000000 1.0
C      1  0.5511420000000  0.4763940000000  0.5581010000000 1.0
C      1  0.5355730000000  0.4795460000000  0.5137000000000 1.0
C      1  0.5354760000000  0.5194990000000  0.4861100000000 1.0
C      1  0.5194610000000  0.4994740000000  0.4998930000000 1.0
END
