TITL C-862129-6180-1174 587038.752187141 125000 -1209.95622331239 0 0 198 (C1) n - 1
REM
REM in /home/nfs/bkarasulu/CARBON/AIRSS/Generating-Clusters/TERSOFF/Higher-Symm/FIRE-HFTN
REM
REM
REM
REM
REM
REM ./C.cell (b20cbc046b6831c77cfcea5457e17084)
REM AIRSS Version 0.9.1 bugfix July 2018 build 013d7b7c2542+ Fri, 06 Jul 2018 19:26:36 +0100
REM compiler GCC version 9.2.1 20190827 (Red Hat 9.2.1-1)
REM options -cpp -mtune=generic -march=x86-64 -g -O0 -fpre-include=/usr/include/finclude/math-vector-fortran.h
REM seed -2111040635 -144440249 770306772 850397433 -1722730282 188860106 1289535415 580865073 325893856 263816468 1616500445 386631337 1718336520 461391187 -2067915849 -1080598271 -826076689 -1215488038 -1258122564 863821886 650571238 -1046967838 -1143362673 933596710 998451895 -673770959 1644918897 -2059646415 597751070 -1391143888 -653318064 -2034141899 77268854
REM
CELL 1.54180   50.00000   50.00000   50.00000   90.00000   90.00000   90.00000
LATT -1
SFAC C  
C      1  0.4127380000000  0.3844470000000  0.5392090000000 1.0
C      1  0.5856340000000  0.6135810000000  0.5406160000000 1.0
C      1  0.4143070000000  0.6131510000000  0.4587070000000 1.0
C      1  0.5865400000000  0.3846320000000  0.4583510000000 1.0
C      1  0.4090070000000  0.4125700000000  0.5324270000000 1.0
C      1  0.5881980000000  0.5849700000000  0.5461550000000 1.0
C      1  0.5892010000000  0.4132040000000  0.4637160000000 1.0
C      1  0.4113100000000  0.5848440000000  0.4519510000000 1.0
C      1  0.4874870000000  0.6139780000000  0.4480750000000 1.0
C      1  0.5128160000000  0.3864760000000  0.4471910000000 1.0
C      1  0.4872750000000  0.3867210000000  0.5519720000000 1.0
C      1  0.5125170000000  0.6140060000000  0.5509110000000 1.0
C      1  0.6115930000000  0.4803800000000  0.4445100000000 1.0
C      1  0.3881200000000  0.5192510000000  0.4449890000000 1.0
C      1  0.3884330000000  0.4803240000000  0.5544280000000 1.0
C      1  0.6118940000000  0.5193740000000  0.5540090000000 1.0
C      1  0.3839340000000  0.4578770000000  0.5359030000000 1.0
C      1  0.6160370000000  0.5422580000000  0.5359810000000 1.0
C      1  0.3838580000000  0.5421120000000  0.4630120000000 1.0
C      1  0.6158790000000  0.4577670000000  0.4628830000000 1.0
C      1  0.4644340000000  0.3800640000000  0.5345730000000 1.0
C      1  0.5348450000000  0.6208290000000  0.5328400000000 1.0
C      1  0.5352160000000  0.3795110000000  0.4650640000000 1.0
C      1  0.4651070000000  0.6207230000000  0.4661110000000 1.0
C      1  0.4119490000000  0.4897760000000  0.5110090000000 1.0
C      1  0.5879510000000  0.5105690000000  0.5106400000000 1.0
C      1  0.4121310000000  0.5106030000000  0.4883450000000 1.0
C      1  0.5880660000000  0.4897580000000  0.4879590000000 1.0
C      1  0.4900230000000  0.4141400000000  0.5113150000000 1.0
C      1  0.5098070000000  0.5855060000000  0.5113070000000 1.0
C      1  0.5097390000000  0.4141300000000  0.4875920000000 1.0
C      1  0.4902410000000  0.5855070000000  0.4876910000000 1.0
C      1  0.4932220000000  0.4647650000000  0.4630210000000 1.0
C      1  0.5069250000000  0.5352500000000  0.4631180000000 1.0
C      1  0.4931270000000  0.5352500000000  0.5358590000000 1.0
C      1  0.5067800000000  0.4647730000000  0.5359160000000 1.0
C      1  0.4634680000000  0.4945050000000  0.4625130000000 1.0
C      1  0.5366490000000  0.5054930000000  0.4623000000000 1.0
C      1  0.5366220000000  0.4945320000000  0.5364820000000 1.0
C      1  0.4633880000000  0.5054960000000  0.5366810000000 1.0
C      1  0.5614190000000  0.5204920000000  0.5756230000000 1.0
C      1  0.4389180000000  0.4797370000000  0.5759390000000 1.0
C      1  0.5611090000000  0.4797380000000  0.4230480000000 1.0
C      1  0.4386430000000  0.5204700000000  0.4233640000000 1.0
C      1  0.5192280000000  0.5622150000000  0.5746380000000 1.0
C      1  0.4811440000000  0.4383240000000  0.5751460000000 1.0
C      1  0.4808280000000  0.5622080000000  0.4243260000000 1.0
C      1  0.5189590000000  0.4382270000000  0.4239260000000 1.0
C      1  0.6147830000000  0.4480030000000  0.5127500000000 1.0
C      1  0.3852290000000  0.5519840000000  0.5131330000000 1.0
C      1  0.6148420000000  0.5519870000000  0.4858440000000 1.0
C      1  0.3853240000000  0.4479570000000  0.4861690000000 1.0
C      1  0.4416880000000  0.5989550000000  0.5056560000000 1.0
C      1  0.5584480000000  0.3996690000000  0.5057150000000 1.0
C      1  0.5583490000000  0.5989970000000  0.4933570000000 1.0
C      1  0.4414170000000  0.3987120000000  0.4929740000000 1.0
C      1  0.4769830000000  0.5598510000000  0.4790370000000 1.0
C      1  0.5230150000000  0.4399700000000  0.4789170000000 1.0
C      1  0.4769210000000  0.4400120000000  0.5200870000000 1.0
C      1  0.5230720000000  0.5598520000000  0.5199460000000 1.0
C      1  0.5613180000000  0.4762770000000  0.4793980000000 1.0
C      1  0.4388760000000  0.5238010000000  0.4795930000000 1.0
C      1  0.4386930000000  0.4762900000000  0.5196020000000 1.0
C      1  0.5612130000000  0.5238110000000  0.5193750000000 1.0
C      1  0.4352690000000  0.4583710000000  0.4817740000000 1.0
C      1  0.5651130000000  0.5414760000000  0.4814740000000 1.0
C      1  0.4349290000000  0.5414580000000  0.5174940000000 1.0
C      1  0.5648430000000  0.4584230000000  0.5172480000000 1.0
C      1  0.4559010000000  0.4392870000000  0.4837460000000 1.0
C      1  0.5444590000000  0.5604850000000  0.4838210000000 1.0
C      1  0.5441630000000  0.4394010000000  0.5151850000000 1.0
C      1  0.4555800000000  0.5604740000000  0.5151540000000 1.0
C      1  0.5565570000000  0.5359380000000  0.5489310000000 1.0
C      1  0.4436750000000  0.4642820000000  0.5492490000000 1.0
C      1  0.5563420000000  0.4642670000000  0.4497690000000 1.0
C      1  0.4435090000000  0.5359260000000  0.4500480000000 1.0
C      1  0.5351770000000  0.5565730000000  0.5485580000000 1.0
C      1  0.4650230000000  0.4435960000000  0.5489440000000 1.0
C      1  0.4648790000000  0.5565720000000  0.4504130000000 1.0
C      1  0.5349840000000  0.4435900000000  0.4501040000000 1.0
C      1  0.4165250000000  0.4730690000000  0.5928770000000 1.0
C      1  0.5839740000000  0.5269440000000  0.5924420000000 1.0
C      1  0.4160610000000  0.5268870000000  0.4065650000000 1.0
C      1  0.5835080000000  0.4731000000000  0.4060990000000 1.0
C      1  0.4766180000000  0.4144400000000  0.5907300000000 1.0
C      1  0.5238530000000  0.5863930000000  0.5897990000000 1.0
C      1  0.5236480000000  0.4143120000000  0.4084260000000 1.0
C      1  0.4762100000000  0.5863870000000  0.4091640000000 1.0
C      1  0.4773390000000  0.4997830000000  0.4369710000000 1.0
C      1  0.5225500000000  0.5004350000000  0.4368460000000 1.0
C      1  0.4774910000000  0.5004380000000  0.5621290000000 1.0
C      1  0.5227410000000  0.4998070000000  0.5620030000000 1.0
C      1  0.4989370000000  0.4776350000000  0.4370480000000 1.0
C      1  0.5009810000000  0.5226300000000  0.4370880000000 1.0
C      1  0.5011380000000  0.4776820000000  0.5618890000000 1.0
C      1  0.4990740000000  0.5226290000000  0.5618900000000 1.0
C      1  0.5213310000000  0.5610790000000  0.4666690000000 1.0
C      1  0.4789340000000  0.4388940000000  0.4664670000000 1.0
C      1  0.5211230000000  0.4389570000000  0.5324640000000 1.0
C      1  0.4787090000000  0.5610720000000  0.5323080000000 1.0
C      1  0.5633820000000  0.5182230000000  0.4646310000000 1.0
C      1  0.4368090000000  0.4816930000000  0.4649900000000 1.0
C      1  0.4366590000000  0.5182160000000  0.5343520000000 1.0
C      1  0.5632960000000  0.4817400000000  0.5340280000000 1.0
C      1  0.4010900000000  0.4443890000000  0.4618020000000 1.0
C      1  0.5991430000000  0.5556790000000  0.4614000000000 1.0
C      1  0.4009140000000  0.5556540000000  0.5375980000000 1.0
C      1  0.5990520000000  0.4444040000000  0.5371450000000 1.0
C      1  0.4388120000000  0.4061920000000  0.4643840000000 1.0
C      1  0.5613920000000  0.5936310000000  0.4644090000000 1.0
C      1  0.5612820000000  0.4062830000000  0.5344800000000 1.0
C      1  0.4386530000000  0.5936000000000  0.5346040000000 1.0
C      1  0.5937880000000  0.4963850000000  0.5414000000000 1.0
C      1  0.4063420000000  0.5036470000000  0.5420010000000 1.0
C      1  0.5937190000000  0.5036650000000  0.4570030000000 1.0
C      1  0.4063220000000  0.4963440000000  0.4575970000000 1.0
C      1  0.4919260000000  0.5930740000000  0.5386250000000 1.0
C      1  0.5079300000000  0.4070450000000  0.5389020000000 1.0
C      1  0.5081070000000  0.5930850000000  0.4603730000000 1.0
C      1  0.4921080000000  0.4069800000000  0.4599440000000 1.0
C      1  0.5526460000000  0.5307140000000  0.4157660000000 1.0
C      1  0.4471340000000  0.4695500000000  0.4159730000000 1.0
C      1  0.5529660000000  0.4695620000000  0.5829650000000 1.0
C      1  0.4474090000000  0.5306930000000  0.5832470000000 1.0
C      1  0.5320280000000  0.5522620000000  0.4164880000000 1.0
C      1  0.4677710000000  0.4480440000000  0.4165550000000 1.0
C      1  0.4680280000000  0.5522460000000  0.5825160000000 1.0
C      1  0.5323240000000  0.4480750000000  0.5823440000000 1.0
C      1  0.6096730000000  0.4753090000000  0.4164130000000 1.0
C      1  0.3899430000000  0.5240470000000  0.4168490000000 1.0
C      1  0.6100940000000  0.5241560000000  0.5821540000000 1.0
C      1  0.3903700000000  0.4751120000000  0.5825000000000 1.0
C      1  0.4820120000000  0.6119120000000  0.4200100000000 1.0
C      1  0.5180370000000  0.3886990000000  0.4190880000000 1.0
C      1  0.5180430000000  0.6119230000000  0.5789660000000 1.0
C      1  0.4825780000000  0.3888860000000  0.5801600000000 1.0
C      1  0.4607910000000  0.5803260000000  0.5781740000000 1.0
C      1  0.5394360000000  0.4199070000000  0.5781270000000 1.0
C      1  0.4606360000000  0.4198850000000  0.4207570000000 1.0
C      1  0.5392570000000  0.5803470000000  0.4208310000000 1.0
C      1  0.5813600000000  0.4636900000000  0.5799960000000 1.0
C      1  0.4189610000000  0.5365220000000  0.5804270000000 1.0
C      1  0.4187440000000  0.4636820000000  0.4189590000000 1.0
C      1  0.5810880000000  0.5365460000000  0.4185820000000 1.0
C      1  0.4663030000000  0.3939800000000  0.5088540000000 1.0
C      1  0.5332290000000  0.6054390000000  0.5080500000000 1.0
C      1  0.4667950000000  0.6054140000000  0.4909460000000 1.0
C      1  0.5334220000000  0.3940820000000  0.4903980000000 1.0
C      1  0.3916060000000  0.4658740000000  0.5091400000000 1.0
C      1  0.6077140000000  0.5349510000000  0.5091600000000 1.0
C      1  0.6082370000000  0.4656820000000  0.4896950000000 1.0
C      1  0.3923250000000  0.5349200000000  0.4898190000000 1.0
C      1  0.4974080000000  0.5429950000000  0.5837910000000 1.0
C      1  0.5030410000000  0.4574980000000  0.5838870000000 1.0
C      1  0.4970710000000  0.4574210000000  0.4150500000000 1.0
C      1  0.5026550000000  0.5429930000000  0.4151850000000 1.0
C      1  0.5427150000000  0.4983510000000  0.5842370000000 1.0
C      1  0.4576680000000  0.5019160000000  0.5845020000000 1.0
C      1  0.4573680000000  0.4983420000000  0.4147390000000 1.0
C      1  0.5423850000000  0.5019390000000  0.4144930000000 1.0
C      1  0.5610460000000  0.3705510000000  0.4545390000000 1.0
C      1  0.4390260000000  0.6286170000000  0.4555450000000 1.0
C      1  0.5608520000000  0.6290330000000  0.5433380000000 1.0
C      1  0.4385280000000  0.3720070000000  0.5457670000000 1.0
C      1  0.3861880000000  0.5697770000000  0.4535800000000 1.0
C      1  0.6113780000000  0.4300530000000  0.4544780000000 1.0
C      1  0.6133720000000  0.5699160000000  0.5453620000000 1.0
C      1  0.3884770000000  0.4300780000000  0.5439430000000 1.0
C      1  0.4988360000000  0.5313830000000  0.3880910000000 1.0
C      1  0.5006000000000  0.4691430000000  0.3879470000000 1.0
C      1  0.4995880000000  0.4691860000000  0.6110120000000 1.0
C      1  0.5012640000000  0.5313910000000  0.6108740000000 1.0
C      1  0.5305440000000  0.4985790000000  0.3876680000000 1.0
C      1  0.4690290000000  0.5017980000000  0.3878490000000 1.0
C      1  0.4695310000000  0.4985240000000  0.6113120000000 1.0
C      1  0.5310540000000  0.5017890000000  0.6111290000000 1.0
C      1  0.5964150000000  0.4672990000000  0.5553390000000 1.0
C      1  0.4037190000000  0.5327760000000  0.5558600000000 1.0
C      1  0.5963260000000  0.5328040000000  0.4431440000000 1.0
C      1  0.4037120000000  0.4672800000000  0.4436270000000 1.0
C      1  0.4624710000000  0.5941410000000  0.5523760000000 1.0
C      1  0.5375390000000  0.4058990000000  0.5524000000000 1.0
C      1  0.5375720000000  0.5941650000000  0.4466300000000 1.0
C      1  0.4625520000000  0.4058580000000  0.4464680000000 1.0
C      1  0.5103160000000  0.5315330000000  0.5111570000000 1.0
C      1  0.4896540000000  0.4684630000000  0.5111840000000 1.0
C      1  0.5103240000000  0.4684620000000  0.4877920000000 1.0
C      1  0.4897410000000  0.5315310000000  0.4878240000000 1.0
C      1  0.5320310000000  0.5103590000000  0.5109910000000 1.0
C      1  0.4679930000000  0.4896860000000  0.5111210000000 1.0
C      1  0.4680230000000  0.5103610000000  0.4879870000000 1.0
C      1  0.5320270000000  0.4896740000000  0.4878630000000 1.0
C      1  0.4126310000000  0.5824860000000  0.5447130000000 1.0
C      1  0.5873700000000  0.4175560000000  0.5443830000000 1.0
C      1  0.5874240000000  0.5825200000000  0.4543040000000 1.0
C      1  0.4127390000000  0.4175450000000  0.4545280000000 1.0
C      1  0.4997750000000  0.5002920000000  0.3814180000000 1.0
C      1  0.5003000000000  0.5003260000000  0.6175530000000 1.0
END
