TITL C-862500-986-343 843628.838223871 125000 -494.26937491479 0 0 97 (S4) n - 1
REM
REM in /home/nfs/bkarasulu/CARBON/AIRSS/Generating-Clusters/TERSOFF/Higher-Symm/FIRE-HFTN
REM
REM
REM
REM
REM
REM ./C.cell (b20cbc046b6831c77cfcea5457e17084)
REM AIRSS Version 0.9.1 bugfix July 2018 build 013d7b7c2542+ Fri, 06 Jul 2018 19:26:36 +0100
REM compiler GCC version 9.2.1 20190827 (Red Hat 9.2.1-1)
REM options -cpp -mtune=generic -march=x86-64 -g -O0 -fpre-include=/usr/include/finclude/math-vector-fortran.h
REM seed -2070912071 1353326281 2029446158 -403898990 -803528449 165345750 -116027313 1538110028 2126885120 -2064478568 774401813 395570901 2106513204 280543999 -563392077 -62607034 2008768460 1617153746 94481078 1071951280 -1865163160 1539990898 -1939180258 529515025 -620087788 1102522570 1926902327 1060908684 -1044818590 2022744013 2086394623 1364471517 -1539008985
REM
CELL 1.54180   50.00000   50.00000   50.00000   90.00000   90.00000   90.00000
LATT -1
SFAC C  
C      1  0.4583310000000  0.4680880000000  0.4306740000000 1.0
C      1  0.4675830000000  0.5412010000000  0.5696930000000 1.0
C      1  0.5406920000000  0.5319490000000  0.4306760000000 1.0
C      1  0.5314410000000  0.4588380000000  0.5696900000000 1.0
C      1  0.5845450000000  0.5310520000000  0.4723100000000 1.0
C      1  0.5305440000000  0.4149860000000  0.5280570000000 1.0
C      1  0.4144780000000  0.4689750000000  0.4723040000000 1.0
C      1  0.4684740000000  0.5850510000000  0.5280590000000 1.0
C      1  0.4018320000000  0.4616670000000  0.4983600000000 1.0
C      1  0.4611650000000  0.5976920000000  0.5020000000000 1.0
C      1  0.5971850000000  0.5383520000000  0.4983720000000 1.0
C      1  0.5378380000000  0.4023420000000  0.5019950000000 1.0
C      1  0.5853620000000  0.5064360000000  0.4544970000000 1.0
C      1  0.5059290000000  0.4141670000000  0.5458710000000 1.0
C      1  0.4136610000000  0.4935950000000  0.4544990000000 1.0
C      1  0.4930930000000  0.5858690000000  0.5458670000000 1.0
C      1  0.5363110000000  0.4898650000000  0.5764540000000 1.0
C      1  0.4893580000000  0.4632200000000  0.4239090000000 1.0
C      1  0.4627130000000  0.5101730000000  0.5764550000000 1.0
C      1  0.5096630000000  0.5368190000000  0.4239150000000 1.0
C      1  0.4827310000000  0.5711180000000  0.4367260000000 1.0
C      1  0.5706160000000  0.5167730000000  0.5636360000000 1.0
C      1  0.5162640000000  0.4289110000000  0.4367330000000 1.0
C      1  0.4284150000000  0.4832970000000  0.5636610000000 1.0
C      1  0.5686300000000  0.4598860000000  0.4643180000000 1.0
C      1  0.4593800000000  0.4308980000000  0.5360480000000 1.0
C      1  0.4303890000000  0.5401440000000  0.4643260000000 1.0
C      1  0.5396420000000  0.5691380000000  0.5360420000000 1.0
C      1  0.4366140000000  0.4924790000000  0.5235050000000 1.0
C      1  0.4919770000000  0.5629090000000  0.4768650000000 1.0
C      1  0.5623910000000  0.5075390000000  0.5234980000000 1.0
C      1  0.5070300000000  0.4371470000000  0.4768690000000 1.0
C      1  0.5305300000000  0.4455630000000  0.5223790000000 1.0
C      1  0.4450560000000  0.4689950000000  0.4779850000000 1.0
C      1  0.4684930000000  0.5544720000000  0.5223820000000 1.0
C      1  0.5539660000000  0.5310340000000  0.4779860000000 1.0
C      1  0.4845830000000  0.5415930000000  0.4502470000000 1.0
C      1  0.5410870000000  0.5149460000000  0.5501220000000 1.0
C      1  0.5144390000000  0.4584430000000  0.4502400000000 1.0
C      1  0.4579350000000  0.4850920000000  0.5501220000000 1.0
C      1  0.4232440000000  0.4534060000000  0.5169960000000 1.0
C      1  0.4529020000000  0.5762760000000  0.4833680000000 1.0
C      1  0.5757700000000  0.5466120000000  0.5170030000000 1.0
C      1  0.5460990000000  0.4237550000000  0.4833610000000 1.0
C      1  0.4876320000000  0.4233080000000  0.4954140000000 1.0
C      1  0.4228030000000  0.5118910000000  0.5049580000000 1.0
C      1  0.5113890000000  0.5767250000000  0.4954100000000 1.0
C      1  0.5762200000000  0.4881360000000  0.5049530000000 1.0
C      1  0.5295230000000  0.5069620000000  0.4457260000000 1.0
C      1  0.5064560000000  0.4700070000000  0.5546380000000 1.0
C      1  0.4695000000000  0.4930720000000  0.4457280000000 1.0
C      1  0.4925680000000  0.5300310000000  0.5546400000000 1.0
C      1  0.4779540000000  0.4447140000000  0.5801150000000 1.0
C      1  0.4442040000000  0.5215750000000  0.4202550000000 1.0
C      1  0.5210710000000  0.5553260000000  0.5801130000000 1.0
C      1  0.5548180000000  0.4784620000000  0.4202490000000 1.0
C      1  0.5500560000000  0.4540800000000  0.4430050000000 1.0
C      1  0.4535720000000  0.4494760000000  0.5573580000000 1.0
C      1  0.4489640000000  0.5459540000000  0.4430140000000 1.0
C      1  0.5454500000000  0.5505630000000  0.5573550000000 1.0
C      1  0.4567500000000  0.4989240000000  0.4723370000000 1.0
C      1  0.4984210000000  0.5427780000000  0.5280310000000 1.0
C      1  0.5422720000000  0.5011060000000  0.4723340000000 1.0
C      1  0.5006000000000  0.4572580000000  0.5280300000000 1.0
C      1  0.5675940000000  0.5075890000000  0.4281790000000 1.0
C      1  0.5070810000000  0.4319370000000  0.5721870000000 1.0
C      1  0.4314290000000  0.4924470000000  0.4281810000000 1.0
C      1  0.4919430000000  0.5681030000000  0.5721860000000 1.0
C      1  0.5216910000000  0.5215160000000  0.5193880000000 1.0
C      1  0.5210120000000  0.4778340000000  0.4809770000000 1.0
C      1  0.4773250000000  0.4785150000000  0.5193870000000 1.0
C      1  0.4780100000000  0.5221980000000  0.4809790000000 1.0
C      1  0.4600430000000  0.4315200000000  0.4940590000000 1.0
C      1  0.4310200000000  0.5394780000000  0.5063150000000 1.0
C      1  0.5389760000000  0.5685060000000  0.4940530000000 1.0
C      1  0.5680040000000  0.4605480000000  0.5063070000000 1.0
C      1  0.5415940000000  0.4520490000000  0.4954720000000 1.0
C      1  0.4515410000000  0.4579300000000  0.5048910000000 1.0
C      1  0.4574280000000  0.5479820000000  0.4954770000000 1.0
C      1  0.5474770000000  0.5420980000000  0.5048920000000 1.0
C      1  0.5045710000000  0.4862030000000  0.4067560000000 1.0
C      1  0.4856950000000  0.4949590000000  0.5936080000000 1.0
C      1  0.4944490000000  0.5138380000000  0.4067590000000 1.0
C      1  0.5133300000000  0.5050800000000  0.5936080000000 1.0
C      1  0.4518550000000  0.5464300000000  0.5453530000000 1.0
C      1  0.5459230000000  0.5476750000000  0.4550170000000 1.0
C      1  0.5471690000000  0.4536070000000  0.5453500000000 1.0
C      1  0.4531020000000  0.4523580000000  0.4550140000000 1.0
C      1  0.4737300000000  0.5156900000000  0.4282340000000 1.0
C      1  0.5151850000000  0.5258000000000  0.5721350000000 1.0
C      1  0.5252920000000  0.4843470000000  0.4282290000000 1.0
C      1  0.4838400000000  0.4742390000000  0.5721340000000 1.0
C      1  0.5120610000000  0.5714200000000  0.5261640000000 1.0
C      1  0.5709140000000  0.4874650000000  0.4741990000000 1.0
C      1  0.4869600000000  0.4286150000000  0.5261680000000 1.0
C      1  0.4281080000000  0.5125640000000  0.4742040000000 1.0
C      1  0.4995100000000  0.5000140000000  0.5001830000000 1.0
END
