TITL C-862133-5440-82 0.482603234448592 125000 -1130.65329271986 0 0 199 (C1) n - 1
REM
REM in /home/nfs/bkarasulu/CARBON/AIRSS/Generating-Clusters/TERSOFF/Higher-Symm/FIRE-HFTN
REM
REM
REM
REM
REM
REM ./C.cell (b20cbc046b6831c77cfcea5457e17084)
REM AIRSS Version 0.9.1 bugfix July 2018 build 013d7b7c2542+ Fri, 06 Jul 2018 19:26:36 +0100
REM compiler GCC version 9.2.1 20190827 (Red Hat 9.2.1-1)
REM options -cpp -mtune=generic -march=x86-64 -g -O0 -fpre-include=/usr/include/finclude/math-vector-fortran.h
REM seed 47595741 -1028771020 -1216419872 -771788446 871064757 876715285 -1674268277 2112269293 -1249935435 -1101903148 839381510 -1717542654 -621210543 -252870673 390538816 1948583499 1636575408 -1539598740 -1198750912 -2056089940 -1682702364 571113075 -1864473055 535846370 -64505370 -275743823 1082311432 -1408780310 -1819513174 775387671 -1495468136 1000396418 -2063796399
REM
CELL 1.54180   50.00000   50.00000   50.00000   90.00000   90.00000   90.00000
LATT -1
SFAC C  
C      1  0.4889830000000  0.4588430000000  0.5793960000000 1.0
C      1  0.4875930000000  0.5189570000000  0.5853730000000 1.0
C      1  0.4877480000000  0.5710470000000  0.5547340000000 1.0
C      1  0.4851910000000  0.5898870000000  0.4962480000000 1.0
C      1  0.4867000000000  0.5659450000000  0.4395970000000 1.0
C      1  0.4883110000000  0.5114840000000  0.4106760000000 1.0
C      1  0.4860750000000  0.4518060000000  0.4252320000000 1.0
C      1  0.4866370000000  0.4131350000000  0.4726570000000 1.0
C      1  0.4863870000000  0.4176780000000  0.5339230000000 1.0
C      1  0.4006490000000  0.4281990000000  0.5203350000000 1.0
C      1  0.4064340000000  0.4597690000000  0.5594360000000 1.0
C      1  0.4019300000000  0.5078660000000  0.5738510000000 1.0
C      1  0.4060430000000  0.5514090000000  0.5497460000000 1.0
C      1  0.4008870000000  0.5752270000000  0.5057250000000 1.0
C      1  0.4011760000000  0.5611740000000  0.4555390000000 1.0
C      1  0.4065520000000  0.5180190000000  0.4301180000000 1.0
C      1  0.4009110000000  0.4679520000000  0.4324270000000 1.0
C      1  0.4051220000000  0.4343060000000  0.4700490000000 1.0
C      1  0.4418110000000  0.4767610000000  0.4360210000000 1.0
C      1  0.4464040000000  0.4409940000000  0.4661850000000 1.0
C      1  0.4415720000000  0.4327200000000  0.5120820000000 1.0
C      1  0.4485640000000  0.4566120000000  0.5515080000000 1.0
C      1  0.4426510000000  0.5006520000000  0.5665430000000 1.0
C      1  0.4477930000000  0.5423020000000  0.5494700000000 1.0
C      1  0.4417720000000  0.5675700000000  0.5114780000000 1.0
C      1  0.4421840000000  0.5604780000000  0.4645190000000 1.0
C      1  0.4477250000000  0.5235120000000  0.4363230000000 1.0
C      1  0.5246970000000  0.5937130000000  0.5106960000000 1.0
C      1  0.5254560000000  0.5791340000000  0.4493190000000 1.0
C      1  0.5271620000000  0.5273590000000  0.4128240000000 1.0
C      1  0.5260780000000  0.4633460000000  0.4197120000000 1.0
C      1  0.5261770000000  0.4152360000000  0.4586610000000 1.0
C      1  0.5252580000000  0.4077030000000  0.5215340000000 1.0
C      1  0.5275850000000  0.4434240000000  0.5734510000000 1.0
C      1  0.5273910000000  0.5058770000000  0.5883720000000 1.0
C      1  0.5273170000000  0.5643800000000  0.5671200000000 1.0
C      1  0.3963160000000  0.4603860000000  0.4819730000000 1.0
C      1  0.3911140000000  0.4574220000000  0.5120320000000 1.0
C      1  0.3971020000000  0.4757520000000  0.5359380000000 1.0
C      1  0.3916370000000  0.5045730000000  0.5440090000000 1.0
C      1  0.3967890000000  0.5312230000000  0.5294200000000 1.0
C      1  0.3914280000000  0.5457460000000  0.5028590000000 1.0
C      1  0.3915030000000  0.5372570000000  0.4732710000000 1.0
C      1  0.3974470000000  0.5110380000000  0.4579880000000 1.0
C      1  0.3913680000000  0.4810800000000  0.4597300000000 1.0
C      1  0.4395660000000  0.5593970000000  0.4161410000000 1.0
C      1  0.4403260000000  0.4934610000000  0.3975730000000 1.0
C      1  0.4384280000000  0.4288650000000  0.4268060000000 1.0
C      1  0.4386250000000  0.3977920000000  0.4890380000000 1.0
C      1  0.4389210000000  0.4162290000000  0.5576830000000 1.0
C      1  0.4411500000000  0.4724040000000  0.5975400000000 1.0
C      1  0.4402840000000  0.5420720000000  0.5907840000000 1.0
C      1  0.4395930000000  0.5913780000000  0.5459360000000 1.0
C      1  0.4376090000000  0.6008380000000  0.4748520000000 1.0
C      1  0.5608350000000  0.4908840000000  0.5531120000000 1.0
C      1  0.5647750000000  0.5326140000000  0.5510790000000 1.0
C      1  0.5615480000000  0.5596170000000  0.5190970000000 1.0
C      1  0.5629830000000  0.5605430000000  0.4771640000000 1.0
C      1  0.5630580000000  0.5309240000000  0.4474910000000 1.0
C      1  0.5551060000000  0.4899040000000  0.4505800000000 1.0
C      1  0.5631760000000  0.4505440000000  0.4624630000000 1.0
C      1  0.5629090000000  0.4347430000000  0.5013140000000 1.0
C      1  0.5642840000000  0.4512050000000  0.5399010000000 1.0
C      1  0.5814810000000  0.4937420000000  0.5321430000000 1.0
C      1  0.5867880000000  0.5231270000000  0.5336860000000 1.0
C      1  0.5833160000000  0.5423390000000  0.5116290000000 1.0
C      1  0.5860850000000  0.5422750000000  0.4821140000000 1.0
C      1  0.5840220000000  0.5181010000000  0.4646930000000 1.0
C      1  0.5706020000000  0.4946890000000  0.4755900000000 1.0
C      1  0.5839000000000  0.4688010000000  0.4740290000000 1.0
C      1  0.5856710000000  0.4531910000000  0.4993180000000 1.0
C      1  0.5865830000000  0.4647820000000  0.5263730000000 1.0
C      1  0.6200940000000  0.4498840000000  0.4999390000000 1.0
C      1  0.6196150000000  0.4617170000000  0.5305070000000 1.0
C      1  0.6148970000000  0.4926230000000  0.5399490000000 1.0
C      1  0.6208180000000  0.5250120000000  0.5377570000000 1.0
C      1  0.6153200000000  0.5468280000000  0.5140000000000 1.0
C      1  0.6213840000000  0.5447310000000  0.4821790000000 1.0
C      1  0.6154030000000  0.5181830000000  0.4641480000000 1.0
C      1  0.6292380000000  0.4927890000000  0.4675170000000 1.0
C      1  0.6151420000000  0.4679960000000  0.4733220000000 1.0
C      1  0.4522210000000  0.5244860000000  0.5267020000000 1.0
C      1  0.4405010000000  0.5399410000000  0.5059050000000 1.0
C      1  0.4405540000000  0.5358830000000  0.4782850000000 1.0
C      1  0.4496160000000  0.5137110000000  0.4632990000000 1.0
C      1  0.4417170000000  0.4863900000000  0.4629320000000 1.0
C      1  0.4498180000000  0.4655510000000  0.4801890000000 1.0
C      1  0.4427700000000  0.4606320000000  0.5069350000000 1.0
C      1  0.4518210000000  0.4743910000000  0.5295460000000 1.0
C      1  0.4443430000000  0.4998960000000  0.5382790000000 1.0
C      1  0.5436870000000  0.3938360000000  0.5031980000000 1.0
C      1  0.5453230000000  0.4204150000000  0.5683180000000 1.0
C      1  0.5465290000000  0.4853730000000  0.5966520000000 1.0
C      1  0.5466600000000  0.5549450000000  0.5874520000000 1.0
C      1  0.5438360000000  0.5994590000000  0.5323560000000 1.0
C      1  0.5434840000000  0.5987540000000  0.4621980000000 1.0
C      1  0.5457950000000  0.5503360000000  0.4106030000000 1.0
C      1  0.5462190000000  0.4800130000000  0.4067030000000 1.0
C      1  0.5458160000000  0.4172070000000  0.4365210000000 1.0
C      1  0.4546930000000  0.5480620000000  0.3937330000000 1.0
C      1  0.4550630000000  0.4701920000000  0.3870650000000 1.0
C      1  0.4530910000000  0.4043010000000  0.4332920000000 1.0
C      1  0.4528840000000  0.3837700000000  0.5106100000000 1.0
C      1  0.4539550000000  0.4194250000000  0.5826920000000 1.0
C      1  0.4558080000000  0.4904940000000  0.6154440000000 1.0
C      1  0.4548620000000  0.5671360000000  0.5941010000000 1.0
C      1  0.4535090000000  0.6128680000000  0.5315230000000 1.0
C      1  0.4527140000000  0.6060320000000  0.4500500000000 1.0
C      1  0.5290750000000  0.5019740000000  0.3966780000000 1.0
C      1  0.5260490000000  0.4330620000000  0.4195360000000 1.0
C      1  0.5255880000000  0.3929910000000  0.4795740000000 1.0
C      1  0.5256020000000  0.4049580000000  0.5518150000000 1.0
C      1  0.5290550000000  0.4615440000000  0.5976800000000 1.0
C      1  0.5272450000000  0.5345080000000  0.5984680000000 1.0
C      1  0.5265380000000  0.5925170000000  0.5553510000000 1.0
C      1  0.5245570000000  0.6074300000000  0.4835580000000 1.0
C      1  0.5264760000000  0.5711980000000  0.4199350000000 1.0
C      1  0.5843130000000  0.5733660000000  0.4405280000000 1.0
C      1  0.5845310000000  0.5137520000000  0.4157520000000 1.0
C      1  0.5850790000000  0.4561620000000  0.4270730000000 1.0
C      1  0.5841450000000  0.4089330000000  0.4707070000000 1.0
C      1  0.5835760000000  0.4089050000000  0.5326460000000 1.0
C      1  0.5850290000000  0.4553090000000  0.5768620000000 1.0
C      1  0.5858990000000  0.5153590000000  0.5858720000000 1.0
C      1  0.5843830000000  0.5740520000000  0.5568640000000 1.0
C      1  0.5826620000000  0.5960590000000  0.4993140000000 1.0
C      1  0.4875880000000  0.5416680000000  0.5119430000000 1.0
C      1  0.4893270000000  0.5403150000000  0.4825210000000 1.0
C      1  0.4912360000000  0.5191430000000  0.4620250000000 1.0
C      1  0.4838000000000  0.4895470000000  0.4607850000000 1.0
C      1  0.4914360000000  0.4642710000000  0.4747940000000 1.0
C      1  0.4872530000000  0.4561150000000  0.5027120000000 1.0
C      1  0.4933410000000  0.4681660000000  0.5287670000000 1.0
C      1  0.4868080000000  0.4952700000000  0.5397400000000 1.0
C      1  0.4934440000000  0.5239000000000  0.5346420000000 1.0
C      1  0.5696890000000  0.5862480000000  0.5288000000000 1.0
C      1  0.5700510000000  0.5879490000000  0.4689820000000 1.0
C      1  0.5720570000000  0.5466060000000  0.4240280000000 1.0
C      1  0.5698260000000  0.4855790000000  0.4239910000000 1.0
C      1  0.5720540000000  0.4280110000000  0.4454600000000 1.0
C      1  0.5701900000000  0.4062620000000  0.5017070000000 1.0
C      1  0.5714840000000  0.4283120000000  0.5572200000000 1.0
C      1  0.5711570000000  0.4854220000000  0.5804890000000 1.0
C      1  0.5726080000000  0.5472150000000  0.5756230000000 1.0
C      1  0.4847740000000  0.4957610000000  0.6098050000000 1.0
C      1  0.4839030000000  0.5677360000000  0.5875650000000 1.0
C      1  0.4822980000000  0.6089090000000  0.5244880000000 1.0
C      1  0.4817290000000  0.5988510000000  0.4486710000000 1.0
C      1  0.4837450000000  0.5421130000000  0.3970860000000 1.0
C      1  0.4838460000000  0.4663440000000  0.3947550000000 1.0
C      1  0.4821030000000  0.4056910000000  0.4401300000000 1.0
C      1  0.4819510000000  0.3895440000000  0.5147670000000 1.0
C      1  0.4831340000000  0.4255670000000  0.5818310000000 1.0
C      1  0.4552010000000  0.4193090000000  0.5334550000000 1.0
C      1  0.4587620000000  0.4608670000000  0.5769750000000 1.0
C      1  0.4565850000000  0.5191170000000  0.5833310000000 1.0
C      1  0.4577240000000  0.5684210000000  0.5515330000000 1.0
C      1  0.4545180000000  0.5869100000000  0.4950290000000 1.0
C      1  0.4557600000000  0.5645460000000  0.4400130000000 1.0
C      1  0.4580950000000  0.5105830000000  0.4138190000000 1.0
C      1  0.4551210000000  0.4529770000000  0.4269140000000 1.0
C      1  0.4565460000000  0.4163790000000  0.4745050000000 1.0
C      1  0.4969530000000  0.3878380000000  0.4877820000000 1.0
C      1  0.4971390000000  0.4070990000000  0.5616930000000 1.0
C      1  0.5007090000000  0.4691150000000  0.6066700000000 1.0
C      1  0.4987050000000  0.5444210000000  0.6010200000000 1.0
C      1  0.4978170000000  0.6001380000000  0.5497430000000 1.0
C      1  0.4960460000000  0.6091710000000  0.4739260000000 1.0
C      1  0.4981500000000  0.5661490000000  0.4101810000000 1.0
C      1  0.5008570000000  0.4920050000000  0.3892400000000 1.0
C      1  0.4975790000000  0.4223910000000  0.4193250000000 1.0
C      1  0.5018360000000  0.5676430000000  0.4720680000000 1.0
C      1  0.5027990000000  0.5330630000000  0.4355960000000 1.0
C      1  0.4993240000000  0.4837450000000  0.4313930000000 1.0
C      1  0.5027000000000  0.4412220000000  0.4564360000000 1.0
C      1  0.5015040000000  0.4266140000000  0.5032470000000 1.0
C      1  0.5042520000000  0.4464700000000  0.5490250000000 1.0
C      1  0.5019140000000  0.4912470000000  0.5690290000000 1.0
C      1  0.5046790000000  0.5394180000000  0.5597980000000 1.0
C      1  0.5014820000000  0.5697560000000  0.5209780000000 1.0
C      1  0.4131790000000  0.4774510000000  0.5852260000000 1.0
C      1  0.4132980000000  0.5384860000000  0.5774940000000 1.0
C      1  0.4119670000000  0.5801300000000  0.5381450000000 1.0
C      1  0.4106590000000  0.5855180000000  0.4764580000000 1.0
C      1  0.4129660000000  0.5488840000000  0.4269320000000 1.0
C      1  0.4122640000000  0.4929920000000  0.4111700000000 1.0
C      1  0.4118980000000  0.4374980000000  0.4390440000000 1.0
C      1  0.4112510000000  0.4119170000000  0.4919590000000 1.0
C      1  0.4125170000000  0.4298480000000  0.5513420000000 1.0
C      1  0.5251110000000  0.4902360000000  0.4536820000000 1.0
C      1  0.5324140000000  0.4579480000000  0.4683110000000 1.0
C      1  0.5318570000000  0.4459870000000  0.5011090000000 1.0
C      1  0.5341260000000  0.4591860000000  0.5329090000000 1.0
C      1  0.5298220000000  0.4924410000000  0.5461650000000 1.0
C      1  0.5344490000000  0.5277760000000  0.5426100000000 1.0
C      1  0.5311440000000  0.5500220000000  0.5155500000000 1.0
C      1  0.5320830000000  0.5499490000000  0.4808520000000 1.0
C      1  0.5321340000000  0.5258060000000  0.4553930000000 1.0
C      1  0.5550350000000  0.4994620000000  0.5000260000000 1.0
END
