TITL C-862506-1665-174 0.606824154729328 125000 -853.751877336429 0 0 153 (C1) n - 1
REM
REM in /home/nfs/bkarasulu/CARBON/AIRSS/Generating-Clusters/TERSOFF/Higher-Symm/FIRE-HFTN
REM
REM
REM
REM
REM
REM ./C.cell (b20cbc046b6831c77cfcea5457e17084)
REM AIRSS Version 0.9.1 bugfix July 2018 build 013d7b7c2542+ Fri, 06 Jul 2018 19:26:36 +0100
REM compiler GCC version 9.2.1 20190827 (Red Hat 9.2.1-1)
REM options -cpp -mtune=generic -march=x86-64 -g -O0 -fpre-include=/usr/include/finclude/math-vector-fortran.h
REM seed -554323007 -1221409246 541160366 1009838706 -2067910475 -1220746359 1374474685 -382145128 846771948 -242192148 36527009 -1198504038 1494680633 690484621 1116371330 -1838344368 -2062062933 1415429797 956007300 1877964191 -1962897744 491113632 1221899206 -1009111405 583367007 1106945625 1673338398 -1833018117 1825081767 589637935 1167955346 -2033101299 -373721772
REM
CELL 1.54180   50.00000   50.00000   50.00000   90.00000   90.00000   90.00000
LATT -1
SFAC C  
C      1  0.5750230000000  0.5670900000000  0.5020860000000 1.0
C      1  0.4238560000000  0.4348680000000  0.5032630000000 1.0
C      1  0.5758850000000  0.4349650000000  0.5037260000000 1.0
C      1  0.4248130000000  0.5671710000000  0.5014730000000 1.0
C      1  0.5449720000000  0.5673490000000  0.5022880000000 1.0
C      1  0.4546870000000  0.4339440000000  0.5043690000000 1.0
C      1  0.5450690000000  0.4340710000000  0.5043070000000 1.0
C      1  0.4548740000000  0.5674180000000  0.5020050000000 1.0
C      1  0.4046070000000  0.4812380000000  0.4910780000000 1.0
C      1  0.6093470000000  0.5292550000000  0.4922180000000 1.0
C      1  0.3907000000000  0.5292180000000  0.4913320000000 1.0
C      1  0.5953340000000  0.4813190000000  0.4918090000000 1.0
C      1  0.4618890000000  0.5617280000000  0.4259340000000 1.0
C      1  0.5379870000000  0.4347040000000  0.4268970000000 1.0
C      1  0.4624580000000  0.4345930000000  0.4267780000000 1.0
C      1  0.5386390000000  0.5617320000000  0.4262680000000 1.0
C      1  0.4741820000000  0.4307110000000  0.5945930000000 1.0
C      1  0.5249990000000  0.5696750000000  0.5917250000000 1.0
C      1  0.4742340000000  0.5696780000000  0.5915330000000 1.0
C      1  0.5249200000000  0.4307570000000  0.5947310000000 1.0
C      1  0.5363760000000  0.4654940000000  0.4242340000000 1.0
C      1  0.4647920000000  0.5312660000000  0.4265930000000 1.0
C      1  0.5357730000000  0.5312520000000  0.4268630000000 1.0
C      1  0.4644480000000  0.4653150000000  0.4240590000000 1.0
C      1  0.4766600000000  0.4811920000000  0.5898920000000 1.0
C      1  0.5221640000000  0.5232260000000  0.5893020000000 1.0
C      1  0.4769980000000  0.5231500000000  0.5891220000000 1.0
C      1  0.5226800000000  0.4812700000000  0.5900420000000 1.0
C      1  0.4731830000000  0.4097610000000  0.5081930000000 1.0
C      1  0.5265220000000  0.5916370000000  0.5049760000000 1.0
C      1  0.4733460000000  0.5916970000000  0.5047930000000 1.0
C      1  0.5265340000000  0.4100030000000  0.5083870000000 1.0
C      1  0.5319710000000  0.4606090000000  0.5106180000000 1.0
C      1  0.4678970000000  0.5413410000000  0.5100710000000 1.0
C      1  0.5318770000000  0.5412890000000  0.5102600000000 1.0
C      1  0.4678290000000  0.4604650000000  0.5105950000000 1.0
C      1  0.5725430000000  0.4445480000000  0.5342900000000 1.0
C      1  0.4242070000000  0.5607580000000  0.5314100000000 1.0
C      1  0.5754780000000  0.5607400000000  0.5320010000000 1.0
C      1  0.4267590000000  0.4444250000000  0.5339230000000 1.0
C      1  0.4300480000000  0.4816120000000  0.5851100000000 1.0
C      1  0.5659400000000  0.5261270000000  0.5825610000000 1.0
C      1  0.4336480000000  0.5259940000000  0.5818680000000 1.0
C      1  0.5689690000000  0.4817000000000  0.5855470000000 1.0
C      1  0.4833920000000  0.4631340000000  0.5646820000000 1.0
C      1  0.5157900000000  0.5400050000000  0.5634610000000 1.0
C      1  0.4835560000000  0.5399650000000  0.5633510000000 1.0
C      1  0.5161950000000  0.4631950000000  0.5647460000000 1.0
C      1  0.4215270000000  0.4534620000000  0.4542660000000 1.0
C      1  0.5788530000000  0.5447830000000  0.4553710000000 1.0
C      1  0.4213900000000  0.5448610000000  0.4546920000000 1.0
C      1  0.5787740000000  0.4536160000000  0.4548590000000 1.0
C      1  0.4764150000000  0.4766650000000  0.5366950000000 1.0
C      1  0.5230040000000  0.5256830000000  0.5361090000000 1.0
C      1  0.4766070000000  0.5256730000000  0.5359550000000 1.0
C      1  0.5232390000000  0.4767680000000  0.5367760000000 1.0
C      1  0.4138690000000  0.4877050000000  0.5617010000000 1.0
C      1  0.5860020000000  0.5192110000000  0.5626910000000 1.0
C      1  0.4135070000000  0.5192080000000  0.5620260000000 1.0
C      1  0.5853270000000  0.4877130000000  0.5622440000000 1.0
C      1  0.5543650000000  0.5292230000000  0.4525160000000 1.0
C      1  0.4464440000000  0.4682820000000  0.4502360000000 1.0
C      1  0.5538790000000  0.4683490000000  0.4506280000000 1.0
C      1  0.4458690000000  0.5292130000000  0.4520420000000 1.0
C      1  0.5262880000000  0.5850390000000  0.5354840000000 1.0
C      1  0.4734250000000  0.4165640000000  0.5382620000000 1.0
C      1  0.5260370000000  0.4166070000000  0.5384150000000 1.0
C      1  0.4733660000000  0.5851010000000  0.5353110000000 1.0
C      1  0.5929800000000  0.5372470000000  0.5401990000000 1.0
C      1  0.4200870000000  0.4738600000000  0.5371220000000 1.0
C      1  0.5791660000000  0.4739720000000  0.5375980000000 1.0
C      1  0.4066820000000  0.5372250000000  0.5394620000000 1.0
C      1  0.4496310000000  0.5666080000000  0.5767890000000 1.0
C      1  0.5493220000000  0.4345900000000  0.5798720000000 1.0
C      1  0.4498510000000  0.4345190000000  0.5796100000000 1.0
C      1  0.5497110000000  0.5665960000000  0.5771690000000 1.0
C      1  0.4587340000000  0.4739890000000  0.4782660000000 1.0
C      1  0.5405220000000  0.5260660000000  0.4795960000000 1.0
C      1  0.4592970000000  0.5261160000000  0.4793730000000 1.0
C      1  0.5410560000000  0.4741160000000  0.4783150000000 1.0
C      1  0.5233450000000  0.4483810000000  0.4714140000000 1.0
C      1  0.4767800000000  0.5510420000000  0.4702280000000 1.0
C      1  0.5232330000000  0.5510150000000  0.4703720000000 1.0
C      1  0.4765000000000  0.4480590000000  0.4714610000000 1.0
C      1  0.6136440000000  0.5297010000000  0.5210820000000 1.0
C      1  0.4191520000000  0.4891330000000  0.5137170000000 1.0
C      1  0.5804530000000  0.4892500000000  0.5142160000000 1.0
C      1  0.3861900000000  0.5296280000000  0.5201710000000 1.0
C      1  0.5907480000000  0.5500740000000  0.4817260000000 1.0
C      1  0.4101060000000  0.4534710000000  0.4813540000000 1.0
C      1  0.5899440000000  0.4535580000000  0.4820260000000 1.0
C      1  0.4092870000000  0.5501170000000  0.4809740000000 1.0
C      1  0.5516350000000  0.5714290000000  0.5485880000000 1.0
C      1  0.4486750000000  0.4308190000000  0.5508020000000 1.0
C      1  0.5506360000000  0.4308800000000  0.5510740000000 1.0
C      1  0.4479210000000  0.5714640000000  0.5481960000000 1.0
C      1  0.5743780000000  0.5129230000000  0.3930450000000 1.0
C      1  0.4237560000000  0.4811360000000  0.3913680000000 1.0
C      1  0.5767880000000  0.4813870000000  0.3913320000000 1.0
C      1  0.4262300000000  0.5126840000000  0.3927660000000 1.0
C      1  0.4538360000000  0.4825740000000  0.4025010000000 1.0
C      1  0.5444780000000  0.5153390000000  0.4033030000000 1.0
C      1  0.4561620000000  0.5152370000000  0.4030300000000 1.0
C      1  0.5467570000000  0.4827800000000  0.4026460000000 1.0
C      1  0.5284810000000  0.5726060000000  0.4512010000000 1.0
C      1  0.4724910000000  0.4259260000000  0.4527260000000 1.0
C      1  0.5276450000000  0.4261840000000  0.4528080000000 1.0
C      1  0.4717570000000  0.5726240000000  0.4509730000000 1.0
C      1  0.4999420000000  0.4470370000000  0.4851970000000 1.0
C      1  0.4999650000000  0.5533760000000  0.4839310000000 1.0
C      1  0.4999250000000  0.4507670000000  0.5134950000000 1.0
C      1  0.4998780000000  0.5515970000000  0.5125290000000 1.0
C      1  0.5003230000000  0.5514810000000  0.4125230000000 1.0
C      1  0.5002530000000  0.4330670000000  0.4085520000000 1.0
C      1  0.4995910000000  0.4243590000000  0.5819670000000 1.0
C      1  0.4996660000000  0.5759830000000  0.5788590000000 1.0
C      1  0.5009900000000  0.5428630000000  0.3851590000000 1.0
C      1  0.5000560000000  0.4317230000000  0.3795190000000 1.0
C      1  0.5004930000000  0.4613010000000  0.4232040000000 1.0
C      1  0.5002910000000  0.5278670000000  0.4335510000000 1.0
C      1  0.4510980000000  0.5026710000000  0.5929560000000 1.0
C      1  0.5481360000000  0.5030100000000  0.5934000000000 1.0
C      1  0.6258170000000  0.4981240000000  0.4542830000000 1.0
C      1  0.3747180000000  0.4981560000000  0.4531220000000 1.0
C      1  0.5002420000000  0.5799420000000  0.4209920000000 1.0
C      1  0.5002340000000  0.4084700000000  0.4246870000000 1.0
C      1  0.4997750000000  0.5839430000000  0.5502510000000 1.0
C      1  0.4996810000000  0.4170710000000  0.5531990000000 1.0
C      1  0.4999540000000  0.4056590000000  0.4922560000000 1.0
C      1  0.4999940000000  0.5950890000000  0.4885450000000 1.0
C      1  0.5001160000000  0.4081460000000  0.4563170000000 1.0
C      1  0.5001150000000  0.5902470000000  0.4527850000000 1.0
C      1  0.4710850000000  0.5002290000000  0.4842390000000 1.0
C      1  0.5284990000000  0.5002410000000  0.4839580000000 1.0
C      1  0.6106470000000  0.5025580000000  0.4785790000000 1.0
C      1  0.3895390000000  0.5025300000000  0.4776430000000 1.0
C      1  0.4943430000000  0.5128310000000  0.3269380000000 1.0
C      1  0.4998130000000  0.5005810000000  0.5285450000000 1.0
C      1  0.4996770000000  0.4811920000000  0.4601640000000 1.0
C      1  0.4997290000000  0.5014600000000  0.5612770000000 1.0
C      1  0.5136340000000  0.4830500000000  0.6780750000000 1.0
C      1  0.4991370000000  0.4957960000000  0.4303060000000 1.0
C      1  0.4995690000000  0.5023010000000  0.6032480000000 1.0
C      1  0.4988850000000  0.4826980000000  0.7272060000000 1.0
C      1  0.4939400000000  0.4941160000000  0.3978390000000 1.0
C      1  0.4955520000000  0.4754870000000  0.6993730000000 1.0
C      1  0.4961620000000  0.4979850000000  0.3021580000000 1.0
C      1  0.5014610000000  0.5147110000000  0.3778220000000 1.0
C      1  0.5077260000000  0.4808270000000  0.6498270000000 1.0
C      1  0.5000240000000  0.5098510000000  0.2760420000000 1.0
C      1  0.4998270000000  0.4980040000000  0.4925880000000 1.0
C      1  0.5092680000000  0.5067340000000  0.3509770000000 1.0
C      1  0.4994580000000  0.5028060000000  0.6329050000000 1.0
END
