TITL C-862134-6730-1221 0.309270092974729 125000 -675.087319548717 0 0 122 (C1) n - 1
REM
REM in /home/nfs/bkarasulu/CARBON/AIRSS/Generating-Clusters/TERSOFF/Higher-Symm/FIRE-HFTN
REM
REM
REM
REM
REM
REM ./C.cell (b20cbc046b6831c77cfcea5457e17084)
REM AIRSS Version 0.9.1 bugfix July 2018 build 013d7b7c2542+ Fri, 06 Jul 2018 19:26:36 +0100
REM compiler GCC version 9.2.1 20190827 (Red Hat 9.2.1-1)
REM options -cpp -mtune=generic -march=x86-64 -g -O0 -fpre-include=/usr/include/finclude/math-vector-fortran.h
REM seed 1635534316 250302362 -162661731 1108048312 1397694750 762051081 -1700177328 -973352380 -1239134316 581395932 -908737218 -1658709236 1576276774 997869386 -916462200 1129958863 -1965391111 -836442023 360839915 -1813751097 2139006485 2119685406 -331397538 83713256 -662165906 726546595 -217636511 -1460673682 -1906503324 -918782899 106225905 -670696565 1442800639
REM
CELL 1.54180   50.00000   50.00000   50.00000   90.00000   90.00000   90.00000
LATT -1
SFAC C  
C      1  0.5784150000000  0.5499410000000  0.4872260000000 1.0
C      1  0.4212970000000  0.5495710000000  0.4869050000000 1.0
C      1  0.4853330000000  0.5580390000000  0.4408030000000 1.0
C      1  0.5148300000000  0.5592050000000  0.4410640000000 1.0
C      1  0.4676780000000  0.5523470000000  0.4635440000000 1.0
C      1  0.5325920000000  0.5528360000000  0.4635100000000 1.0
C      1  0.4820000000000  0.5243570000000  0.3996710000000 1.0
C      1  0.5159690000000  0.5247440000000  0.3992780000000 1.0
C      1  0.4493290000000  0.5930980000000  0.4778040000000 1.0
C      1  0.5506680000000  0.5933710000000  0.4788260000000 1.0
C      1  0.5866570000000  0.5224500000000  0.4799000000000 1.0
C      1  0.4123830000000  0.5219050000000  0.4799580000000 1.0
C      1  0.4836420000000  0.4401820000000  0.5817610000000 1.0
C      1  0.5196800000000  0.4384770000000  0.5822430000000 1.0
C      1  0.5452100000000  0.4175250000000  0.4729670000000 1.0
C      1  0.4546160000000  0.4156820000000  0.4736010000000 1.0
C      1  0.4839430000000  0.4569630000000  0.4389970000000 1.0
C      1  0.5159340000000  0.4575380000000  0.4386520000000 1.0
C      1  0.4887590000000  0.4061710000000  0.5080460000000 1.0
C      1  0.5201640000000  0.4017070000000  0.5148100000000 1.0
C      1  0.5529860000000  0.4797450000000  0.5693910000000 1.0
C      1  0.4482750000000  0.4810710000000  0.5699940000000 1.0
C      1  0.6045590000000  0.4771360000000  0.5654320000000 1.0
C      1  0.3967810000000  0.4776900000000  0.5659000000000 1.0
C      1  0.4407200000000  0.5688610000000  0.5316340000000 1.0
C      1  0.5591510000000  0.5679880000000  0.5324620000000 1.0
C      1  0.5625710000000  0.5550710000000  0.5620400000000 1.0
C      1  0.4377380000000  0.5562560000000  0.5613820000000 1.0
C      1  0.5302010000000  0.4803180000000  0.3736230000000 1.0
C      1  0.4682730000000  0.4797040000000  0.3742320000000 1.0
C      1  0.5466430000000  0.4505060000000  0.5688490000000 1.0
C      1  0.4542930000000  0.4519130000000  0.5713390000000 1.0
C      1  0.5311430000000  0.5584310000000  0.5660860000000 1.0
C      1  0.4689270000000  0.5592700000000  0.5657840000000 1.0
C      1  0.4207140000000  0.5097780000000  0.5333500000000 1.0
C      1  0.5800910000000  0.5092570000000  0.5332850000000 1.0
C      1  0.4374320000000  0.4519390000000  0.5093550000000 1.0
C      1  0.5656270000000  0.4535230000000  0.5065950000000 1.0
C      1  0.5157960000000  0.4577200000000  0.5215620000000 1.0
C      1  0.4834710000000  0.4604330000000  0.5109180000000 1.0
C      1  0.5155970000000  0.5757690000000  0.5473940000000 1.0
C      1  0.4849280000000  0.5759860000000  0.5469730000000 1.0
C      1  0.5741750000000  0.5075850000000  0.4532690000000 1.0
C      1  0.4251170000000  0.5058450000000  0.4546320000000 1.0
C      1  0.4668060000000  0.4674490000000  0.4640060000000 1.0
C      1  0.5331820000000  0.4687510000000  0.4632000000000 1.0
C      1  0.5799140000000  0.4702640000000  0.4864220000000 1.0
C      1  0.4211760000000  0.4693020000000  0.4900980000000 1.0
C      1  0.5732720000000  0.5700990000000  0.4422550000000 1.0
C      1  0.4270860000000  0.5688260000000  0.4415200000000 1.0
C      1  0.4754850000000  0.4125870000000  0.5703500000000 1.0
C      1  0.5212980000000  0.4101580000000  0.5715280000000 1.0
C      1  0.4512110000000  0.5092020000000  0.4896040000000 1.0
C      1  0.5484360000000  0.5087290000000  0.4905640000000 1.0
C      1  0.4161870000000  0.5584290000000  0.5152630000000 1.0
C      1  0.5836730000000  0.5583160000000  0.5157190000000 1.0
C      1  0.5547170000000  0.4728910000000  0.5259120000000 1.0
C      1  0.4470390000000  0.4742050000000  0.5266330000000 1.0
C      1  0.4140730000000  0.5380140000000  0.5413230000000 1.0
C      1  0.5864000000000  0.5374860000000  0.5415330000000 1.0
C      1  0.5593900000000  0.5089300000000  0.4258850000000 1.0
C      1  0.4393380000000  0.5077070000000  0.4270380000000 1.0
C      1  0.4827810000000  0.5107660000000  0.4958520000000 1.0
C      1  0.5170820000000  0.5095830000000  0.4965280000000 1.0
C      1  0.5357660000000  0.3960110000000  0.4895950000000 1.0
C      1  0.4712240000000  0.3958690000000  0.4865110000000 1.0
C      1  0.5534860000000  0.5145910000000  0.5211020000000 1.0
C      1  0.4468980000000  0.5156980000000  0.5201760000000 1.0
C      1  0.5441470000000  0.4698280000000  0.3965310000000 1.0
C      1  0.4548630000000  0.4689420000000  0.3973430000000 1.0
C      1  0.5150480000000  0.5178360000000  0.4483090000000 1.0
C      1  0.4842410000000  0.5167800000000  0.4485650000000 1.0
C      1  0.4999980000000  0.4393690000000  0.5431890000000 1.0
C      1  0.4697480000000  0.4397150000000  0.5342760000000 1.0
C      1  0.5295060000000  0.4979980000000  0.5697040000000 1.0
C      1  0.4716970000000  0.4989790000000  0.5693400000000 1.0
C      1  0.4216880000000  0.4894580000000  0.5564400000000 1.0
C      1  0.5794990000000  0.4886390000000  0.5560800000000 1.0
C      1  0.4837460000000  0.4929120000000  0.4686880000000 1.0
C      1  0.5159520000000  0.4935980000000  0.4687060000000 1.0
C      1  0.5463410000000  0.4455110000000  0.4815150000000 1.0
C      1  0.4536200000000  0.4438130000000  0.4823280000000 1.0
C      1  0.5417560000000  0.5425140000000  0.5223800000000 1.0
C      1  0.4582030000000  0.5435620000000  0.5213460000000 1.0
C      1  0.5325720000000  0.4305100000000  0.5182210000000 1.0
C      1  0.4920170000000  0.4341170000000  0.4962480000000 1.0
C      1  0.5657480000000  0.4312780000000  0.5549460000000 1.0
C      1  0.4352590000000  0.4324140000000  0.5583450000000 1.0
C      1  0.4674900000000  0.5189970000000  0.4253550000000 1.0
C      1  0.5311810000000  0.5199300000000  0.4246830000000 1.0
C      1  0.5303970000000  0.4505430000000  0.4139160000000 1.0
C      1  0.4691950000000  0.4498130000000  0.4144570000000 1.0
C      1  0.5086160000000  0.4080360000000  0.5449530000000 1.0
C      1  0.4742150000000  0.4065020000000  0.5390450000000 1.0
C      1  0.4835830000000  0.5770010000000  0.5138090000000 1.0
C      1  0.5162230000000  0.5764700000000  0.5141960000000 1.0
C      1  0.4865840000000  0.4982230000000  0.5454800000000 1.0
C      1  0.5147610000000  0.4978760000000  0.5457590000000 1.0
C      1  0.5741930000000  0.4323150000000  0.5260840000000 1.0
C      1  0.4288990000000  0.4313820000000  0.5291920000000 1.0
C      1  0.4834800000000  0.5040650000000  0.3748820000000 1.0
C      1  0.5145350000000  0.5043710000000  0.3745070000000 1.0
C      1  0.5177000000000  0.5129830000000  0.5921930000000 1.0
C      1  0.4836700000000  0.5139260000000  0.5917130000000 1.0
C      1  0.4340080000000  0.4855270000000  0.4088890000000 1.0
C      1  0.5648460000000  0.4868090000000  0.4077340000000 1.0
C      1  0.5937980000000  0.5054300000000  0.5046790000000 1.0
C      1  0.4060330000000  0.5053900000000  0.5053380000000 1.0
C      1  0.4725960000000  0.4914670000000  0.5210480000000 1.0
C      1  0.5285880000000  0.4890480000000  0.5219050000000 1.0
C      1  0.4646190000000  0.5981120000000  0.5023040000000 1.0
C      1  0.5353900000000  0.5977340000000  0.5032800000000 1.0
C      1  0.4391860000000  0.4862390000000  0.4733470000000 1.0
C      1  0.5607740000000  0.4877210000000  0.4719830000000 1.0
C      1  0.5594000000000  0.5662380000000  0.4685460000000 1.0
C      1  0.4406530000000  0.5655440000000  0.4680600000000 1.0
C      1  0.5159150000000  0.5444860000000  0.5875570000000 1.0
C      1  0.4837030000000  0.5455680000000  0.5877170000000 1.0
C      1  0.5510690000000  0.5953390000000  0.5280830000000 1.0
C      1  0.4485980000000  0.5961900000000  0.5268930000000 1.0
C      1  0.5172240000000  0.5450620000000  0.5034890000000 1.0
C      1  0.4830050000000  0.5461300000000  0.5027570000000 1.0
END
