TITL C-862133-5440-151 6.54829491211059 125000 -908.499792474843 0 0 157 (C1) n - 1
REM
REM in /home/nfs/bkarasulu/CARBON/AIRSS/Generating-Clusters/TERSOFF/Higher-Symm/FIRE-HFTN
REM
REM
REM
REM
REM
REM ./C.cell (b20cbc046b6831c77cfcea5457e17084)
REM AIRSS Version 0.9.1 bugfix July 2018 build 013d7b7c2542+ Fri, 06 Jul 2018 19:26:36 +0100
REM compiler GCC version 9.2.1 20190827 (Red Hat 9.2.1-1)
REM options -cpp -mtune=generic -march=x86-64 -g -O0 -fpre-include=/usr/include/finclude/math-vector-fortran.h
REM seed -396290311 343801693 875584083 1546542977 -1385125622 -1100000241 -1347741937 -1023139894 -578299448 -754700783 -2074274931 -1421711631 -1036091763 1424783995 -306086079 789453395 -92820023 -1073380209 750303315 1923617380 912832486 -412671844 181681458 -1492060011 134781423 -1813423821 -795653105 -1144873609 1800780253 -1551968837 729558357 -1335986306 1747680831
REM
CELL 1.54180   50.00000   50.00000   50.00000   90.00000   90.00000   90.00000
LATT -1
SFAC C  
C      1  0.5967570000000  0.5690440000000  0.4453300000000 1.0
C      1  0.5920380000000  0.5724140000000  0.5502180000000 1.0
C      1  0.5330510000000  0.6207770000000  0.5258020000000 1.0
C      1  0.5563100000000  0.6141990000000  0.4810440000000 1.0
C      1  0.5294930000000  0.4647260000000  0.6362540000000 1.0
C      1  0.5305600000000  0.4656270000000  0.3652240000000 1.0
C      1  0.5408100000000  0.4697170000000  0.4516900000000 1.0
C      1  0.5415980000000  0.4700850000000  0.5474370000000 1.0
C      1  0.5039750000000  0.4542160000000  0.3661050000000 1.0
C      1  0.5027760000000  0.4537030000000  0.6346950000000 1.0
C      1  0.5251060000000  0.5202230000000  0.5270030000000 1.0
C      1  0.5257550000000  0.5207910000000  0.4731280000000 1.0
C      1  0.5149490000000  0.4434810000000  0.5155730000000 1.0
C      1  0.5147820000000  0.4435170000000  0.4840250000000 1.0
C      1  0.4498100000000  0.5263260000000  0.4401070000000 1.0
C      1  0.4490880000000  0.5262860000000  0.5599520000000 1.0
C      1  0.3949130000000  0.4675830000000  0.4348180000000 1.0
C      1  0.3940260000000  0.4676290000000  0.5647520000000 1.0
C      1  0.5941460000000  0.4845500000000  0.4666700000000 1.0
C      1  0.5944370000000  0.4858410000000  0.5305310000000 1.0
C      1  0.5534210000000  0.4950980000000  0.4432930000000 1.0
C      1  0.5543110000000  0.4957000000000  0.5553170000000 1.0
C      1  0.5781060000000  0.5109020000000  0.4829890000000 1.0
C      1  0.5779940000000  0.5116110000000  0.5143550000000 1.0
C      1  0.5896460000000  0.5242260000000  0.4279100000000 1.0
C      1  0.5896470000000  0.5270220000000  0.5683710000000 1.0
C      1  0.5093430000000  0.4228140000000  0.4306150000000 1.0
C      1  0.5100170000000  0.4231930000000  0.5689600000000 1.0
C      1  0.5450280000000  0.5876980000000  0.5621080000000 1.0
C      1  0.5485440000000  0.5846570000000  0.4410330000000 1.0
C      1  0.5858450000000  0.4563010000000  0.5296260000000 1.0
C      1  0.5853680000000  0.4553890000000  0.4683500000000 1.0
C      1  0.4818480000000  0.5042210000000  0.4615230000000 1.0
C      1  0.4815890000000  0.5035940000000  0.5395340000000 1.0
C      1  0.4706730000000  0.5823920000000  0.4655930000000 1.0
C      1  0.4712210000000  0.5816000000000  0.5336260000000 1.0
C      1  0.5105510000000  0.5476710000000  0.5235350000000 1.0
C      1  0.5112130000000  0.5491500000000  0.4770340000000 1.0
C      1  0.6195740000000  0.5960680000000  0.5135580000000 1.0
C      1  0.6227820000000  0.5845510000000  0.4870330000000 1.0
C      1  0.5029600000000  0.3956660000000  0.5269970000000 1.0
C      1  0.5024620000000  0.3955440000000  0.4726720000000 1.0
C      1  0.5215560000000  0.5406110000000  0.4363500000000 1.0
C      1  0.5204040000000  0.5387830000000  0.5651590000000 1.0
C      1  0.5166590000000  0.5292150000000  0.3940260000000 1.0
C      1  0.5153320000000  0.5313260000000  0.6061780000000 1.0
C      1  0.6195370000000  0.4892610000000  0.4836680000000 1.0
C      1  0.6196410000000  0.4899130000000  0.5131970000000 1.0
C      1  0.6007920000000  0.4374830000000  0.5134870000000 1.0
C      1  0.6002400000000  0.4367980000000  0.4847870000000 1.0
C      1  0.5169310000000  0.3738900000000  0.4854500000000 1.0
C      1  0.5172410000000  0.3739780000000  0.5140680000000 1.0
C      1  0.4062030000000  0.5102700000000  0.5510070000000 1.0
C      1  0.4068010000000  0.5101850000000  0.4487420000000 1.0
C      1  0.4810250000000  0.5464730000000  0.4847130000000 1.0
C      1  0.4809730000000  0.5454080000000  0.5147030000000 1.0
C      1  0.5190470000000  0.4955620000000  0.4864350000000 1.0
C      1  0.5184670000000  0.4954750000000  0.5133980000000 1.0
C      1  0.5475940000000  0.4213500000000  0.4611280000000 1.0
C      1  0.5483870000000  0.4217970000000  0.5378720000000 1.0
C      1  0.5381950000000  0.5341050000000  0.4141540000000 1.0
C      1  0.5389220000000  0.5330750000000  0.5866990000000 1.0
C      1  0.4335620000000  0.4495030000000  0.5796320000000 1.0
C      1  0.4342970000000  0.4495840000000  0.4201310000000 1.0
C      1  0.4727030000000  0.5380770000000  0.5716440000000 1.0
C      1  0.4734950000000  0.5381600000000  0.4282250000000 1.0
C      1  0.4373940000000  0.4731430000000  0.4666170000000 1.0
C      1  0.4368410000000  0.4731170000000  0.5336650000000 1.0
C      1  0.5171380000000  0.4186300000000  0.4619810000000 1.0
C      1  0.5178130000000  0.4187480000000  0.5375640000000 1.0
C      1  0.5593760000000  0.4477940000000  0.4571060000000 1.0
C      1  0.5601670000000  0.4484020000000  0.5415920000000 1.0
C      1  0.3985890000000  0.4215580000000  0.5140180000000 1.0
C      1  0.3988630000000  0.4215510000000  0.4856170000000 1.0
C      1  0.4664010000000  0.4344270000000  0.4436150000000 1.0
C      1  0.4666070000000  0.4339160000000  0.5566200000000 1.0
C      1  0.5842380000000  0.4983580000000  0.5601240000000 1.0
C      1  0.5829800000000  0.4964710000000  0.4371680000000 1.0
C      1  0.4250910000000  0.5611260000000  0.4705460000000 1.0
C      1  0.4249760000000  0.5614640000000  0.5291110000000 1.0
C      1  0.4885270000000  0.4256760000000  0.5914830000000 1.0
C      1  0.4878930000000  0.4265020000000  0.4084120000000 1.0
C      1  0.6008560000000  0.5298640000000  0.4750720000000 1.0
C      1  0.5986770000000  0.5329790000000  0.5207120000000 1.0
C      1  0.5436270000000  0.4787910000000  0.3874440000000 1.0
C      1  0.5432260000000  0.4778900000000  0.6144400000000 1.0
C      1  0.5268850000000  0.5726150000000  0.4866500000000 1.0
C      1  0.5266360000000  0.5714020000000  0.5161530000000 1.0
C      1  0.4592820000000  0.4216290000000  0.4695190000000 1.0
C      1  0.4594590000000  0.4212650000000  0.5307240000000 1.0
C      1  0.3891510000000  0.4737740000000  0.4820070000000 1.0
C      1  0.3888830000000  0.4738220000000  0.5174880000000 1.0
C      1  0.6049240000000  0.5892930000000  0.4645250000000 1.0
C      1  0.5959100000000  0.5931970000000  0.5301460000000 1.0
C      1  0.5713580000000  0.5700410000000  0.4300240000000 1.0
C      1  0.5686940000000  0.5717600000000  0.5682350000000 1.0
C      1  0.4135920000000  0.5145660000000  0.5790860000000 1.0
C      1  0.4144320000000  0.5145400000000  0.4208000000000 1.0
C      1  0.4480760000000  0.5741220000000  0.4834960000000 1.0
C      1  0.4481520000000  0.5741560000000  0.5160460000000 1.0
C      1  0.4373870000000  0.4721740000000  0.5976930000000 1.0
C      1  0.4378730000000  0.4721980000000  0.4018880000000 1.0
C      1  0.3860130000000  0.4890280000000  0.5459130000000 1.0
C      1  0.3865830000000  0.4889260000000  0.4535740000000 1.0
C      1  0.4168860000000  0.4932430000000  0.5989250000000 1.0
C      1  0.4174780000000  0.4933170000000  0.4008920000000 1.0
C      1  0.5098540000000  0.5647640000000  0.5618920000000 1.0
C      1  0.5106880000000  0.5666160000000  0.4388010000000 1.0
C      1  0.4770490000000  0.4039800000000  0.4850150000000 1.0
C      1  0.4773040000000  0.4039880000000  0.5149740000000 1.0
C      1  0.4891320000000  0.4753410000000  0.5384470000000 1.0
C      1  0.4889850000000  0.4759240000000  0.4619100000000 1.0
C      1  0.5064080000000  0.5179590000000  0.4494290000000 1.0
C      1  0.5071580000000  0.5162180000000  0.5510710000000 1.0
C      1  0.4185000000000  0.4883720000000  0.4847680000000 1.0
C      1  0.4183220000000  0.4883760000000  0.5151300000000 1.0
C      1  0.4864750000000  0.4543460000000  0.3896520000000 1.0
C      1  0.4860090000000  0.4537810000000  0.6106110000000 1.0
C      1  0.4200120000000  0.4520640000000  0.4468670000000 1.0
C      1  0.4191770000000  0.4520630000000  0.5530230000000 1.0
C      1  0.5531980000000  0.5163530000000  0.5338410000000 1.0
C      1  0.5531910000000  0.5159500000000  0.4645320000000 1.0
C      1  0.4634570000000  0.4773360000000  0.6096570000000 1.0
C      1  0.4638210000000  0.4773980000000  0.3897400000000 1.0
C      1  0.4823500000000  0.5664600000000  0.4412590000000 1.0
C      1  0.4817170000000  0.5659210000000  0.5585850000000 1.0
C      1  0.4610150000000  0.5182750000000  0.4818540000000 1.0
C      1  0.4611280000000  0.5181340000000  0.5189110000000 1.0
C      1  0.4259180000000  0.5161450000000  0.4734270000000 1.0
C      1  0.4258060000000  0.5161080000000  0.5265140000000 1.0
C      1  0.5166690000000  0.4703710000000  0.5286990000000 1.0
C      1  0.5166430000000  0.4704990000000  0.4709680000000 1.0
C      1  0.4283010000000  0.5468790000000  0.5549850000000 1.0
C      1  0.4288680000000  0.5467300000000  0.4447990000000 1.0
C      1  0.4132640000000  0.5398130000000  0.5139500000000 1.0
C      1  0.4131100000000  0.5397800000000  0.4859300000000 1.0
C      1  0.4874050000000  0.5243600000000  0.4017400000000 1.0
C      1  0.4866500000000  0.5247810000000  0.5977330000000 1.0
C      1  0.5348590000000  0.5932710000000  0.5347390000000 1.0
C      1  0.5443280000000  0.5901990000000  0.4697210000000 1.0
C      1  0.4455140000000  0.4951240000000  0.4425610000000 1.0
C      1  0.4447520000000  0.4950440000000  0.5577400000000 1.0
C      1  0.5666840000000  0.5443910000000  0.5819120000000 1.0
C      1  0.5669380000000  0.5430590000000  0.4159450000000 1.0
C      1  0.6014680000000  0.5446120000000  0.5468580000000 1.0
C      1  0.6038470000000  0.5407330000000  0.4485060000000 1.0
C      1  0.3987150000000  0.4458930000000  0.5291630000000 1.0
C      1  0.3992010000000  0.4458820000000  0.4704780000000 1.0
C      1  0.4710090000000  0.5059070000000  0.6156260000000 1.0
C      1  0.4712920000000  0.5059710000000  0.3838890000000 1.0
C      1  0.4574540000000  0.4603360000000  0.5154590000000 1.0
C      1  0.4577920000000  0.4605210000000  0.4852870000000 1.0
C      1  0.4949460000000  0.4671750000000  0.4159900000000 1.0
C      1  0.4951810000000  0.4664990000000  0.5843920000000 1.0
C      1  0.4820380000000  0.4591040000000  0.5598730000000 1.0
C      1  0.4813870000000  0.4599590000000  0.4403570000000 1.0
C      1  0.5441150000000  0.6306710000000  0.5012540000000 1.0
END
