TITL C-862129-6180-687 -43794.8407569302 125000 -1021.85128640837 0 0 175 (C1) n - 1
REM
REM in /home/nfs/bkarasulu/CARBON/AIRSS/Generating-Clusters/TERSOFF/Higher-Symm/FIRE-HFTN
REM
REM
REM
REM
REM
REM ./C.cell (b20cbc046b6831c77cfcea5457e17084)
REM AIRSS Version 0.9.1 bugfix July 2018 build 013d7b7c2542+ Fri, 06 Jul 2018 19:26:36 +0100
REM compiler GCC version 9.2.1 20190827 (Red Hat 9.2.1-1)
REM options -cpp -mtune=generic -march=x86-64 -g -O0 -fpre-include=/usr/include/finclude/math-vector-fortran.h
REM seed 1628858952 -445855207 265907889 -1173677587 1317980719 1026841090 412256263 -1021408385 1477073297 1334099194 -999997635 -1000249070 1810477329 -1257129622 -1199043268 -1675213768 -2110681574 -81678143 -1080791547 -422813385 34406272 -1621452520 -742039088 -1097134261 -1284373496 -1510379217 1309020204 1197457180 1551410237 788145525 -1885135800 1124181940 83371271
REM
CELL 1.54180   50.00000   50.00000   50.00000   90.00000   90.00000   90.00000
LATT -1
SFAC C  
C      1  0.4505410000000  0.4049140000000  0.5580190000000 1.0
C      1  0.4862750000000  0.4841570000000  0.5774030000000 1.0
C      1  0.4608590000000  0.4299970000000  0.3992630000000 1.0
C      1  0.4705080000000  0.3996260000000  0.4266210000000 1.0
C      1  0.4900020000000  0.4610090000000  0.4288050000000 1.0
C      1  0.5449800000000  0.5301720000000  0.5846880000000 1.0
C      1  0.5424480000000  0.4523570000000  0.5013410000000 1.0
C      1  0.5362270000000  0.4445010000000  0.5275100000000 1.0
C      1  0.4343950000000  0.5259590000000  0.4109880000000 1.0
C      1  0.4453190000000  0.4198230000000  0.5316640000000 1.0
C      1  0.4992920000000  0.3897260000000  0.5177050000000 1.0
C      1  0.4781010000000  0.3997870000000  0.5668330000000 1.0
C      1  0.5293200000000  0.4045260000000  0.5518120000000 1.0
C      1  0.5226620000000  0.6089950000000  0.5452710000000 1.0
C      1  0.5124410000000  0.5371240000000  0.4524960000000 1.0
C      1  0.3951910000000  0.4921640000000  0.4914030000000 1.0
C      1  0.4785950000000  0.5318680000000  0.5187390000000 1.0
C      1  0.5697620000000  0.5220300000000  0.4953360000000 1.0
C      1  0.5052320000000  0.4724040000000  0.6211840000000 1.0
C      1  0.5692070000000  0.5199680000000  0.5246320000000 1.0
C      1  0.4091280000000  0.4551220000000  0.4347090000000 1.0
C      1  0.5817130000000  0.4533110000000  0.4358110000000 1.0
C      1  0.4773670000000  0.5119700000000  0.5850130000000 1.0
C      1  0.5701280000000  0.5992660000000  0.5402440000000 1.0
C      1  0.5273640000000  0.4418000000000  0.4780140000000 1.0
C      1  0.5720190000000  0.5738170000000  0.5053020000000 1.0
C      1  0.4289430000000  0.4120230000000  0.5769060000000 1.0
C      1  0.5152310000000  0.5826680000000  0.5595730000000 1.0
C      1  0.4732570000000  0.4555210000000  0.4053000000000 1.0
C      1  0.4635160000000  0.5895380000000  0.5497070000000 1.0
C      1  0.5518500000000  0.5449930000000  0.4823660000000 1.0
C      1  0.5120990000000  0.5076860000000  0.5473110000000 1.0
C      1  0.5668970000000  0.4141330000000  0.5105930000000 1.0
C      1  0.3813780000000  0.5199210000000  0.5374080000000 1.0
C      1  0.5843880000000  0.4275780000000  0.5321540000000 1.0
C      1  0.5470070000000  0.6177730000000  0.4987160000000 1.0
C      1  0.5097860000000  0.5824410000000  0.5899030000000 1.0
C      1  0.5378920000000  0.4480910000000  0.4510810000000 1.0
C      1  0.5464950000000  0.3924970000000  0.5721590000000 1.0
C      1  0.4306640000000  0.5682370000000  0.4894210000000 1.0
C      1  0.4249810000000  0.5696090000000  0.4386080000000 1.0
C      1  0.5468680000000  0.5560070000000  0.4243100000000 1.0
C      1  0.5622490000000  0.4761870000000  0.4240450000000 1.0
C      1  0.4374300000000  0.4195220000000  0.4591470000000 1.0
C      1  0.5307010000000  0.4865010000000  0.6200160000000 1.0
C      1  0.5029430000000  0.5655910000000  0.4577410000000 1.0
C      1  0.3861590000000  0.5347840000000  0.5130170000000 1.0
C      1  0.4167360000000  0.5477590000000  0.4203160000000 1.0
C      1  0.4376060000000  0.4686840000000  0.5371350000000 1.0
C      1  0.4753040000000  0.6163370000000  0.4646040000000 1.0
C      1  0.4650100000000  0.4757070000000  0.4919540000000 1.0
C      1  0.5107420000000  0.3712010000000  0.4979790000000 1.0
C      1  0.4037290000000  0.5203410000000  0.4940490000000 1.0
C      1  0.4015390000000  0.4791340000000  0.3904850000000 1.0
C      1  0.5390690000000  0.4030090000000  0.5217720000000 1.0
C      1  0.4165320000000  0.5636880000000  0.5150600000000 1.0
C      1  0.4834410000000  0.4119220000000  0.5048440000000 1.0
C      1  0.4384410000000  0.5214550000000  0.5438000000000 1.0
C      1  0.5581900000000  0.4358180000000  0.5454910000000 1.0
C      1  0.5307230000000  0.4128750000000  0.4818170000000 1.0
C      1  0.3946900000000  0.4940070000000  0.5395510000000 1.0
C      1  0.4971820000000  0.6124420000000  0.4853990000000 1.0
C      1  0.4766220000000  0.5359580000000  0.4306440000000 1.0
C      1  0.4145770000000  0.5699840000000  0.4654790000000 1.0
C      1  0.5144400000000  0.5940030000000  0.4176820000000 1.0
C      1  0.4809090000000  0.5162930000000  0.3885630000000 1.0
C      1  0.5387850000000  0.5628080000000  0.5561040000000 1.0
C      1  0.5959560000000  0.5369880000000  0.4653550000000 1.0
C      1  0.5509610000000  0.4997350000000  0.4569170000000 1.0
C      1  0.4405290000000  0.5731610000000  0.5598620000000 1.0
C      1  0.5546120000000  0.5635770000000  0.4543710000000 1.0
C      1  0.3749280000000  0.5609490000000  0.5077190000000 1.0
C      1  0.5864950000000  0.5075320000000  0.4553900000000 1.0
C      1  0.5073510000000  0.4363520000000  0.5873650000000 1.0
C      1  0.4008850000000  0.4324410000000  0.4924140000000 1.0
C      1  0.6082330000000  0.5385230000000  0.4922430000000 1.0
C      1  0.5840790000000  0.5607070000000  0.4546760000000 1.0
C      1  0.6113790000000  0.5028930000000  0.5291500000000 1.0
C      1  0.4840380000000  0.4030570000000  0.4747230000000 1.0
C      1  0.4240930000000  0.4301250000000  0.4347960000000 1.0
C      1  0.4454240000000  0.5221920000000  0.4668290000000 1.0
C      1  0.4714830000000  0.4345090000000  0.5231600000000 1.0
C      1  0.5590380000000  0.4977420000000  0.4856220000000 1.0
C      1  0.5206470000000  0.5780910000000  0.5169280000000 1.0
C      1  0.6131610000000  0.5098490000000  0.5002790000000 1.0
C      1  0.4815810000000  0.4520610000000  0.4554100000000 1.0
C      1  0.5118680000000  0.5215820000000  0.3982260000000 1.0
C      1  0.5234630000000  0.4812500000000  0.5519130000000 1.0
C      1  0.4980350000000  0.4045510000000  0.3845720000000 1.0
C      1  0.4907150000000  0.4609560000000  0.5972540000000 1.0
C      1  0.5249410000000  0.5189770000000  0.5081240000000 1.0
C      1  0.4281580000000  0.5536500000000  0.5400750000000 1.0
C      1  0.4431610000000  0.5914950000000  0.4282380000000 1.0
C      1  0.5650330000000  0.4845560000000  0.5795730000000 1.0
C      1  0.5320630000000  0.5324170000000  0.5567920000000 1.0
C      1  0.5923770000000  0.5237040000000  0.5426980000000 1.0
C      1  0.4921840000000  0.4400410000000  0.5441920000000 1.0
C      1  0.6003510000000  0.4916140000000  0.4786580000000 1.0
C      1  0.5522060000000  0.3958520000000  0.4658870000000 1.0
C      1  0.5010380000000  0.4186510000000  0.5625850000000 1.0
C      1  0.5157400000000  0.4923330000000  0.4005220000000 1.0
C      1  0.4353260000000  0.4212990000000  0.4095400000000 1.0
C      1  0.4965500000000  0.4027140000000  0.4135630000000 1.0
C      1  0.4144200000000  0.4777190000000  0.4164840000000 1.0
C      1  0.4814810000000  0.5444240000000  0.5455450000000 1.0
C      1  0.5436450000000  0.5332300000000  0.5267390000000 1.0
C      1  0.4926400000000  0.5809110000000  0.4325070000000 1.0
C      1  0.5375100000000  0.5791710000000  0.4093590000000 1.0
C      1  0.5137620000000  0.4576150000000  0.5381130000000 1.0
C      1  0.5988910000000  0.4761910000000  0.5343220000000 1.0
C      1  0.4332170000000  0.5264160000000  0.4922950000000 1.0
C      1  0.5630880000000  0.5094540000000  0.5927940000000 1.0
C      1  0.5471010000000  0.6119160000000  0.5284050000000 1.0
C      1  0.4326110000000  0.4988470000000  0.4253430000000 1.0
C      1  0.5226440000000  0.5638690000000  0.6095630000000 1.0
C      1  0.4642710000000  0.4083510000000  0.4539260000000 1.0
C      1  0.5338420000000  0.5153150000000  0.6223600000000 1.0
C      1  0.4213050000000  0.4427820000000  0.5384270000000 1.0
C      1  0.4495550000000  0.5535540000000  0.5799860000000 1.0
C      1  0.4587760000000  0.6072530000000  0.5021310000000 1.0
C      1  0.6005720000000  0.5000110000000  0.4301790000000 1.0
C      1  0.5442300000000  0.5741650000000  0.6262390000000 1.0
C      1  0.4502540000000  0.5242570000000  0.5164450000000 1.0
C      1  0.4630100000000  0.5300700000000  0.5663130000000 1.0
C      1  0.4577080000000  0.5341440000000  0.3931880000000 1.0
C      1  0.5409820000000  0.5275980000000  0.4135840000000 1.0
C      1  0.5830320000000  0.4444340000000  0.4662890000000 1.0
C      1  0.6059870000000  0.4479420000000  0.5291080000000 1.0
C      1  0.4124100000000  0.4334340000000  0.5657600000000 1.0
C      1  0.5634420000000  0.5055590000000  0.4113730000000 1.0
C      1  0.5724790000000  0.4168340000000  0.4797810000000 1.0
C      1  0.4669990000000  0.5374680000000  0.4574420000000 1.0
C      1  0.5357200000000  0.5260050000000  0.4650440000000 1.0
C      1  0.4994600000000  0.5116200000000  0.5195110000000 1.0
C      1  0.4595750000000  0.6110100000000  0.5306990000000 1.0
C      1  0.4638310000000  0.4508430000000  0.6058520000000 1.0
C      1  0.4880000000000  0.5728800000000  0.5486160000000 1.0
C      1  0.5549740000000  0.4352610000000  0.5743220000000 1.0
C      1  0.5528500000000  0.4798450000000  0.5541030000000 1.0
C      1  0.4481550000000  0.4741520000000  0.4680010000000 1.0
C      1  0.5378420000000  0.4277130000000  0.4297190000000 1.0
C      1  0.5704960000000  0.4783560000000  0.5301660000000 1.0
C      1  0.4989120000000  0.4502880000000  0.4786860000000 1.0
C      1  0.5688640000000  0.5720800000000  0.5504510000000 1.0
C      1  0.4701860000000  0.5978240000000  0.4415970000000 1.0
C      1  0.4431110000000  0.5547220000000  0.6081780000000 1.0
C      1  0.5867930000000  0.4662240000000  0.4857490000000 1.0
C      1  0.5490680000000  0.4020590000000  0.5993570000000 1.0
C      1  0.4833060000000  0.5662250000000  0.4830620000000 1.0
C      1  0.4405830000000  0.4979880000000  0.4534120000000 1.0
C      1  0.4600480000000  0.4620350000000  0.5171170000000 1.0
C      1  0.5210330000000  0.4040030000000  0.4294580000000 1.0
C      1  0.5930360000000  0.5535060000000  0.5406770000000 1.0
C      1  0.5134600000000  0.4782780000000  0.4249710000000 1.0
C      1  0.4567500000000  0.5812270000000  0.4891610000000 1.0
C      1  0.4650140000000  0.5642260000000  0.3923250000000 1.0
C      1  0.4238860000000  0.4948220000000  0.5448360000000 1.0
C      1  0.5439280000000  0.5608120000000  0.5099140000000 1.0
C      1  0.5974050000000  0.5596080000000  0.5115470000000 1.0
C      1  0.4830860000000  0.5590050000000  0.4155670000000 1.0
C      1  0.5270840000000  0.6076670000000  0.4789960000000 1.0
C      1  0.4231190000000  0.5383650000000  0.6212410000000 1.0
C      1  0.5377340000000  0.4756430000000  0.4414450000000 1.0
C      1  0.5292790000000  0.5806690000000  0.4641420000000 1.0
C      1  0.4235010000000  0.4158750000000  0.4850140000000 1.0
C      1  0.3904820000000  0.4760690000000  0.5156910000000 1.0
C      1  0.4981790000000  0.5856410000000  0.5000250000000 1.0
C      1  0.4001710000000  0.4482910000000  0.5169360000000 1.0
C      1  0.4871180000000  0.5254510000000  0.6091820000000 1.0
C      1  0.5144210000000  0.5348970000000  0.6130970000000 1.0
C      1  0.4371940000000  0.4039180000000  0.5077540000000 1.0
C      1  0.5623130000000  0.4728140000000  0.5012630000000 1.0
C      1  0.5046580000000  0.3808240000000  0.4703680000000 1.0
C      1  0.5264630000000  0.3849620000000  0.4507630000000 1.0
C      1  0.4468870000000  0.5861160000000  0.3993430000000 1.0
END
