TITL C-862501-1041-1440 -0.000339589991946285 125000 -619.383429338802 0 0 114 (D3) n - 1
REM
REM in /home/nfs/bkarasulu/CARBON/AIRSS/Generating-Clusters/TERSOFF/Higher-Symm/FIRE-HFTN
REM
REM
REM
REM
REM
REM ./C.cell (b20cbc046b6831c77cfcea5457e17084)
REM AIRSS Version 0.9.1 bugfix July 2018 build 013d7b7c2542+ Fri, 06 Jul 2018 19:26:36 +0100
REM compiler GCC version 9.2.1 20190827 (Red Hat 9.2.1-1)
REM options -cpp -mtune=generic -march=x86-64 -g -O0 -fpre-include=/usr/include/finclude/math-vector-fortran.h
REM seed 1512177364 -1679811029 -441473497 -667588823 -1195900574 484528642 415858120 -273972072 920403654 -1658336298 -10872806 166770919 30246097 -1640791160 223662268 1335612122 -1039031351 117027243 -1143134601 -547553471 1477278736 -1528122837 416611334 1940156850 1396097691 -265522133 -1732164679 1130974457 1716759001 -698188403 684481474 2001887363 -1735281763
REM
CELL 1.54180   50.00000   50.00000   50.00000   90.00000   90.00000   90.00000
LATT -1
SFAC C  
C      1  0.5345190000000  0.4548880000000  0.4523470000000 1.0
C      1  0.5345180000000  0.4812870000000  0.5628940000000 1.0
C      1  0.5345190000000  0.5638240000000  0.4847590000000 1.0
C      1  0.4654810000000  0.4548880000000  0.5476530000000 1.0
C      1  0.4654820000000  0.4812870000000  0.4371060000000 1.0
C      1  0.4654810000000  0.5638240000000  0.5152410000000 1.0
C      1  0.4345640000000  0.5632110000000  0.5191220000000 1.0
C      1  0.4345640000000  0.4849550000000  0.4356960000000 1.0
C      1  0.4345640000000  0.4518340000000  0.5451810000000 1.0
C      1  0.5654360000000  0.5632110000000  0.4808780000000 1.0
C      1  0.5654360000000  0.4849550000000  0.5643040000000 1.0
C      1  0.5654360000000  0.4518340000000  0.4548190000000 1.0
C      1  0.4754290000000  0.5227490000000  0.4312570000000 1.0
C      1  0.4754280000000  0.4290920000000  0.5146700000000 1.0
C      1  0.4754280000000  0.5481580000000  0.5540730000000 1.0
C      1  0.5245710000000  0.5227490000000  0.5687430000000 1.0
C      1  0.5245720000000  0.4290920000000  0.4853300000000 1.0
C      1  0.5245720000000  0.5481580000000  0.4459270000000 1.0
C      1  0.5030900000000  0.4826110000000  0.5614840000000 1.0
C      1  0.5030910000000  0.5619410000000  0.4843180000000 1.0
C      1  0.5030910000000  0.4554480000000  0.4541990000000 1.0
C      1  0.4969100000000  0.4826110000000  0.4385160000000 1.0
C      1  0.4969090000000  0.5619410000000  0.5156820000000 1.0
C      1  0.4969090000000  0.4554480000000  0.5458010000000 1.0
C      1  0.4984040000000  0.5900070000000  0.5562700000000 1.0
C      1  0.4984050000000  0.5037280000000  0.3939170000000 1.0
C      1  0.4984040000000  0.4062660000000  0.5498130000000 1.0
C      1  0.5015960000000  0.5900070000000  0.4437300000000 1.0
C      1  0.5015950000000  0.5037280000000  0.6060830000000 1.0
C      1  0.5015960000000  0.4062660000000  0.4501870000000 1.0
C      1  0.5762920000000  0.4652470000000  0.5437660000000 1.0
C      1  0.5762920000000  0.5552780000000  0.5082140000000 1.0
C      1  0.5762930000000  0.4794740000000  0.4480210000000 1.0
C      1  0.4237080000000  0.4652470000000  0.4562340000000 1.0
C      1  0.4237080000000  0.5552780000000  0.4917860000000 1.0
C      1  0.4237070000000  0.4794740000000  0.5519790000000 1.0
C      1  0.4891420000000  0.5693380000000  0.5760510000000 1.0
C      1  0.4891430000000  0.5311930000000  0.4019260000000 1.0
C      1  0.4891420000000  0.3994690000000  0.5220230000000 1.0
C      1  0.5108580000000  0.5693380000000  0.4239490000000 1.0
C      1  0.5108570000000  0.5311930000000  0.5980740000000 1.0
C      1  0.5108580000000  0.3994690000000  0.4779770000000 1.0
C      1  0.5426880000000  0.4085660000000  0.5171800000000 1.0
C      1  0.5426880000000  0.5605950000000  0.5705940000000 1.0
C      1  0.5426890000000  0.5308380000000  0.4122260000000 1.0
C      1  0.4573120000000  0.4085660000000  0.4828200000000 1.0
C      1  0.4573120000000  0.5605950000000  0.4294060000000 1.0
C      1  0.4573110000000  0.5308380000000  0.5877740000000 1.0
C      1  0.5114480000000  0.4313800000000  0.5542740000000 1.0
C      1  0.5114480000000  0.5813130000000  0.5322900000000 1.0
C      1  0.5114490000000  0.4873070000000  0.4134360000000 1.0
C      1  0.4885520000000  0.4313800000000  0.4457260000000 1.0
C      1  0.4885520000000  0.5813130000000  0.4677100000000 1.0
C      1  0.4885510000000  0.4873070000000  0.5865640000000 1.0
C      1  0.5823400000000  0.5187900000000  0.4787970000000 1.0
C      1  0.5823400000000  0.4722420000000  0.4943300000000 1.0
C      1  0.5823400000000  0.5089680000000  0.5268750000000 1.0
C      1  0.4176600000000  0.5187900000000  0.5212030000000 1.0
C      1  0.4176600000000  0.4722420000000  0.5056700000000 1.0
C      1  0.4176600000000  0.5089680000000  0.4731250000000 1.0
C      1  0.5191240000000  0.5602490000000  0.5871450000000 1.0
C      1  0.5191250000000  0.5453460000000  0.4042510000000 1.0
C      1  0.5191250000000  0.3944060000000  0.5086040000000 1.0
C      1  0.4808760000000  0.5602490000000  0.4128550000000 1.0
C      1  0.4808750000000  0.5453460000000  0.5957490000000 1.0
C      1  0.4808750000000  0.3944060000000  0.4913960000000 1.0
C      1  0.4107020000000  0.4802930000000  0.4780850000000 1.0
C      1  0.4107010000000  0.4908750000000  0.5280230000000 1.0
C      1  0.4107020000000  0.5288310000000  0.4938900000000 1.0
C      1  0.5892980000000  0.4802930000000  0.5219150000000 1.0
C      1  0.5892990000000  0.4908750000000  0.4719770000000 1.0
C      1  0.5892980000000  0.5288310000000  0.5061100000000 1.0
C      1  0.4419490000000  0.4969880000000  0.5675200000000 1.0
C      1  0.4419490000000  0.5599810000000  0.4688480000000 1.0
C      1  0.4419490000000  0.4430320000000  0.4636310000000 1.0
C      1  0.5580510000000  0.4969880000000  0.4324800000000 1.0
C      1  0.5580510000000  0.5599810000000  0.5311520000000 1.0
C      1  0.5580510000000  0.4430320000000  0.5363690000000 1.0
C      1  0.4512690000000  0.5111740000000  0.4736250000000 1.0
C      1  0.4512690000000  0.4715720000000  0.5035100000000 1.0
C      1  0.4512690000000  0.5172540000000  0.5228640000000 1.0
C      1  0.5487310000000  0.5111740000000  0.5263750000000 1.0
C      1  0.5487310000000  0.4715720000000  0.4964900000000 1.0
C      1  0.5487310000000  0.5172540000000  0.4771360000000 1.0
C      1  0.4934000000000  0.4998890000000  0.5313220000000 1.0
C      1  0.4934000000000  0.5271810000000  0.4844350000000 1.0
C      1  0.4934000000000  0.4729290000000  0.4842430000000 1.0
C      1  0.5066000000000  0.4998890000000  0.4686780000000 1.0
C      1  0.5066000000000  0.5271810000000  0.5155650000000 1.0
C      1  0.5066000000000  0.4729290000000  0.5157570000000 1.0
C      1  0.5331890000000  0.5348420000000  0.4954290000000 1.0
C      1  0.5331890000000  0.4786200000000  0.4721120000000 1.0
C      1  0.5331890000000  0.4865380000000  0.5324600000000 1.0
C      1  0.4668110000000  0.5348420000000  0.5045710000000 1.0
C      1  0.4668110000000  0.4786200000000  0.5278880000000 1.0
C      1  0.4668110000000  0.4865380000000  0.4675400000000 1.0
C      1  0.4245350000000  0.5435830000000  0.5415750000000 1.0
C      1  0.4245350000000  0.5142140000000  0.4414680000000 1.0
C      1  0.4245350000000  0.4422030000000  0.5169550000000 1.0
C      1  0.5754650000000  0.5435830000000  0.4584250000000 1.0
C      1  0.5754650000000  0.5142140000000  0.5585320000000 1.0
C      1  0.5754650000000  0.4422030000000  0.4830450000000 1.0
C      1  0.5402770000000  0.5829220000000  0.5303640000000 1.0
C      1  0.5402780000000  0.4848350000000  0.4130060000000 1.0
C      1  0.5402770000000  0.4322430000000  0.5566310000000 1.0
C      1  0.4597230000000  0.5829220000000  0.4696360000000 1.0
C      1  0.4597220000000  0.4848350000000  0.5869940000000 1.0
C      1  0.4597230000000  0.4322430000000  0.4433690000000 1.0
C      1  0.4490640000000  0.4366420000000  0.4949590000000 1.0
C      1  0.4490640000000  0.5273140000000  0.5573890000000 1.0
C      1  0.4490650000000  0.5360440000000  0.4476510000000 1.0
C      1  0.5509360000000  0.4366420000000  0.5050410000000 1.0
C      1  0.5509360000000  0.5273140000000  0.4426110000000 1.0
C      1  0.5509350000000  0.5360440000000  0.5523490000000 1.0
END
