TITL C-862502-1143-1493 -0.0872470050858769 125000 -573.564853852362 0 0 99 (C1) n - 1
REM
REM in /home/nfs/bkarasulu/CARBON/AIRSS/Generating-Clusters/TERSOFF/Higher-Symm/FIRE-HFTN
REM
REM
REM
REM
REM
REM ./C.cell (b20cbc046b6831c77cfcea5457e17084)
REM AIRSS Version 0.9.1 bugfix July 2018 build 013d7b7c2542+ Fri, 06 Jul 2018 19:26:36 +0100
REM compiler GCC version 9.2.1 20190827 (Red Hat 9.2.1-1)
REM options -cpp -mtune=generic -march=x86-64 -g -O0 -fpre-include=/usr/include/finclude/math-vector-fortran.h
REM seed -164081151 2089378846 425184131 88889830 -231231222 -974509566 -39887014 -2130011602 -1388807418 9382473 1093175730 742562506 -1973469106 -1048370228 -2025256878 147135735 228438769 -2057206739 1082353210 1614736691 636955305 -38062892 -1970049828 625197605 -1942311142 1182107013 796186418 -1083285884 1612487086 -707502899 2036333715 -410653798 1712511574
REM
CELL 1.54180   50.00000   50.00000   50.00000   90.00000   90.00000   90.00000
LATT -1
SFAC C  
C      1  0.5548140000000  0.4767290000000  0.5719170000000 1.0
C      1  0.4420710000000  0.5242780000000  0.4323110000000 1.0
C      1  0.4827790000000  0.4995110000000  0.4142580000000 1.0
C      1  0.5123480000000  0.5005480000000  0.5851520000000 1.0
C      1  0.4956350000000  0.4900700000000  0.4572980000000 1.0
C      1  0.4977580000000  0.5150870000000  0.5375920000000 1.0
C      1  0.4542170000000  0.4831200000000  0.4988650000000 1.0
C      1  0.5468990000000  0.5162520000000  0.5015350000000 1.0
C      1  0.5084480000000  0.5754980000000  0.4258200000000 1.0
C      1  0.4865720000000  0.4278610000000  0.5702900000000 1.0
C      1  0.4911820000000  0.5290340000000  0.4090120000000 1.0
C      1  0.5037840000000  0.4718880000000  0.5915760000000 1.0
C      1  0.5387030000000  0.5345200000000  0.4800870000000 1.0
C      1  0.4627880000000  0.4633770000000  0.5182680000000 1.0
C      1  0.4390760000000  0.4495980000000  0.4343200000000 1.0
C      1  0.5580890000000  0.5502660000000  0.5647850000000 1.0
C      1  0.5434370000000  0.5023820000000  0.5812280000000 1.0
C      1  0.4513930000000  0.4990390000000  0.4202760000000 1.0
C      1  0.4513360000000  0.5522650000000  0.5375430000000 1.0
C      1  0.5492500000000  0.4395750000000  0.4617440000000 1.0
C      1  0.5228680000000  0.5292200000000  0.5448730000000 1.0
C      1  0.4711720000000  0.4760960000000  0.4514360000000 1.0
C      1  0.5272040000000  0.5724010000000  0.5300060000000 1.0
C      1  0.4799770000000  0.4365910000000  0.4678800000000 1.0
C      1  0.5141620000000  0.5514960000000  0.4822640000000 1.0
C      1  0.4896220000000  0.4502670000000  0.5176350000000 1.0
C      1  0.4915240000000  0.4191960000000  0.5192090000000 1.0
C      1  0.5144840000000  0.5819790000000  0.4776280000000 1.0
C      1  0.5112070000000  0.5526530000000  0.5120330000000 1.0
C      1  0.4956710000000  0.4557360000000  0.4895490000000 1.0
C      1  0.5849930000000  0.4991730000000  0.5105170000000 1.0
C      1  0.4119190000000  0.4947610000000  0.4915810000000 1.0
C      1  0.5965620000000  0.5465360000000  0.5147470000000 1.0
C      1  0.4056530000000  0.4463790000000  0.4855490000000 1.0
C      1  0.4939550000000  0.5403020000000  0.4652270000000 1.0
C      1  0.5046500000000  0.4653340000000  0.5368820000000 1.0
C      1  0.5178310000000  0.4090000000000  0.5096990000000 1.0
C      1  0.4880490000000  0.5923310000000  0.4872960000000 1.0
C      1  0.5678260000000  0.4788430000000  0.5463540000000 1.0
C      1  0.4292090000000  0.5210790000000  0.4578460000000 1.0
C      1  0.5091230000000  0.4771950000000  0.4197930000000 1.0
C      1  0.4875220000000  0.5213150000000  0.5777650000000 1.0
C      1  0.5117920000000  0.4801850000000  0.4823590000000 1.0
C      1  0.4872390000000  0.5182120000000  0.5106960000000 1.0
C      1  0.5207550000000  0.5885480000000  0.4494330000000 1.0
C      1  0.4834190000000  0.4111580000000  0.5465100000000 1.0
C      1  0.4245950000000  0.4798340000000  0.5521510000000 1.0
C      1  0.5756710000000  0.5136050000000  0.4480970000000 1.0
C      1  0.4595830000000  0.5087800000000  0.5774430000000 1.0
C      1  0.5371610000000  0.4891520000000  0.4232550000000 1.0
C      1  0.5769680000000  0.5677400000000  0.5185220000000 1.0
C      1  0.4279120000000  0.4284710000000  0.4802240000000 1.0
C      1  0.5402760000000  0.4873950000000  0.5003850000000 1.0
C      1  0.4606830000000  0.5112340000000  0.5020010000000 1.0
C      1  0.4666890000000  0.4604470000000  0.4264640000000 1.0
C      1  0.5287510000000  0.5415510000000  0.5719450000000 1.0
C      1  0.5465700000000  0.5275420000000  0.5276390000000 1.0
C      1  0.4505380000000  0.4750150000000  0.4718840000000 1.0
C      1  0.4474970000000  0.4351480000000  0.4590700000000 1.0
C      1  0.5559960000000  0.5665550000000  0.5399950000000 1.0
C      1  0.4427540000000  0.4204010000000  0.5040340000000 1.0
C      1  0.5638230000000  0.5768180000000  0.4935050000000 1.0
C      1  0.4303460000000  0.4794550000000  0.4353340000000 1.0
C      1  0.5643480000000  0.5203990000000  0.5650090000000 1.0
C      1  0.4205940000000  0.5223160000000  0.5070270000000 1.0
C      1  0.5767330000000  0.4673670000000  0.4955390000000 1.0
C      1  0.5347230000000  0.4413270000000  0.5615780000000 1.0
C      1  0.4615720000000  0.5599170000000  0.4428280000000 1.0
C      1  0.5816620000000  0.5041110000000  0.5419540000000 1.0
C      1  0.4153920000000  0.4950300000000  0.4605670000000 1.0
C      1  0.4871630000000  0.5546100000000  0.4263840000000 1.0
C      1  0.5084160000000  0.4471050000000  0.5744880000000 1.0
C      1  0.4986020000000  0.5175400000000  0.4487200000000 1.0
C      1  0.4945950000000  0.4890300000000  0.5489290000000 1.0
C      1  0.4421600000000  0.5316340000000  0.4825750000000 1.0
C      1  0.5545770000000  0.4681500000000  0.5227620000000 1.0
C      1  0.4516510000000  0.5753370000000  0.5190860000000 1.0
C      1  0.5599810000000  0.4347500000000  0.4912500000000 1.0
C      1  0.4646980000000  0.5756290000000  0.4927060000000 1.0
C      1  0.5423820000000  0.4235870000000  0.5134120000000 1.0
C      1  0.4888220000000  0.5486190000000  0.5612370000000 1.0
C      1  0.5060390000000  0.4470260000000  0.4209770000000 1.0
C      1  0.4365420000000  0.5266520000000  0.5334370000000 1.0
C      1  0.5613130000000  0.4676540000000  0.4652170000000 1.0
C      1  0.4345940000000  0.4342260000000  0.5291320000000 1.0
C      1  0.5699330000000  0.5604810000000  0.4694020000000 1.0
C      1  0.4714420000000  0.4186170000000  0.4965810000000 1.0
C      1  0.5355330000000  0.5850730000000  0.4997060000000 1.0
C      1  0.4996380000000  0.4300180000000  0.4453320000000 1.0
C      1  0.5068740000000  0.5723690000000  0.5536310000000 1.0
C      1  0.4083980000000  0.4687460000000  0.5042540000000 1.0
C      1  0.5919060000000  0.5240570000000  0.4962450000000 1.0
C      1  0.4560170000000  0.5563650000000  0.4730650000000 1.0
C      1  0.5409880000000  0.4447430000000  0.5325670000000 1.0
C      1  0.4223060000000  0.4614160000000  0.5292620000000 1.0
C      1  0.5795250000000  0.5322410000000  0.4705610000000 1.0
C      1  0.4414360000000  0.5043320000000  0.5530500000000 1.0
C      1  0.5562920000000  0.4910670000000  0.4474370000000 1.0
C      1  0.5063500000000  0.5106860000000  0.4922510000000 1.0
END
