TITL C-862503-991-793 3.75152492967195e-05 125000 -161.382241124319 0 0 30 (C3) n - 1
REM
REM in /home/nfs/bkarasulu/CARBON/AIRSS/Generating-Clusters/TERSOFF/Higher-Symm/FIRE-HFTN
REM
REM
REM
REM
REM
REM ./C.cell (b20cbc046b6831c77cfcea5457e17084)
REM AIRSS Version 0.9.1 bugfix July 2018 build 013d7b7c2542+ Fri, 06 Jul 2018 19:26:36 +0100
REM compiler GCC version 9.2.1 20190827 (Red Hat 9.2.1-1)
REM options -cpp -mtune=generic -march=x86-64 -g -O0 -fpre-include=/usr/include/finclude/math-vector-fortran.h
REM seed 1790888915 -1716785748 -20131086 -760568113 1243604771 1172124028 -1468213784 1320568650 469110938 -1715987660 1433066921 1087164913 880047137 -1429271233 -295469661 1763253193 -617432686 -1018376052 960798281 2137781722 1826534807 951695509 393521800 -1033182521 -595083382 850825103 1008660867 80940990 -2103691165 -1856004837 1222621274 -1312070204 1026136550
REM
CELL 1.54180   50.00000   50.00000   50.00000   90.00000   90.00000   90.00000
LATT -1
SFAC C  
C      1  0.5411060000000  0.5154070000000  0.4983030000000 1.0
C      1  0.4809120000000  0.5448480000000  0.5157560000000 1.0
C      1  0.5242070000000  0.4888120000000  0.5500910000000 1.0
C      1  0.4508740000000  0.4780790000000  0.4874910000000 1.0
C      1  0.4574380000000  0.5170770000000  0.5200530000000 1.0
C      1  0.5280710000000  0.4740730000000  0.5232340000000 1.0
C      1  0.5026620000000  0.4611800000000  0.5140860000000 1.0
C      1  0.5134740000000  0.5514120000000  0.4767580000000 1.0
C      1  0.4777310000000  0.4742140000000  0.4727520000000 1.0
C      1  0.4852090000000  0.5213740000000  0.5435270000000 1.0
C      1  0.4868790000000  0.4996230000000  0.4598590000000 1.0
C      1  0.5282130000000  0.5245550000000  0.4728940000000 1.0
C      1  0.5316020000000  0.5326380000000  0.5207540000000 1.0
C      1  0.4827680000000  0.5445580000000  0.4823870000000 1.0
C      1  0.5153490000000  0.5048220000000  0.4554390000000 1.0
C      1  0.4577280000000  0.4837070000000  0.5181970000000 1.0
C      1  0.4491440000000  0.5108640000000  0.4874220000000 1.0
C      1  0.5455260000000  0.4869360000000  0.5035010000000 1.0
C      1  0.4974640000000  0.4567600000000  0.4856160000000 1.0
C      1  0.5135430000000  0.5531420000000  0.5095430000000 1.0
C      1  0.4802110000000  0.4706840000000  0.5313170000000 1.0
C      1  0.4696480000000  0.5220750000000  0.4693630000000 1.0
C      1  0.4914220000000  0.4887430000000  0.5518210000000 1.0
C      1  0.5185790000000  0.5195180000000  0.5432370000000 1.0
C      1  0.5404570000000  0.4816050000000  0.5731280000000 1.0
C      1  0.5662980000000  0.4720810000000  0.4897100000000 1.0
C      1  0.5206810000000  0.5744480000000  0.4605090000000 1.0
C      1  0.5302050000000  0.4910310000000  0.4346670000000 1.0
C      1  0.4278380000000  0.4618290000000  0.4802840000000 1.0
C      1  0.5112550000000  0.4359880000000  0.4707600000000 1.0
END
