TITL C-862501-1041-1457 3.90492181173291e-08 125000 -15.9241980963099 0 0 5 (D(inf)h) n - 1
REM
REM in /home/nfs/bkarasulu/CARBON/AIRSS/Generating-Clusters/TERSOFF/Higher-Symm/FIRE-HFTN
REM
REM
REM
REM
REM
REM ./C.cell (b20cbc046b6831c77cfcea5457e17084)
REM AIRSS Version 0.9.1 bugfix July 2018 build 013d7b7c2542+ Fri, 06 Jul 2018 19:26:36 +0100
REM compiler GCC version 9.2.1 20190827 (Red Hat 9.2.1-1)
REM options -cpp -mtune=generic -march=x86-64 -g -O0 -fpre-include=/usr/include/finclude/math-vector-fortran.h
REM seed 79546359 1371895176 795120442 224357495 1093205917 -330003698 1098153004 2123535268 -1249281106 -723859569 -1013141655 2112509542 -1311852074 -6398330 -662253629 -1859683592 1520790578 1988497633 -995426415 -105035315 -53508682 -249792451 -28083420 -1030040412 -95063164 -2114655978 -768987876 -1637112670 476340051 -1416331689 321567230 -62533243 -662004362
REM
CELL 1.54180   50.00000   50.00000   50.00000   90.00000   90.00000   90.00000
LATT -1
SFAC C  
C      1  0.5006880000000  0.5000840000000  0.4690110000000 1.0
C      1  0.5006880000000  0.5000840000000  0.5000000000000 1.0
C      1  0.5006880000000  0.5000840000000  0.5309890000000 1.0
C      1  0.5006880000000  0.5000840000000  0.4390780000000 1.0
C      1  0.5006880000000  0.5000840000000  0.5609220000000 1.0
END
