TITL C-862500-986-1322 -62908.9214303991 125000 -1077.31221075492 0 0 183 (C1) n - 1
REM
REM in /home/nfs/bkarasulu/CARBON/AIRSS/Generating-Clusters/TERSOFF/Higher-Symm/FIRE-HFTN
REM
REM
REM
REM
REM
REM ./C.cell (b20cbc046b6831c77cfcea5457e17084)
REM AIRSS Version 0.9.1 bugfix July 2018 build 013d7b7c2542+ Fri, 06 Jul 2018 19:26:36 +0100
REM compiler GCC version 9.2.1 20190827 (Red Hat 9.2.1-1)
REM options -cpp -mtune=generic -march=x86-64 -g -O0 -fpre-include=/usr/include/finclude/math-vector-fortran.h
REM seed 2126545586 -1056648546 1619984755 413116834 2101501679 -502074250 181943237 138074134 550323639 436323793 -580411242 548753006 1895565712 -1697057147 -1553332679 -755726678 -261498298 -320005784 -1785171362 2135910067 -1351980258 -1637093322 756232942 1084736158 1619181279 -1977962242 2136569010 -1278306873 2029521323 1120008778 1840537994 -1643919182 -297362120
REM
CELL 1.54180   50.00000   50.00000   50.00000   90.00000   90.00000   90.00000
LATT -1
SFAC C  
C      1  0.6080320000000  0.4726640000000  0.5253770000000 1.0
C      1  0.6081120000000  0.5267250000000  0.4742810000000 1.0
C      1  0.5185850000000  0.4490720000000  0.5121700000000 1.0
C      1  0.5173440000000  0.5475610000000  0.4883300000000 1.0
C      1  0.4993680000000  0.5265510000000  0.4995710000000 1.0
C      1  0.4997000000000  0.4697730000000  0.5015180000000 1.0
C      1  0.4811870000000  0.5002570000000  0.3762350000000 1.0
C      1  0.4812860000000  0.5015130000000  0.6239360000000 1.0
C      1  0.4183840000000  0.4775620000000  0.4360610000000 1.0
C      1  0.4217040000000  0.5259000000000  0.5619800000000 1.0
C      1  0.5237010000000  0.6036450000000  0.5473060000000 1.0
C      1  0.5245320000000  0.3947970000000  0.4499290000000 1.0
C      1  0.4561950000000  0.5141730000000  0.3887890000000 1.0
C      1  0.4561090000000  0.4882180000000  0.6120590000000 1.0
C      1  0.4670820000000  0.6069490000000  0.4578080000000 1.0
C      1  0.4677720000000  0.3876870000000  0.5381150000000 1.0
C      1  0.5310100000000  0.5378920000000  0.5544660000000 1.0
C      1  0.5298420000000  0.4630860000000  0.4466740000000 1.0
C      1  0.5631370000000  0.5730050000000  0.5425990000000 1.0
C      1  0.5625640000000  0.4267350000000  0.4566310000000 1.0
C      1  0.5428280000000  0.5868860000000  0.4473130000000 1.0
C      1  0.5411060000000  0.4146010000000  0.5494980000000 1.0
C      1  0.4854900000000  0.5549880000000  0.4574300000000 1.0
C      1  0.4845390000000  0.4445490000000  0.5416900000000 1.0
C      1  0.3939400000000  0.4755090000000  0.4502580000000 1.0
C      1  0.3956400000000  0.5251210000000  0.5508700000000 1.0
C      1  0.6044150000000  0.5242800000000  0.5268880000000 1.0
C      1  0.6042830000000  0.4750280000000  0.4727290000000 1.0
C      1  0.4047720000000  0.4861040000000  0.5191520000000 1.0
C      1  0.4041910000000  0.5125240000000  0.4828600000000 1.0
C      1  0.4589130000000  0.3868850000000  0.4841800000000 1.0
C      1  0.4584660000000  0.6086160000000  0.5118330000000 1.0
C      1  0.4104760000000  0.5352480000000  0.4044080000000 1.0
C      1  0.4099320000000  0.4705690000000  0.5930240000000 1.0
C      1  0.4946560000000  0.5581890000000  0.6049930000000 1.0
C      1  0.4949230000000  0.4446580000000  0.3985210000000 1.0
C      1  0.4784250000000  0.5780380000000  0.5396960000000 1.0
C      1  0.4778450000000  0.4180000000000  0.4561350000000 1.0
C      1  0.3918460000000  0.4669560000000  0.4995460000000 1.0
C      1  0.3905270000000  0.5308950000000  0.5022180000000 1.0
C      1  0.5413280000000  0.5448620000000  0.5974520000000 1.0
C      1  0.5417170000000  0.4567070000000  0.4024390000000 1.0
C      1  0.4782140000000  0.6274890000000  0.5242080000000 1.0
C      1  0.4791020000000  0.3685860000000  0.4714610000000 1.0
C      1  0.4863550000000  0.4812390000000  0.5718220000000 1.0
C      1  0.4860590000000  0.5192200000000  0.4276890000000 1.0
C      1  0.6035010000000  0.4589600000000  0.4977840000000 1.0
C      1  0.6033130000000  0.5402730000000  0.5017870000000 1.0
C      1  0.5467260000000  0.5463610000000  0.4913500000000 1.0
C      1  0.5479810000000  0.4513240000000  0.5090000000000 1.0
C      1  0.5758940000000  0.4630240000000  0.5729750000000 1.0
C      1  0.5774420000000  0.5364770000000  0.4252640000000 1.0
C      1  0.5877930000000  0.5655060000000  0.5006260000000 1.0
C      1  0.5891970000000  0.4329390000000  0.4986790000000 1.0
C      1  0.4406250000000  0.4591670000000  0.5476170000000 1.0
C      1  0.4375440000000  0.5441260000000  0.4507120000000 1.0
C      1  0.5666610000000  0.4937580000000  0.4882410000000 1.0
C      1  0.5663940000000  0.5049650000000  0.5126620000000 1.0
C      1  0.4478740000000  0.5348660000000  0.4993930000000 1.0
C      1  0.4469510000000  0.4629300000000  0.5026400000000 1.0
C      1  0.4752980000000  0.4523080000000  0.4186150000000 1.0
C      1  0.4729420000000  0.5521870000000  0.5857580000000 1.0
C      1  0.5635350000000  0.4954960000000  0.5824170000000 1.0
C      1  0.5640140000000  0.5054340000000  0.4184370000000 1.0
C      1  0.4496450000000  0.4641230000000  0.4114530000000 1.0
C      1  0.4478150000000  0.5392690000000  0.5927190000000 1.0
C      1  0.5199110000000  0.5113730000000  0.5533860000000 1.0
C      1  0.5211880000000  0.4910070000000  0.4458100000000 1.0
C      1  0.5649540000000  0.5255940000000  0.5946560000000 1.0
C      1  0.5653210000000  0.4762200000000  0.4048660000000 1.0
C      1  0.4482330000000  0.4504100000000  0.5744840000000 1.0
C      1  0.4522120000000  0.5559970000000  0.4283320000000 1.0
C      1  0.5021090000000  0.5933510000000  0.5294640000000 1.0
C      1  0.5019320000000  0.4035450000000  0.4669230000000 1.0
C      1  0.4525430000000  0.4102020000000  0.4678970000000 1.0
C      1  0.4522650000000  0.5851780000000  0.5287840000000 1.0
C      1  0.5274520000000  0.4953010000000  0.5302820000000 1.0
C      1  0.5275830000000  0.5061270000000  0.4700420000000 1.0
C      1  0.5834860000000  0.4336230000000  0.5439800000000 1.0
C      1  0.5815860000000  0.5646850000000  0.4560940000000 1.0
C      1  0.5167770000000  0.5499990000000  0.3889180000000 1.0
C      1  0.5149580000000  0.4495950000000  0.6082990000000 1.0
C      1  0.5365690000000  0.4821190000000  0.5828700000000 1.0
C      1  0.5375320000000  0.5191390000000  0.4167130000000 1.0
C      1  0.5373670000000  0.5458880000000  0.4087880000000 1.0
C      1  0.5354600000000  0.4547740000000  0.5885360000000 1.0
C      1  0.5170870000000  0.5220470000000  0.3756810000000 1.0
C      1  0.5156660000000  0.4774090000000  0.6229480000000 1.0
C      1  0.5075170000000  0.4950280000000  0.3909660000000 1.0
C      1  0.5071610000000  0.5064490000000  0.6086660000000 1.0
C      1  0.5238900000000  0.6152550000000  0.4888420000000 1.0
C      1  0.5240250000000  0.3827750000000  0.5078150000000 1.0
C      1  0.4340720000000  0.5017260000000  0.4342010000000 1.0
C      1  0.4376670000000  0.5023340000000  0.5649090000000 1.0
C      1  0.3977350000000  0.4278800000000  0.5439920000000 1.0
C      1  0.4095590000000  0.5560410000000  0.4561890000000 1.0
C      1  0.4347580000000  0.5104290000000  0.4886170000000 1.0
C      1  0.4349050000000  0.4887820000000  0.5116400000000 1.0
C      1  0.3908370000000  0.4860470000000  0.4765080000000 1.0
C      1  0.3905490000000  0.5126320000000  0.5256340000000 1.0
C      1  0.4902220000000  0.3964760000000  0.4223220000000 1.0
C      1  0.4903930000000  0.6008210000000  0.5728550000000 1.0
C      1  0.5125490000000  0.5587590000000  0.5585480000000 1.0
C      1  0.5055430000000  0.4537960000000  0.4598920000000 1.0
C      1  0.5825120000000  0.5262780000000  0.5473450000000 1.0
C      1  0.5820420000000  0.4733000000000  0.4525420000000 1.0
C      1  0.4222420000000  0.3962290000000  0.5161380000000 1.0
C      1  0.4208600000000  0.6001530000000  0.4804970000000 1.0
C      1  0.5446070000000  0.5873160000000  0.5597220000000 1.0
C      1  0.5448430000000  0.4125100000000  0.4387610000000 1.0
C      1  0.4903930000000  0.3715590000000  0.4422910000000 1.0
C      1  0.4885970000000  0.6258480000000  0.5534800000000 1.0
C      1  0.5379830000000  0.5762310000000  0.5870150000000 1.0
C      1  0.5370410000000  0.4251750000000  0.4129810000000 1.0
C      1  0.4019470000000  0.4253150000000  0.4701200000000 1.0
C      1  0.4017000000000  0.5718540000000  0.5313980000000 1.0
C      1  0.4651950000000  0.4087900000000  0.5600120000000 1.0
C      1  0.4640630000000  0.5846720000000  0.4343550000000 1.0
C      1  0.4016010000000  0.4384240000000  0.4963860000000 1.0
C      1  0.3992640000000  0.5595650000000  0.5050400000000 1.0
C      1  0.4924130000000  0.5575490000000  0.4032950000000 1.0
C      1  0.4899020000000  0.4422490000000  0.5948240000000 1.0
C      1  0.5105830000000  0.4969270000000  0.5788220000000 1.0
C      1  0.5110920000000  0.5047950000000  0.4206590000000 1.0
C      1  0.5153570000000  0.5359230000000  0.6095580000000 1.0
C      1  0.5153650000000  0.4657330000000  0.3910020000000 1.0
C      1  0.4693760000000  0.5694650000000  0.4765780000000 1.0
C      1  0.4671920000000  0.4298460000000  0.5237320000000 1.0
C      1  0.5083430000000  0.5832880000000  0.5933620000000 1.0
C      1  0.5077390000000  0.4183360000000  0.4063580000000 1.0
C      1  0.5714280000000  0.5005450000000  0.5546580000000 1.0
C      1  0.5713440000000  0.4993170000000  0.4458750000000 1.0
C      1  0.4327760000000  0.5174230000000  0.4096900000000 1.0
C      1  0.4336840000000  0.4868890000000  0.5893400000000 1.0
C      1  0.5577510000000  0.4664500000000  0.4861000000000 1.0
C      1  0.5572710000000  0.5321490000000  0.5143070000000 1.0
C      1  0.4831740000000  0.5556270000000  0.5581400000000 1.0
C      1  0.4819300000000  0.4444500000000  0.4462510000000 1.0
C      1  0.5581170000000  0.5445260000000  0.5414460000000 1.0
C      1  0.5574930000000  0.4550030000000  0.4583900000000 1.0
C      1  0.4142830000000  0.5714280000000  0.4825350000000 1.0
C      1  0.4150140000000  0.4248560000000  0.5198060000000 1.0
C      1  0.5568940000000  0.5115650000000  0.4680310000000 1.0
C      1  0.5563330000000  0.4876200000000  0.5330920000000 1.0
C      1  0.6197560000000  0.4994350000000  0.5268050000000 1.0
C      1  0.6197360000000  0.4998740000000  0.4727070000000 1.0
C      1  0.4446390000000  0.5192930000000  0.6137000000000 1.0
C      1  0.4453250000000  0.4828380000000  0.3894380000000 1.0
C      1  0.4400620000000  0.4409910000000  0.5230410000000 1.0
C      1  0.4432320000000  0.5573670000000  0.4812450000000 1.0
C      1  0.5022740000000  0.6014380000000  0.5017040000000 1.0
C      1  0.5018890000000  0.3952660000000  0.4945460000000 1.0
C      1  0.5802020000000  0.4142510000000  0.4770710000000 1.0
C      1  0.5804270000000  0.5854510000000  0.5215840000000 1.0
C      1  0.4702300000000  0.5363880000000  0.4084490000000 1.0
C      1  0.4694800000000  0.4650770000000  0.5917150000000 1.0
C      1  0.4781240000000  0.5249800000000  0.4546490000000 1.0
C      1  0.4794130000000  0.4749650000000  0.5446050000000 1.0
C      1  0.5475340000000  0.6024370000000  0.4779740000000 1.0
C      1  0.5468850000000  0.3969370000000  0.5186440000000 1.0
C      1  0.5690560000000  0.4325010000000  0.5194850000000 1.0
C      1  0.5670600000000  0.5654290000000  0.4805460000000 1.0
C      1  0.5725560000000  0.6043140000000  0.4955810000000 1.0
C      1  0.5719180000000  0.3947490000000  0.5013150000000 1.0
C      1  0.5135810000000  0.5933370000000  0.4407300000000 1.0
C      1  0.5121570000000  0.4066800000000  0.5562340000000 1.0
C      1  0.4496480000000  0.3863700000000  0.5130210000000 1.0
C      1  0.4486030000000  0.6096100000000  0.4828940000000 1.0
C      1  0.4967000000000  0.6125720000000  0.4569490000000 1.0
C      1  0.4976340000000  0.3855350000000  0.5403580000000 1.0
C      1  0.4903680000000  0.4272810000000  0.5673320000000 1.0
C      1  0.4938020000000  0.5721010000000  0.4311850000000 1.0
C      1  0.5982190000000  0.4583390000000  0.5513460000000 1.0
C      1  0.5980780000000  0.5412210000000  0.4485610000000 1.0
C      1  0.4734060000000  0.4630090000000  0.4887430000000 1.0
C      1  0.4738110000000  0.5327010000000  0.5129690000000 1.0
C      1  0.5537080000000  0.4362870000000  0.5733860000000 1.0
C      1  0.5556590000000  0.5650810000000  0.4231910000000 1.0
C      1  0.4469670000000  0.5148200000000  0.4589060000000 1.0
C      1  0.4492120000000  0.4878320000000  0.5404300000000 1.0
C      1  0.4268790000000  0.5814520000000  0.5432230000000 1.0
C      1  0.4261490000000  0.4157270000000  0.4559330000000 1.0
C      1  0.5125310000000  0.4983470000000  0.5009070000000 1.0
END
