TITL C-862131-2149-692 -2.4320159141322e-05 125000 -924.762608010025 0 0 162 (D6) n - 1
REM
REM in /home/nfs/bkarasulu/CARBON/AIRSS/Generating-Clusters/TERSOFF/Higher-Symm/FIRE-HFTN
REM
REM
REM
REM
REM
REM ./C.cell (b20cbc046b6831c77cfcea5457e17084)
REM AIRSS Version 0.9.1 bugfix July 2018 build 013d7b7c2542+ Fri, 06 Jul 2018 19:26:36 +0100
REM compiler GCC version 9.2.1 20190827 (Red Hat 9.2.1-1)
REM options -cpp -mtune=generic -march=x86-64 -g -O0 -fpre-include=/usr/include/finclude/math-vector-fortran.h
REM seed 1788397733 -1552662480 1864152089 1418682185 1455095465 -319177160 856568708 -1503577826 1820590169 -149564337 -1562555826 2106345774 89571769 1919631652 -828462790 -1595743797 -23478660 -1659028783 310238108 -1529131368 -1431733751 1547944447 -985101628 938335407 1307766173 -137254235 -943279702 -1096637513 -562003030 -2135295196 -174179396 -2071102563 466010477
REM
CELL 1.54180   50.00000   50.00000   50.00000   90.00000   90.00000   90.00000
LATT -1
SFAC C  
C      1  0.5582810000000  0.4994870000000  0.6151540000000 1.0
C      1  0.5295840000000  0.5502170000000  0.6151540000000 1.0
C      1  0.4713030000000  0.5507290000000  0.6151540000000 1.0
C      1  0.4417190000000  0.5005130000000  0.6151540000000 1.0
C      1  0.4704160000000  0.4497830000000  0.6151540000000 1.0
C      1  0.5286970000000  0.4492710000000  0.6151540000000 1.0
C      1  0.4417190000000  0.4994870000000  0.3837970000000 1.0
C      1  0.4704160000000  0.5502170000000  0.3837970000000 1.0
C      1  0.5286970000000  0.5507290000000  0.3837970000000 1.0
C      1  0.5582810000000  0.5005130000000  0.3837970000000 1.0
C      1  0.5295840000000  0.4497830000000  0.3837970000000 1.0
C      1  0.4713030000000  0.4492710000000  0.3837970000000 1.0
C      1  0.5214190000000  0.4742420000000  0.4821660000000 1.0
C      1  0.5330170000000  0.5056710000000  0.4821660000000 1.0
C      1  0.5115970000000  0.5314290000000  0.4821660000000 1.0
C      1  0.4785810000000  0.5257580000000  0.4821660000000 1.0
C      1  0.4669830000000  0.4943290000000  0.4821660000000 1.0
C      1  0.4884030000000  0.4685710000000  0.4821660000000 1.0
C      1  0.4785810000000  0.4742420000000  0.5167860000000 1.0
C      1  0.4669830000000  0.5056710000000  0.5167860000000 1.0
C      1  0.4884030000000  0.5314290000000  0.5167860000000 1.0
C      1  0.5214190000000  0.5257580000000  0.5167860000000 1.0
C      1  0.5330170000000  0.4943290000000  0.5167860000000 1.0
C      1  0.5115970000000  0.4685710000000  0.5167860000000 1.0
C      1  0.5959230000000  0.5455460000000  0.5330830000000 1.0
C      1  0.5085170000000  0.6058440000000  0.5330830000000 1.0
C      1  0.4125950000000  0.5602990000000  0.5330830000000 1.0
C      1  0.4040770000000  0.4544540000000  0.5330830000000 1.0
C      1  0.4914830000000  0.3941560000000  0.5330830000000 1.0
C      1  0.5874050000000  0.4397010000000  0.5330830000000 1.0
C      1  0.4040770000000  0.5455460000000  0.4658680000000 1.0
C      1  0.4914830000000  0.6058440000000  0.4658680000000 1.0
C      1  0.5874050000000  0.5602990000000  0.4658680000000 1.0
C      1  0.5959230000000  0.4544540000000  0.4658680000000 1.0
C      1  0.5085170000000  0.3941560000000  0.4658680000000 1.0
C      1  0.4125950000000  0.4397010000000  0.4658680000000 1.0
C      1  0.4449760000000  0.5176700000000  0.4552280000000 1.0
C      1  0.4571850000000  0.4611830000000  0.4552280000000 1.0
C      1  0.5122090000000  0.4435130000000  0.4552280000000 1.0
C      1  0.5550240000000  0.4823300000000  0.4552280000000 1.0
C      1  0.5428150000000  0.5388170000000  0.4552280000000 1.0
C      1  0.4877910000000  0.5564870000000  0.4552280000000 1.0
C      1  0.5550240000000  0.5176700000000  0.5437240000000 1.0
C      1  0.5428150000000  0.4611830000000  0.5437240000000 1.0
C      1  0.4877910000000  0.4435130000000  0.5437240000000 1.0
C      1  0.4449760000000  0.4823300000000  0.5437240000000 1.0
C      1  0.4571850000000  0.5388170000000  0.5437240000000 1.0
C      1  0.5122090000000  0.5564870000000  0.5437240000000 1.0
C      1  0.4725830000000  0.4909260000000  0.5556650000000 1.0
C      1  0.4941490000000  0.4717190000000  0.5556650000000 1.0
C      1  0.5215670000000  0.4807930000000  0.5556650000000 1.0
C      1  0.5274170000000  0.5090740000000  0.5556650000000 1.0
C      1  0.5058510000000  0.5282810000000  0.5556650000000 1.0
C      1  0.4784330000000  0.5192070000000  0.5556650000000 1.0
C      1  0.5274170000000  0.4909260000000  0.4432860000000 1.0
C      1  0.5058510000000  0.4717190000000  0.4432860000000 1.0
C      1  0.4784330000000  0.4807930000000  0.4432860000000 1.0
C      1  0.4725830000000  0.5090740000000  0.4432860000000 1.0
C      1  0.4941490000000  0.5282810000000  0.4432860000000 1.0
C      1  0.5215670000000  0.5192070000000  0.4432860000000 1.0
C      1  0.5413140000000  0.5480510000000  0.5331470000000 1.0
C      1  0.4790440000000  0.5598040000000  0.5331470000000 1.0
C      1  0.4377300000000  0.5117540000000  0.5331470000000 1.0
C      1  0.4586860000000  0.4519490000000  0.5331470000000 1.0
C      1  0.5209560000000  0.4401960000000  0.5331470000000 1.0
C      1  0.5622700000000  0.4882460000000  0.5331470000000 1.0
C      1  0.4586860000000  0.5480510000000  0.4658040000000 1.0
C      1  0.5209560000000  0.5598040000000  0.4658040000000 1.0
C      1  0.5622700000000  0.5117540000000  0.4658040000000 1.0
C      1  0.5413140000000  0.4519490000000  0.4658040000000 1.0
C      1  0.4790440000000  0.4401960000000  0.4658040000000 1.0
C      1  0.4377300000000  0.4882460000000  0.4658040000000 1.0
C      1  0.5703780000000  0.4434340000000  0.4526610000000 1.0
C      1  0.5841770000000  0.5326660000000  0.4526610000000 1.0
C      1  0.5137990000000  0.5892320000000  0.4526610000000 1.0
C      1  0.4296220000000  0.5565660000000  0.4526610000000 1.0
C      1  0.4158230000000  0.4673340000000  0.4526610000000 1.0
C      1  0.4862010000000  0.4107680000000  0.4526610000000 1.0
C      1  0.4296220000000  0.4434340000000  0.5462900000000 1.0
C      1  0.4158230000000  0.5326660000000  0.5462900000000 1.0
C      1  0.4862010000000  0.5892320000000  0.5462900000000 1.0
C      1  0.5703780000000  0.5565660000000  0.5462900000000 1.0
C      1  0.5841770000000  0.4673340000000  0.5462900000000 1.0
C      1  0.5137990000000  0.4107680000000  0.5462900000000 1.0
C      1  0.4633700000000  0.4037750000000  0.5245510000000 1.0
C      1  0.5650190000000  0.4201650000000  0.5245510000000 1.0
C      1  0.6016490000000  0.5163910000000  0.5245510000000 1.0
C      1  0.5366300000000  0.5962250000000  0.5245510000000 1.0
C      1  0.4349810000000  0.5798350000000  0.5245510000000 1.0
C      1  0.3983510000000  0.4836090000000  0.5245510000000 1.0
C      1  0.5366300000000  0.4037750000000  0.4744000000000 1.0
C      1  0.4349810000000  0.4201650000000  0.4744000000000 1.0
C      1  0.3983510000000  0.5163910000000  0.4744000000000 1.0
C      1  0.4633700000000  0.5962250000000  0.4744000000000 1.0
C      1  0.5650190000000  0.5798350000000  0.4744000000000 1.0
C      1  0.6016490000000  0.4836090000000  0.4744000000000 1.0
C      1  0.4491470000000  0.5436990000000  0.5085240000000 1.0
C      1  0.4367300000000  0.4778100000000  0.5085240000000 1.0
C      1  0.4875820000000  0.4341110000000  0.5085240000000 1.0
C      1  0.5508530000000  0.4563010000000  0.5085240000000 1.0
C      1  0.5632700000000  0.5221900000000  0.5085240000000 1.0
C      1  0.5124180000000  0.5658890000000  0.5085240000000 1.0
C      1  0.5508530000000  0.5436990000000  0.4904280000000 1.0
C      1  0.5632700000000  0.4778100000000  0.4904280000000 1.0
C      1  0.5124180000000  0.4341110000000  0.4904280000000 1.0
C      1  0.4491470000000  0.4563010000000  0.4904280000000 1.0
C      1  0.4367300000000  0.5221900000000  0.4904280000000 1.0
C      1  0.4875820000000  0.5658890000000  0.4904280000000 1.0
C      1  0.5144680000000  0.4744370000000  0.6194950000000 1.0
C      1  0.5293720000000  0.4997480000000  0.6194950000000 1.0
C      1  0.5149050000000  0.5253110000000  0.6194950000000 1.0
C      1  0.4855320000000  0.5255630000000  0.6194950000000 1.0
C      1  0.4706280000000  0.5002520000000  0.6194950000000 1.0
C      1  0.4850950000000  0.4746890000000  0.6194950000000 1.0
C      1  0.4855320000000  0.4744370000000  0.3794560000000 1.0
C      1  0.4706280000000  0.4997480000000  0.3794560000000 1.0
C      1  0.4850950000000  0.5253110000000  0.3794560000000 1.0
C      1  0.5144680000000  0.5255630000000  0.3794560000000 1.0
C      1  0.5293720000000  0.5002520000000  0.3794560000000 1.0
C      1  0.5149050000000  0.4746890000000  0.3794560000000 1.0
C      1  0.4622160000000  0.4396740000000  0.5890250000000 1.0
C      1  0.5333520000000  0.4371150000000  0.5890250000000 1.0
C      1  0.5711350000000  0.4974410000000  0.5890250000000 1.0
C      1  0.5377840000000  0.5603260000000  0.5890250000000 1.0
C      1  0.4666480000000  0.5628850000000  0.5890250000000 1.0
C      1  0.4288650000000  0.5025590000000  0.5890250000000 1.0
C      1  0.5377840000000  0.4396740000000  0.4099260000000 1.0
C      1  0.4666490000000  0.4371150000000  0.4099260000000 1.0
C      1  0.4288650000000  0.4974410000000  0.4099260000000 1.0
C      1  0.4622160000000  0.5603260000000  0.4099260000000 1.0
C      1  0.5333510000000  0.5628850000000  0.4099260000000 1.0
C      1  0.5711350000000  0.5025590000000  0.4099260000000 1.0
C      1  0.4352990000000  0.4485640000000  0.5774950000000 1.0
C      1  0.5121940000000  0.4182490000000  0.5774950000000 1.0
C      1  0.5768950000000  0.4696850000000  0.5774950000000 1.0
C      1  0.5647010000000  0.5514360000000  0.5774950000000 1.0
C      1  0.4878060000000  0.5817510000000  0.5774950000000 1.0
C      1  0.4231050000000  0.5303150000000  0.5774950000000 1.0
C      1  0.5647010000000  0.4485640000000  0.4214570000000 1.0
C      1  0.4878060000000  0.4182490000000  0.4214570000000 1.0
C      1  0.4231050000000  0.4696850000000  0.4214570000000 1.0
C      1  0.4352990000000  0.5514360000000  0.4214570000000 1.0
C      1  0.5121940000000  0.5817510000000  0.4214570000000 1.0
C      1  0.5768950000000  0.5303150000000  0.4214570000000 1.0
C      1  0.4834740000000  0.4290650000000  0.5701910000000 1.0
C      1  0.5531680000000  0.4502200000000  0.5701910000000 1.0
C      1  0.5696950000000  0.5211550000000  0.5701910000000 1.0
C      1  0.5165260000000  0.5709350000000  0.5701910000000 1.0
C      1  0.4468320000000  0.5497800000000  0.5701910000000 1.0
C      1  0.4303050000000  0.4788450000000  0.5701910000000 1.0
C      1  0.5165260000000  0.4290650000000  0.4287610000000 1.0
C      1  0.4468320000000  0.4502200000000  0.4287610000000 1.0
C      1  0.4303050000000  0.5211550000000  0.4287610000000 1.0
C      1  0.4834740000000  0.5709350000000  0.4287610000000 1.0
C      1  0.5531680000000  0.5497800000000  0.4287610000000 1.0
C      1  0.5696950000000  0.4788450000000  0.4287610000000 1.0
C      1  0.5856570000000  0.5000000000000  0.4994760000000 1.0
C      1  0.4571710000000  0.4258180000000  0.4994760000000 1.0
C      1  0.5428290000000  0.4258180000000  0.4994760000000 1.0
C      1  0.5428290000000  0.5741820000000  0.4994760000000 1.0
C      1  0.4143430000000  0.5000000000000  0.4994760000000 1.0
C      1  0.4571710000000  0.5741820000000  0.4994760000000 1.0
END
