TITL C-862504-1170-314 9.12678455496132e-05 125000 -776.41411699128 0 0 142 (C3) n - 1
REM
REM in /home/nfs/bkarasulu/CARBON/AIRSS/Generating-Clusters/TERSOFF/Higher-Symm/FIRE-HFTN
REM
REM
REM
REM
REM
REM ./C.cell (b20cbc046b6831c77cfcea5457e17084)
REM AIRSS Version 0.9.1 bugfix July 2018 build 013d7b7c2542+ Fri, 06 Jul 2018 19:26:36 +0100
REM compiler GCC version 9.2.1 20190827 (Red Hat 9.2.1-1)
REM options -cpp -mtune=generic -march=x86-64 -g -O0 -fpre-include=/usr/include/finclude/math-vector-fortran.h
REM seed -717398812 -1833201633 1967844143 -1286790857 -1349010403 108415416 793533527 198978548 -1096683114 669928975 -551715183 671037617 689693379 753471163 -793811434 -967896628 -867711203 -204639073 1281859295 440935485 1707211593 169977324 -1891797530 187553650 1670249414 595152564 802352575 -1912214669 -691940059 1363380603 1540525694 69098975 275423219
REM
CELL 1.54180   50.00000   50.00000   50.00000   90.00000   90.00000   90.00000
LATT -1
SFAC C  
C      1  0.4421210000000  0.5045960000000  0.5733720000000 1.0
C      1  0.5326540000000  0.5473810000000  0.5733730000000 1.0
C      1  0.5244410000000  0.4475840000000  0.5733730000000 1.0
C      1  0.5120780000000  0.5967960000000  0.5576100000000 1.0
C      1  0.5775240000000  0.4406960000000  0.5576100000000 1.0
C      1  0.4096140000000  0.4620680000000  0.5576100000000 1.0
C      1  0.5324780000000  0.3923310000000  0.5118050000000 1.0
C      1  0.3902520000000  0.5252620000000  0.5118040000000 1.0
C      1  0.5764860000000  0.5819670000000  0.5118050000000 1.0
C      1  0.4369710000000  0.4930310000000  0.5003140000000 1.0
C      1  0.5252140000000  0.5576230000000  0.5003150000000 1.0
C      1  0.5370320000000  0.4489060000000  0.5003150000000 1.0
C      1  0.5211890000000  0.5110590000000  0.5344840000000 1.0
C      1  0.4987180000000  0.4756740000000  0.5344840000000 1.0
C      1  0.4793090000000  0.5128270000000  0.5344840000000 1.0
C      1  0.4865790000000  0.4032040000000  0.5198560000000 1.0
C      1  0.4226170000000  0.5595750000000  0.5198550000000 1.0
C      1  0.5900200000000  0.5367820000000  0.5198560000000 1.0
C      1  0.4038300000000  0.5564760000000  0.4723950000000 1.0
C      1  0.5967300000000  0.5546020000000  0.4723960000000 1.0
C      1  0.4986570000000  0.3884820000000  0.4723960000000 1.0
C      1  0.4380660000000  0.4308110000000  0.5286700000000 1.0
C      1  0.4707830000000  0.5877850000000  0.5286700000000 1.0
C      1  0.5903680000000  0.4809640000000  0.5286710000000 1.0
C      1  0.5644160000000  0.4434790000000  0.5122530000000 1.0
C      1  0.4185790000000  0.4720290000000  0.5122530000000 1.0
C      1  0.5162220000000  0.5840520000000  0.5122530000000 1.0
C      1  0.5205310000000  0.5204780000000  0.5650540000000 1.0
C      1  0.5072040000000  0.4715340000000  0.5650540000000 1.0
C      1  0.4714810000000  0.5075480000000  0.5650530000000 1.0
C      1  0.5723380000000  0.5586820000000  0.4529720000000 1.0
C      1  0.5143870000000  0.4075670000000  0.4529720000000 1.0
C      1  0.4124930000000  0.5333120000000  0.4529710000000 1.0
C      1  0.4853880000000  0.5677700000000  0.5085580000000 1.0
C      1  0.5657320000000  0.4783230000000  0.5085580000000 1.0
C      1  0.4480970000000  0.4534670000000  0.5085580000000 1.0
C      1  0.4902660000000  0.4538380000000  0.4698160000000 1.0
C      1  0.4646250000000  0.5310650000000  0.4698160000000 1.0
C      1  0.5443260000000  0.5146570000000  0.4698160000000 1.0
C      1  0.5942410000000  0.5040720000000  0.5458300000000 1.0
C      1  0.4561400000000  0.4159030000000  0.5458290000000 1.0
C      1  0.4488340000000  0.5795860000000  0.5458290000000 1.0
C      1  0.5476150000000  0.4958740000000  0.5288880000000 1.0
C      1  0.4723550000000  0.4603810000000  0.5288880000000 1.0
C      1  0.4792470000000  0.5433050000000  0.5288880000000 1.0
C      1  0.4678560000000  0.4702470000000  0.4833330000000 1.0
C      1  0.4900410000000  0.5422680000000  0.4833330000000 1.0
C      1  0.5413200000000  0.4870450000000  0.4833330000000 1.0
C      1  0.4889240000000  0.4337270000000  0.5178180000000 1.0
C      1  0.4478790000000  0.5422830000000  0.5178180000000 1.0
C      1  0.5624140000000  0.5235500000000  0.5178180000000 1.0
C      1  0.5946120000000  0.5605690000000  0.5033610000000 1.0
C      1  0.5048840000000  0.3873330000000  0.5033610000000 1.0
C      1  0.3997210000000  0.5516580000000  0.5033600000000 1.0
C      1  0.4834790000000  0.5258570000000  0.5838840000000 1.0
C      1  0.5303880000000  0.5009320000000  0.5838840000000 1.0
C      1  0.4853480000000  0.4727710000000  0.5838840000000 1.0
C      1  0.5398770000000  0.4156070000000  0.4649710000000 1.0
C      1  0.4067100000000  0.5072160000000  0.4649700000000 1.0
C      1  0.5526300000000  0.5767370000000  0.4649710000000 1.0
C      1  0.5173780000000  0.4787530000000  0.5057690000000 1.0
C      1  0.4726450000000  0.4951270000000  0.5057690000000 1.0
C      1  0.5091930000000  0.5256800000000  0.5057690000000 1.0
C      1  0.4045760000000  0.4830610000000  0.5363010000000 1.0
C      1  0.5327770000000  0.5906630000000  0.5363020000000 1.0
C      1  0.5618620000000  0.4258370000000  0.5363020000000 1.0
C      1  0.5072760000000  0.5670540000000  0.5663070000000 1.0
C      1  0.5541680000000  0.4597250000000  0.5663080000000 1.0
C      1  0.4377720000000  0.4727800000000  0.5663070000000 1.0
C      1  0.4389350000000  0.5360650000000  0.4340240000000 1.0
C      1  0.5615020000000  0.5344060000000  0.4340250000000 1.0
C      1  0.4987810000000  0.4290890000000  0.4340240000000 1.0
C      1  0.5750580000000  0.5060930000000  0.4351250000000 1.0
C      1  0.4674830000000  0.4315060000000  0.4351240000000 1.0
C      1  0.4566760000000  0.5619620000000  0.4351240000000 1.0
C      1  0.4094520000000  0.4379710000000  0.5350710000000 1.0
C      1  0.4912910000000  0.6089850000000  0.5350720000000 1.0
C      1  0.5984740000000  0.4526040000000  0.5350720000000 1.0
C      1  0.4462420000000  0.5146890000000  0.4143570000000 1.0
C      1  0.5393360000000  0.5387650000000  0.4143570000000 1.0
C      1  0.5136400000000  0.4461060000000  0.4143570000000 1.0
C      1  0.5732190000000  0.5150190000000  0.5628030000000 1.0
C      1  0.4761320000000  0.4286350000000  0.5628030000000 1.0
C      1  0.4498650000000  0.5559060000000  0.5628030000000 1.0
C      1  0.4848660000000  0.6013020000000  0.4756720000000 1.0
C      1  0.5950320000000  0.4620090000000  0.4756730000000 1.0
C      1  0.4193180000000  0.4362490000000  0.4756720000000 1.0
C      1  0.5374550000000  0.4072750000000  0.5398830000000 1.0
C      1  0.4007060000000  0.5134800000000  0.5398820000000 1.0
C      1  0.5610560000000  0.5788050000000  0.5398830000000 1.0
C      1  0.5073110000000  0.4802170000000  0.4176130000000 1.0
C      1  0.4789470000000  0.5031150000000  0.4176130000000 1.0
C      1  0.5129600000000  0.5162290000000  0.4176130000000 1.0
C      1  0.5091370000000  0.5513480000000  0.5389660000000 1.0
C      1  0.5396350000000  0.4659670000000  0.5389660000000 1.0
C      1  0.4504440000000  0.4822450000000  0.5389650000000 1.0
C      1  0.4496780000000  0.5533400000000  0.4867960000000 1.0
C      1  0.5710900000000  0.5164640000000  0.4867970000000 1.0
C      1  0.4784490000000  0.4297560000000  0.4867970000000 1.0
C      1  0.5401760000000  0.4433620000000  0.4728400000000 1.0
C      1  0.4305980000000  0.4930800000000  0.4728400000000 1.0
C      1  0.5284440000000  0.5631180000000  0.4728400000000 1.0
C      1  0.5494820000000  0.3983580000000  0.4878440000000 1.0
C      1  0.3869700000000  0.5075230000000  0.4878440000000 1.0
C      1  0.5627650000000  0.5936790000000  0.4878450000000 1.0
C      1  0.5096600000000  0.4719710000000  0.4511120000000 1.0
C      1  0.4706320000000  0.5052030000000  0.4511120000000 1.0
C      1  0.5189260000000  0.5223860000000  0.4511120000000 1.0
C      1  0.4582510000000  0.4073370000000  0.4487140000000 1.0
C      1  0.4403620000000  0.5820420000000  0.4487140000000 1.0
C      1  0.6006050000000  0.5101820000000  0.4487140000000 1.0
C      1  0.5943310000000  0.4422930000000  0.5005130000000 1.0
C      1  0.4025940000000  0.4467150000000  0.5005120000000 1.0
C      1  0.5022920000000  0.6105520000000  0.5005120000000 1.0
C      1  0.4211590000000  0.4493040000000  0.4488210000000 1.0
C      1  0.4952520000000  0.5931810000000  0.4488220000000 1.0
C      1  0.5828060000000  0.4570750000000  0.4488220000000 1.0
C      1  0.4266080000000  0.5282970000000  0.5602510000000 1.0
C      1  0.5609360000000  0.5489640000000  0.5602520000000 1.0
C      1  0.5116710000000  0.4222990000000  0.5602510000000 1.0
C      1  0.5416930000000  0.4690320000000  0.4138450000000 1.0
C      1  0.4520700000000  0.4789310000000  0.4138450000000 1.0
C      1  0.5054550000000  0.5515980000000  0.4138450000000 1.0
C      1  0.4791030000000  0.5537120000000  0.5775080000000 1.0
C      1  0.5566990000000  0.4907950000000  0.5775090000000 1.0
C      1  0.4634140000000  0.4550530000000  0.5775080000000 1.0
C      1  0.4465170000000  0.4312070000000  0.4875980000000 1.0
C      1  0.4669000000000  0.5802680000000  0.4875980000000 1.0
C      1  0.5857990000000  0.4880850000000  0.4875990000000 1.0
C      1  0.5972770000000  0.5256820000000  0.4729650000000 1.0
C      1  0.4733380000000  0.4024680000000  0.4729650000000 1.0
C      1  0.4286020000000  0.5714100000000  0.4729640000000 1.0
C      1  0.5610160000000  0.4760400000000  0.4368400000000 1.0
C      1  0.4484770000000  0.4586930000000  0.4368390000000 1.0
C      1  0.4897240000000  0.5648280000000  0.4368390000000 1.0
C      1  0.4533420000000  0.4814220000000  0.4583040000000 1.0
C      1  0.5069760000000  0.5492500000000  0.4583040000000 1.0
C      1  0.5389000000000  0.4688870000000  0.4583040000000 1.0
C      1  0.5188840000000  0.4407520000000  0.5232580000000 1.0
C      1  0.4389830000000  0.5128240000000  0.5232580000000 1.0
C      1  0.5413500000000  0.5459840000000  0.5232580000000 1.0
C      1  0.4997390000000  0.4998530000000  0.4562840000000 1.0
END
