TITL C-862131-2149-1211 0.000426200575323305 125000 -621.770632773031 0 0 113 (C3) n - 1
REM
REM in /home/nfs/bkarasulu/CARBON/AIRSS/Generating-Clusters/TERSOFF/Higher-Symm/FIRE-HFTN
REM
REM
REM
REM
REM
REM ./C.cell (b20cbc046b6831c77cfcea5457e17084)
REM AIRSS Version 0.9.1 bugfix July 2018 build 013d7b7c2542+ Fri, 06 Jul 2018 19:26:36 +0100
REM compiler GCC version 9.2.1 20190827 (Red Hat 9.2.1-1)
REM options -cpp -mtune=generic -march=x86-64 -g -O0 -fpre-include=/usr/include/finclude/math-vector-fortran.h
REM seed 137671987 259567354 -52265831 -1775412552 1962210597 1087490160 -748806508 -176345361 1138730517 -410990997 -10891398 405351263 918366637 -1756556961 428788290 -1863521900 -2121907826 -1321932932 383583891 541967823 -1561407461 104812238 911273913 2043923869 -593042180 1366893646 -1325883137 1504085878 170039649 -643162776 648886326 183772597 1898291889
REM
CELL 1.54180   50.00000   50.00000   50.00000   90.00000   90.00000   90.00000
LATT -1
SFAC C  
C      1  0.5029540000000  0.5321390000000  0.5541840000000 1.0
C      1  0.4516880000000  0.5321390000000  0.4755200000000 1.0
C      1  0.5454470000000  0.5321390000000  0.4704550000000 1.0
C      1  0.5426000000000  0.4610040000000  0.4704410000000 1.0
C      1  0.5043890000000  0.4610050000000  0.5517260000000 1.0
C      1  0.4531000000000  0.4610050000000  0.4779920000000 1.0
C      1  0.5206590000000  0.5785960000000  0.5566920000000 1.0
C      1  0.4406650000000  0.5785960000000  0.4895980000000 1.0
C      1  0.5387670000000  0.5785950000000  0.4538680000000 1.0
C      1  0.5782420000000  0.4792030000000  0.5345970000000 1.0
C      1  0.4310070000000  0.4792040000000  0.5505150000000 1.0
C      1  0.4908400000000  0.4792030000000  0.4150470000000 1.0
C      1  0.5285460000000  0.5355990000000  0.5877400000000 1.0
C      1  0.4098330000000  0.5355990000000  0.4809050000000 1.0
C      1  0.5617110000000  0.5355980000000  0.4315140000000 1.0
C      1  0.5357900000000  0.5287310000000  0.4170910000000 1.0
C      1  0.5539970000000  0.5287310000000  0.5725030000000 1.0
C      1  0.4103030000000  0.5287320000000  0.5105650000000 1.0
C      1  0.4456620000000  0.5040400000000  0.4372420000000 1.0
C      1  0.5816090000000  0.5040400000000  0.4843740000000 1.0
C      1  0.4728180000000  0.5040400000000  0.5785420000000 1.0
C      1  0.4170190000000  0.4956970000000  0.5237750000000 1.0
C      1  0.5209920000000  0.4956960000000  0.4163030000000 1.0
C      1  0.5620790000000  0.4956960000000  0.5600810000000 1.0
C      1  0.5540740000000  0.5786750000000  0.5011860000000 1.0
C      1  0.4720260000000  0.5786750000000  0.5462890000000 1.0
C      1  0.4739900000000  0.5786750000000  0.4526820000000 1.0
C      1  0.5660870000000  0.4864970000000  0.5064760000000 1.0
C      1  0.4614380000000  0.4864970000000  0.5540490000000 1.0
C      1  0.4725630000000  0.4864970000000  0.4396340000000 1.0
C      1  0.4777270000000  0.5236820000000  0.5306430000000 1.0
C      1  0.4846900000000  0.5236820000000  0.4654430000000 1.0
C      1  0.5376730000000  0.5236820000000  0.5040730000000 1.0
C      1  0.5013530000000  0.5161620000000  0.4375690000000 1.0
C      1  0.5534810000000  0.5161620000000  0.5324410000000 1.0
C      1  0.4452560000000  0.5161620000000  0.5301490000000 1.0
C      1  0.4687440000000  0.4335180000000  0.4357370000000 1.0
C      1  0.5713720000000  0.4335170000000  0.5051180000000 1.0
C      1  0.4599720000000  0.4335180000000  0.5593050000000 1.0
C      1  0.5611830000000  0.5518980000000  0.5530500000000 1.0
C      1  0.4235570000000  0.5518980000000  0.5265140000000 1.0
C      1  0.5153500000000  0.5518980000000  0.4205950000000 1.0
C      1  0.4802940000000  0.4520670000000  0.5688350000000 1.0
C      1  0.4503300000000  0.4520660000000  0.4485710000000 1.0
C      1  0.5694640000000  0.4520660000000  0.4827530000000 1.0
C      1  0.5243300000000  0.4853290000000  0.4698700000000 1.0
C      1  0.5140180000000  0.4853290000000  0.5361890000000 1.0
C      1  0.4617410000000  0.4853290000000  0.4940990000000 1.0
C      1  0.4952640000000  0.4960740000000  0.5984430000000 1.0
C      1  0.4172040000000  0.4960740000000  0.4467300000000 1.0
C      1  0.5876210000000  0.4960730000000  0.4549850000000 1.0
C      1  0.4360240000000  0.5392400000000  0.5494750000000 1.0
C      1  0.4892320000000  0.5392400000000  0.4199110000000 1.0
C      1  0.5748340000000  0.5392400000000  0.5307730000000 1.0
C      1  0.4908600000000  0.4476900000000  0.4165730000000 1.0
C      1  0.5769100000000  0.4476900000000  0.5338520000000 1.0
C      1  0.4323190000000  0.4476900000000  0.5497340000000 1.0
C      1  0.4741840000000  0.4410720000000  0.4867340000000 1.0
C      1  0.5244870000000  0.4410720000000  0.4843300000000 1.0
C      1  0.5014170000000  0.4410720000000  0.5290950000000 1.0
C      1  0.5394470000000  0.4707510000000  0.4183510000000 1.0
C      1  0.5510770000000  0.4707510000000  0.5750400000000 1.0
C      1  0.4095650000000  0.4707520000000  0.5067680000000 1.0
C      1  0.5245600000000  0.5106560000000  0.5486440000000 1.0
C      1  0.4456830000000  0.5106560000000  0.4970010000000 1.0
C      1  0.5298460000000  0.5106560000000  0.4545130000000 1.0
C      1  0.4490320000000  0.5320070000000  0.4449880000000 1.0
C      1  0.5732160000000  0.5320070000000  0.4834200000000 1.0
C      1  0.4778410000000  0.5320070000000  0.5717510000000 1.0
C      1  0.5847480000000  0.5171150000000  0.4339220000000 1.0
C      1  0.5149420000000  0.5171160000000  0.6064860000000 1.0
C      1  0.4004000000000  0.5171160000000  0.4597500000000 1.0
C      1  0.5581740000000  0.5571210000000  0.4535170000000 1.0
C      1  0.5112600000000  0.5571220000000  0.5736750000000 1.0
C      1  0.4306570000000  0.5571220000000  0.4729670000000 1.0
C      1  0.4757340000000  0.5499200000000  0.5159110000000 1.0
C      1  0.4984440000000  0.5499200000000  0.4710830000000 1.0
C      1  0.5259120000000  0.5499200000000  0.5131650000000 1.0
C      1  0.5727620000000  0.5521110000000  0.5049070000000 1.0
C      1  0.4594600000000  0.5521120000000  0.5606130000000 1.0
C      1  0.4678680000000  0.5521110000000  0.4346380000000 1.0
C      1  0.4902960000000  0.5906680000000  0.4810880000000 1.0
C      1  0.5213210000000  0.5906680000000  0.5011050000000 1.0
C      1  0.4884730000000  0.5906680000000  0.5179650000000 1.0
C      1  0.5229190000000  0.4616350000000  0.5760910000000 1.0
C      1  0.4227350000000  0.4616350000000  0.4818570000000 1.0
C      1  0.5544350000000  0.4616350000000  0.4422120000000 1.0
C      1  0.4670250000000  0.4111860000000  0.4849550000000 1.0
C      1  0.5296070000000  0.4111850000000  0.4790190000000 1.0
C      1  0.5034570000000  0.4111860000000  0.5361850000000 1.0
C      1  0.4621880000000  0.4704500000000  0.5217440000000 1.0
C      1  0.5001650000000  0.4704500000000  0.4564360000000 1.0
C      1  0.5377350000000  0.4704500000000  0.5219790000000 1.0
C      1  0.4797280000000  0.4117960000000  0.4553450000000 1.0
C      1  0.5488990000000  0.4117960000000  0.5048260000000 1.0
C      1  0.4714620000000  0.4117960000000  0.5399890000000 1.0
C      1  0.4552950000000  0.4161530000000  0.5147220000000 1.0
C      1  0.5096930000000  0.4161530000000  0.4539780000000 1.0
C      1  0.5351000000000  0.4161530000000  0.5314590000000 1.0
C      1  0.4926150000000  0.4998980000000  0.5183700000000 1.0
C      1  0.4878740000000  0.4998980000000  0.4844730000000 1.0
C      1  0.5196000000000  0.4998980000000  0.4973160000000 1.0
C      1  0.5092140000000  0.4438830000000  0.4411570000000 1.0
C      1  0.5464430000000  0.4438830000000  0.5374560000000 1.0
C      1  0.4444310000000  0.4438830000000  0.5215470000000 1.0
C      1  0.5062370000000  0.4695660000000  0.5982330000000 1.0
C      1  0.4119000000000  0.4695660000000  0.4563390000000 1.0
C      1  0.5819520000000  0.4695650000000  0.4455870000000 1.0
C      1  0.5136430000000  0.5655750000000  0.4483110000000 1.0
C      1  0.5380330000000  0.5655750000000  0.5377130000000 1.0
C      1  0.4484140000000  0.5655750000000  0.5141350000000 1.0
C      1  0.5000300000000  0.5546510000000  0.5000530000000 1.0
C      1  0.5000300000000  0.4483920000000  0.5000530000000 1.0
END
