TITL C-862133-5440-1174 26.6872347337833 125000 -323.426438393216 0 0 57 (C1) n - 1
REM
REM in /home/nfs/bkarasulu/CARBON/AIRSS/Generating-Clusters/TERSOFF/Higher-Symm/FIRE-HFTN
REM
REM
REM
REM
REM
REM ./C.cell (b20cbc046b6831c77cfcea5457e17084)
REM AIRSS Version 0.9.1 bugfix July 2018 build 013d7b7c2542+ Fri, 06 Jul 2018 19:26:36 +0100
REM compiler GCC version 9.2.1 20190827 (Red Hat 9.2.1-1)
REM options -cpp -mtune=generic -march=x86-64 -g -O0 -fpre-include=/usr/include/finclude/math-vector-fortran.h
REM seed 1892256780 -1149435394 1952182672 -313905937 -1801010247 -1602793480 396268260 -443352421 422065667 -1061909266 557097012 -900834500 -271807126 1654714616 1915137026 2092319892 159764734 -531376734 187041134 -1327678581 -1275077128 1215271684 -871417646 2086780800 -958761211 -1204406824 -1331363746 1185727013 858030542 416551569 1930996475 1539534318 -802246681
REM
CELL 1.54180   50.00000   50.00000   50.00000   90.00000   90.00000   90.00000
LATT -1
SFAC C  
C      1  0.4720790000000  0.5632660000000  0.4945080000000 1.0
C      1  0.5529090000000  0.4595250000000  0.4516540000000 1.0
C      1  0.4873220000000  0.5189850000000  0.4322750000000 1.0
C      1  0.5261720000000  0.4605060000000  0.4875210000000 1.0
C      1  0.5161560000000  0.4943300000000  0.5749930000000 1.0
C      1  0.4870120000000  0.5554690000000  0.4697750000000 1.0
C      1  0.5253840000000  0.5236210000000  0.5364300000000 1.0
C      1  0.5232510000000  0.5604900000000  0.5564260000000 1.0
C      1  0.4465780000000  0.4967270000000  0.4447640000000 1.0
C      1  0.5275330000000  0.4666550000000  0.4389230000000 1.0
C      1  0.4201300000000  0.4840970000000  0.4847060000000 1.0
C      1  0.4425100000000  0.5561370000000  0.4962690000000 1.0
C      1  0.4439510000000  0.5053330000000  0.5228420000000 1.0
C      1  0.5640430000000  0.5290940000000  0.5211090000000 1.0
C      1  0.5513650000000  0.4748690000000  0.5468750000000 1.0
C      1  0.5132430000000  0.4898990000000  0.5145840000000 1.0
C      1  0.5526530000000  0.5289870000000  0.5514530000000 1.0
C      1  0.5353820000000  0.5240950000000  0.5044470000000 1.0
C      1  0.4986070000000  0.4738900000000  0.5592180000000 1.0
C      1  0.4705090000000  0.4341210000000  0.5142400000000 1.0
C      1  0.5216810000000  0.4953220000000  0.4370930000000 1.0
C      1  0.5549960000000  0.4614510000000  0.4809540000000 1.0
C      1  0.5107980000000  0.4464770000000  0.5482510000000 1.0
C      1  0.4983670000000  0.5224300000000  0.5472860000000 1.0
C      1  0.5088050000000  0.4800900000000  0.4740550000000 1.0
C      1  0.5107570000000  0.5712880000000  0.5315090000000 1.0
C      1  0.5342100000000  0.5336170000000  0.4733150000000 1.0
C      1  0.4769290000000  0.5389990000000  0.5384070000000 1.0
C      1  0.5444150000000  0.4918630000000  0.5692790000000 1.0
C      1  0.5630760000000  0.4846730000000  0.4979290000000 1.0
C      1  0.4660480000000  0.4350510000000  0.4842850000000 1.0
C      1  0.4994150000000  0.4341040000000  0.5224150000000 1.0
C      1  0.4275000000000  0.5081400000000  0.4985630000000 1.0
C      1  0.5436960000000  0.4863440000000  0.5207940000000 1.0
C      1  0.5133650000000  0.4354160000000  0.4948740000000 1.0
C      1  0.4730220000000  0.5389600000000  0.4492450000000 1.0
C      1  0.4466970000000  0.5257400000000  0.4555360000000 1.0
C      1  0.5656040000000  0.5318900000000  0.4763710000000 1.0
C      1  0.4491170000000  0.5305100000000  0.5372720000000 1.0
C      1  0.4341450000000  0.5526790000000  0.5245020000000 1.0
C      1  0.5053320000000  0.5186730000000  0.5885190000000 1.0
C      1  0.4906290000000  0.4837650000000  0.5329370000000 1.0
C      1  0.4372190000000  0.4749740000000  0.4636050000000 1.0
C      1  0.4862950000000  0.4720750000000  0.4572490000000 1.0
C      1  0.5016020000000  0.4473170000000  0.4406960000000 1.0
C      1  0.4341570000000  0.5316380000000  0.4814120000000 1.0
C      1  0.4624650000000  0.4614110000000  0.4708450000000 1.0
C      1  0.5400530000000  0.4480490000000  0.5500970000000 1.0
C      1  0.4753150000000  0.4912140000000  0.4328220000000 1.0
C      1  0.5780220000000  0.5079490000000  0.4876220000000 1.0
C      1  0.4625390000000  0.4824690000000  0.5244080000000 1.0
C      1  0.5388300000000  0.5164480000000  0.4474080000000 1.0
C      1  0.4843050000000  0.4640150000000  0.4161860000000 1.0
C      1  0.4851690000000  0.5609780000000  0.5218130000000 1.0
C      1  0.5080060000000  0.5478260000000  0.5793140000000 1.0
C      1  0.4943140000000  0.4292030000000  0.4707570000000 1.0
C      1  0.5163180000000  0.5568570000000  0.4693640000000 1.0
END
