TITL C-862506-1665-609 -4.17540339289328e-06 125000 -68.6233507696171 0 0 17 (D4h) n - 1
REM
REM in /home/nfs/bkarasulu/CARBON/AIRSS/Generating-Clusters/TERSOFF/Higher-Symm/FIRE-HFTN
REM
REM
REM
REM
REM
REM ./C.cell (b20cbc046b6831c77cfcea5457e17084)
REM AIRSS Version 0.9.1 bugfix July 2018 build 013d7b7c2542+ Fri, 06 Jul 2018 19:26:36 +0100
REM compiler GCC version 9.2.1 20190827 (Red Hat 9.2.1-1)
REM options -cpp -mtune=generic -march=x86-64 -g -O0 -fpre-include=/usr/include/finclude/math-vector-fortran.h
REM seed -156668628 488612414 -864125920 248812578 -1201907668 1885651331 481366797 -1607089503 951987907 -2066548516 -1952083799 -1324989837 -1672291611 -1918348274 193945282 1815414490 -1813700546 876701335 1732860320 -1219149574 -583678187 -345719669 -711022219 491426719 858446716 1050098599 -445290992 560507299 -1816926064 -1722456612 914080638 1657945781 1811264727
REM
CELL 1.54180   50.00000   50.00000   50.00000   90.00000   90.00000   90.00000
LATT -1
SFAC C  
C      1  0.5502130000000  0.4831410000000  0.4815850000000 1.0
C      1  0.4483690000000  0.5155890000000  0.4815850000000 1.0
C      1  0.5502130000000  0.4831410000000  0.5140320000000 1.0
C      1  0.4483690000000  0.5155890000000  0.5140320000000 1.0
C      1  0.4483690000000  0.4831410000000  0.4815850000000 1.0
C      1  0.5502130000000  0.5155890000000  0.4815850000000 1.0
C      1  0.4483690000000  0.4831410000000  0.5140320000000 1.0
C      1  0.5502130000000  0.5155890000000  0.5140320000000 1.0
C      1  0.4783090000000  0.5203300000000  0.5187730000000 1.0
C      1  0.5202730000000  0.4784010000000  0.5187730000000 1.0
C      1  0.4783090000000  0.5203300000000  0.4768440000000 1.0
C      1  0.5202730000000  0.4784010000000  0.4768440000000 1.0
C      1  0.5202730000000  0.5203300000000  0.5187730000000 1.0
C      1  0.4783090000000  0.4784010000000  0.5187730000000 1.0
C      1  0.5202730000000  0.5203300000000  0.4768440000000 1.0
C      1  0.4783090000000  0.4784010000000  0.4768440000000 1.0
C      1  0.4992910000000  0.4993650000000  0.4978090000000 1.0
END
