TITL C-862129-6180-306 0.000122297247947336 125000 -134.555382522207 0 0 26 (Ci) n - 1
REM
REM in /home/nfs/bkarasulu/CARBON/AIRSS/Generating-Clusters/TERSOFF/Higher-Symm/FIRE-HFTN
REM
REM
REM
REM
REM
REM ./C.cell (b20cbc046b6831c77cfcea5457e17084)
REM AIRSS Version 0.9.1 bugfix July 2018 build 013d7b7c2542+ Fri, 06 Jul 2018 19:26:36 +0100
REM compiler GCC version 9.2.1 20190827 (Red Hat 9.2.1-1)
REM options -cpp -mtune=generic -march=x86-64 -g -O0 -fpre-include=/usr/include/finclude/math-vector-fortran.h
REM seed -1745699685 673861166 -457290627 -178587277 680048221 187467764 -20453199 466990207 -2042153378 894210181 1181116033 -1738555589 -1668066495 -1076821883 147847005 -494662350 -1723997506 -805802038 -1735637085 -386173634 184976422 -976765162 -967507591 -732480746 -552006441 -717044453 506469019 -1119196473 347398665 -925531231 -954956584 952278612 -711202410
REM
CELL 1.54180   50.00000   50.00000   50.00000   90.00000   90.00000   90.00000
LATT -1
SFAC C  
C      1  0.5442300000000  0.5356830000000  0.5445200000000 1.0
C      1  0.4557700000000  0.4643170000000  0.4554800000000 1.0
C      1  0.4633630000000  0.5204210000000  0.4880050000000 1.0
C      1  0.5366370000000  0.4795790000000  0.5119950000000 1.0
C      1  0.5159830000000  0.4879020000000  0.4609980000000 1.0
C      1  0.4840170000000  0.5120980000000  0.5390020000000 1.0
C      1  0.4941550000000  0.4358850000000  0.4938200000000 1.0
C      1  0.5058450000000  0.5641150000000  0.5061800000000 1.0
C      1  0.4950940000000  0.5398570000000  0.5260170000000 1.0
C      1  0.5049060000000  0.4601430000000  0.4739830000000 1.0
C      1  0.4691730000000  0.4932610000000  0.4948930000000 1.0
C      1  0.5308270000000  0.5067390000000  0.5051070000000 1.0
C      1  0.5002100000000  0.5523900000000  0.4582680000000 1.0
C      1  0.4997900000000  0.4476100000000  0.5417320000000 1.0
C      1  0.4741430000000  0.4611400000000  0.5327970000000 1.0
C      1  0.5258570000000  0.5388600000000  0.4672030000000 1.0
C      1  0.5254160000000  0.5110210000000  0.4768520000000 1.0
C      1  0.4745840000000  0.4889790000000  0.5231480000000 1.0
C      1  0.4894310000000  0.5687940000000  0.4805420000000 1.0
C      1  0.5105690000000  0.4312060000000  0.5194580000000 1.0
C      1  0.5295180000000  0.4585380000000  0.4938520000000 1.0
C      1  0.4704820000000  0.5414620000000  0.5061480000000 1.0
C      1  0.5242320000000  0.5270940000000  0.5252360000000 1.0
C      1  0.4757680000000  0.4729060000000  0.4747640000000 1.0
C      1  0.4686080000000  0.4433870000000  0.5086460000000 1.0
C      1  0.5313920000000  0.5566130000000  0.4913540000000 1.0
END
