TITL C-862503-991-1419 4.92030374463815 125000 -265.825287249497 0 0 50 (C1) n - 1
REM
REM in /home/nfs/bkarasulu/CARBON/AIRSS/Generating-Clusters/TERSOFF/Higher-Symm/FIRE-HFTN
REM
REM
REM
REM
REM
REM ./C.cell (b20cbc046b6831c77cfcea5457e17084)
REM AIRSS Version 0.9.1 bugfix July 2018 build 013d7b7c2542+ Fri, 06 Jul 2018 19:26:36 +0100
REM compiler GCC version 9.2.1 20190827 (Red Hat 9.2.1-1)
REM options -cpp -mtune=generic -march=x86-64 -g -O0 -fpre-include=/usr/include/finclude/math-vector-fortran.h
REM seed -296087057 -220735979 321553444 -1957965045 -1919655200 717767147 1791427295 -181557126 -1154060629 143147725 1480848960 1018107720 -1434588207 -648617101 968449572 356406202 445721942 340331015 1068096002 -1679831044 508599567 -84593685 1784945271 508249301 -21662155 1470174669 61108782 -369554138 1051198322 -204322936 1647688146 -1837531787 1956464406
REM
CELL 1.54180   50.00000   50.00000   50.00000   90.00000   90.00000   90.00000
LATT -1
SFAC C  
C      1  0.4646290000000  0.5362160000000  0.5515340000000 1.0
C      1  0.4643050000000  0.5355680000000  0.4497070000000 1.0
C      1  0.4257190000000  0.5078560000000  0.5152630000000 1.0
C      1  0.4256850000000  0.5076980000000  0.4865530000000 1.0
C      1  0.5071280000000  0.5118030000000  0.4579490000000 1.0
C      1  0.5071660000000  0.5119530000000  0.5434560000000 1.0
C      1  0.5603620000000  0.4852090000000  0.5323220000000 1.0
C      1  0.5581880000000  0.4868230000000  0.4690240000000 1.0
C      1  0.4921020000000  0.4685610000000  0.4646160000000 1.0
C      1  0.4922540000000  0.4690170000000  0.5376080000000 1.0
C      1  0.4797610000000  0.4845810000000  0.5655960000000 1.0
C      1  0.4795850000000  0.4837260000000  0.4363820000000 1.0
C      1  0.4768280000000  0.5488010000000  0.4736080000000 1.0
C      1  0.4773280000000  0.5490400000000  0.5274850000000 1.0
C      1  0.4607670000000  0.4585100000000  0.4385240000000 1.0
C      1  0.4609300000000  0.4593420000000  0.5638560000000 1.0
C      1  0.5669000000000  0.5137530000000  0.4763660000000 1.0
C      1  0.5695830000000  0.5124760000000  0.5263930000000 1.0
C      1  0.5032750000000  0.5619460000000  0.5349470000000 1.0
C      1  0.5025890000000  0.5617720000000  0.4662560000000 1.0
C      1  0.4857490000000  0.5071560000000  0.4797810000000 1.0
C      1  0.4858000000000  0.5073110000000  0.5217380000000 1.0
C      1  0.5132580000000  0.5394460000000  0.5509590000000 1.0
C      1  0.5139520000000  0.5393740000000  0.4511650000000 1.0
C      1  0.4529600000000  0.4535910000000  0.4666600000000 1.0
C      1  0.4531130000000  0.4540090000000  0.5358020000000 1.0
C      1  0.5516030000000  0.5624510000000  0.5191050000000 1.0
C      1  0.5486900000000  0.5625380000000  0.4864680000000 1.0
C      1  0.5230310000000  0.4902690000000  0.4463120000000 1.0
C      1  0.5245050000000  0.4907200000000  0.5534760000000 1.0
C      1  0.4589880000000  0.5066750000000  0.4474290000000 1.0
C      1  0.4592150000000  0.5073710000000  0.5542390000000 1.0
C      1  0.5441660000000  0.5327840000000  0.4795710000000 1.0
C      1  0.5473860000000  0.5326480000000  0.5274490000000 1.0
C      1  0.4465290000000  0.4948300000000  0.4712550000000 1.0
C      1  0.4466090000000  0.4951720000000  0.5306560000000 1.0
C      1  0.5409210000000  0.4706370000000  0.5158930000000 1.0
C      1  0.5407180000000  0.4704650000000  0.4857240000000 1.0
C      1  0.5201290000000  0.5768690000000  0.4845740000000 1.0
C      1  0.5223960000000  0.5749830000000  0.5167610000000 1.0
C      1  0.4681050000000  0.4761470000000  0.4856230000000 1.0
C      1  0.4681310000000  0.4762580000000  0.5164390000000 1.0
C      1  0.5168210000000  0.4550430000000  0.5268280000000 1.0
C      1  0.5165680000000  0.4546790000000  0.4755400000000 1.0
C      1  0.5287500000000  0.5248310000000  0.5045580000000 1.0
C      1  0.5021080000000  0.4112420000000  0.5015220000000 1.0
C      1  0.4772370000000  0.5318450000000  0.5006370000000 1.0
C      1  0.4743310000000  0.4031140000000  0.5011980000000 1.0
C      1  0.5837000000000  0.5145730000000  0.5005830000000 1.0
C      1  0.5112930000000  0.4387080000000  0.5012970000000 1.0
END
