TITL C-862128-1543-1434 22.2989483474577 125000 -879.152129267609 0 0 154 (C4h) n - 1
REM
REM in /home/nfs/bkarasulu/CARBON/AIRSS/Generating-Clusters/TERSOFF/Higher-Symm/FIRE-HFTN
REM
REM
REM
REM
REM
REM ./C.cell (b20cbc046b6831c77cfcea5457e17084)
REM AIRSS Version 0.9.1 bugfix July 2018 build 013d7b7c2542+ Fri, 06 Jul 2018 19:26:36 +0100
REM compiler GCC version 9.2.1 20190827 (Red Hat 9.2.1-1)
REM options -cpp -mtune=generic -march=x86-64 -g -O0 -fpre-include=/usr/include/finclude/math-vector-fortran.h
REM seed -1391414619 -367936342 937491175 -2047744637 -1047730661 1406953037 1450585793 -1280733697 -1485776394 1106927782 337621050 115327939 1680864203 1753586946 1015353358 1009471582 1928342841 1092584938 -1869592411 373051884 120237922 -77429660 -337391528 750346834 583094219 1702341506 -1945727368 -1110393935 -1104418176 -1987054905 778795158 -1755207836 992244404
REM
CELL 1.54180   50.00000   50.00000   50.00000   90.00000   90.00000   90.00000
LATT -1
SFAC C  
C      1  0.4130940000000  0.4482730000000  0.4534110000000 1.0
C      1  0.5464710000000  0.4482740000000  0.4135890000000 1.0
C      1  0.5862930000000  0.4482750000000  0.5469650000000 1.0
C      1  0.4529170000000  0.4482740000000  0.5867870000000 1.0
C      1  0.4130940000000  0.5509190000000  0.4534100000000 1.0
C      1  0.5464700000000  0.5509200000000  0.4135880000000 1.0
C      1  0.5862920000000  0.5509210000000  0.5469650000000 1.0
C      1  0.4529160000000  0.5509200000000  0.5867870000000 1.0
C      1  0.5221110000000  0.5203400000000  0.4984050000000 1.0
C      1  0.5014760000000  0.5203400000000  0.5226050000000 1.0
C      1  0.4772760000000  0.5203400000000  0.5019700000000 1.0
C      1  0.4979110000000  0.5203400000000  0.4777700000000 1.0
C      1  0.5221110000000  0.4788540000000  0.4984050000000 1.0
C      1  0.5014760000000  0.4788540000000  0.5226050000000 1.0
C      1  0.4772760000000  0.4788540000000  0.5019700000000 1.0
C      1  0.4979110000000  0.4788540000000  0.4777700000000 1.0
C      1  0.5118570000000  0.5167860000000  0.5874460000000 1.0
C      1  0.4124350000000  0.5167850000000  0.5123510000000 1.0
C      1  0.4875300000000  0.5167860000000  0.4129300000000 1.0
C      1  0.5869510000000  0.5167870000000  0.4880240000000 1.0
C      1  0.5118570000000  0.4824080000000  0.5874460000000 1.0
C      1  0.4124350000000  0.4824070000000  0.5123510000000 1.0
C      1  0.4875300000000  0.4824080000000  0.4129300000000 1.0
C      1  0.5869520000000  0.4824090000000  0.4880240000000 1.0
C      1  0.4900590000000  0.5144340000000  0.5635710000000 1.0
C      1  0.4363100000000  0.5144340000000  0.4905530000000 1.0
C      1  0.5093280000000  0.5144340000000  0.4368050000000 1.0
C      1  0.5630760000000  0.5144350000000  0.5098220000000 1.0
C      1  0.4900590000000  0.4847600000000  0.5635710000000 1.0
C      1  0.4363100000000  0.4847590000000  0.4905540000000 1.0
C      1  0.5093280000000  0.4847600000000  0.4368050000000 1.0
C      1  0.5630760000000  0.4847600000000  0.5098220000000 1.0
C      1  0.5919690000000  0.4686080000000  0.5667670000000 1.0
C      1  0.4331150000000  0.4686060000000  0.5924680000000 1.0
C      1  0.4074190000000  0.4686070000000  0.4336090000000 1.0
C      1  0.5662720000000  0.4686060000000  0.4079090000000 1.0
C      1  0.5919510000000  0.5305820000000  0.5667660000000 1.0
C      1  0.4331150000000  0.5305800000000  0.5924410000000 1.0
C      1  0.4074350000000  0.5305810000000  0.4336090000000 1.0
C      1  0.5662710000000  0.5305810000000  0.4079340000000 1.0
C      1  0.5683140000000  0.4429100000000  0.4989800000000 1.0
C      1  0.5009020000000  0.4429100000000  0.5688080000000 1.0
C      1  0.4310740000000  0.4429090000000  0.5013960000000 1.0
C      1  0.4984860000000  0.4429090000000  0.4315680000000 1.0
C      1  0.5683130000000  0.5562850000000  0.4989800000000 1.0
C      1  0.5009010000000  0.5562850000000  0.5688080000000 1.0
C      1  0.4310730000000  0.5562840000000  0.5013960000000 1.0
C      1  0.4984850000000  0.5562840000000  0.4315680000000 1.0
C      1  0.5528910000000  0.5295810000000  0.5330740000000 1.0
C      1  0.4668070000000  0.5295800000000  0.5533860000000 1.0
C      1  0.4464950000000  0.5295800000000  0.4673020000000 1.0
C      1  0.5325790000000  0.5295810000000  0.4469890000000 1.0
C      1  0.5528920000000  0.4696140000000  0.5330740000000 1.0
C      1  0.4668080000000  0.4696130000000  0.5533860000000 1.0
C      1  0.4464950000000  0.4696130000000  0.4673020000000 1.0
C      1  0.5325800000000  0.4696140000000  0.4469900000000 1.0
C      1  0.4815520000000  0.5470590000000  0.5886130000000 1.0
C      1  0.4112680000000  0.5470580000000  0.4820470000000 1.0
C      1  0.5178340000000  0.5470590000000  0.4117620000000 1.0
C      1  0.5881180000000  0.5470600000000  0.5183290000000 1.0
C      1  0.4815530000000  0.4521350000000  0.5886130000000 1.0
C      1  0.4112680000000  0.4521340000000  0.4820470000000 1.0
C      1  0.5178350000000  0.4521350000000  0.4117620000000 1.0
C      1  0.5881190000000  0.4521360000000  0.5183290000000 1.0
C      1  0.4158190000000  0.5584600000000  0.5420820000000 1.0
C      1  0.4577980000000  0.5584600000000  0.4163140000000 1.0
C      1  0.5835670000000  0.5584610000000  0.4582930000000 1.0
C      1  0.5415870000000  0.5584620000000  0.5840610000000 1.0
C      1  0.4158200000000  0.4407330000000  0.5420820000000 1.0
C      1  0.4577990000000  0.4407320000000  0.4163140000000 1.0
C      1  0.5835680000000  0.4407340000000  0.4582930000000 1.0
C      1  0.5415880000000  0.4407340000000  0.5840620000000 1.0
C      1  0.4250660000000  0.5773610000000  0.5208040000000 1.0
C      1  0.4790760000000  0.5773610000000  0.4255610000000 1.0
C      1  0.5743190000000  0.5773620000000  0.4795710000000 1.0
C      1  0.5203090000000  0.5773620000000  0.5748140000000 1.0
C      1  0.4250670000000  0.4218320000000  0.5208050000000 1.0
C      1  0.4790770000000  0.4218320000000  0.4255610000000 1.0
C      1  0.5743210000000  0.4218330000000  0.4795710000000 1.0
C      1  0.5203110000000  0.4218330000000  0.5748150000000 1.0
C      1  0.5366140000000  0.5883540000000  0.4298840000000 1.0
C      1  0.5699960000000  0.5883550000000  0.5371080000000 1.0
C      1  0.4627720000000  0.5883540000000  0.5704910000000 1.0
C      1  0.4293900000000  0.5883530000000  0.4632670000000 1.0
C      1  0.5366150000000  0.4108400000000  0.4298850000000 1.0
C      1  0.5699970000000  0.4108410000000  0.5371090000000 1.0
C      1  0.4627730000000  0.4108400000000  0.5704910000000 1.0
C      1  0.4293910000000  0.4108390000000  0.4632670000000 1.0
C      1  0.5034940000000  0.4532440000000  0.5392990000000 1.0
C      1  0.4605820000000  0.4532440000000  0.5039880000000 1.0
C      1  0.4958930000000  0.4532440000000  0.4610770000000 1.0
C      1  0.5388050000000  0.4532450000000  0.4963870000000 1.0
C      1  0.5034930000000  0.5459500000000  0.5392990000000 1.0
C      1  0.4605820000000  0.5459490000000  0.5039880000000 1.0
C      1  0.4958930000000  0.5459500000000  0.4610760000000 1.0
C      1  0.5388040000000  0.5459500000000  0.4963870000000 1.0
C      1  0.5804240000000  0.5292420000000  0.4618970000000 1.0
C      1  0.5379840000000  0.5292420000000  0.5809180000000 1.0
C      1  0.4189630000000  0.5292410000000  0.5384780000000 1.0
C      1  0.4614030000000  0.5292410000000  0.4194570000000 1.0
C      1  0.5804240000000  0.4699530000000  0.4618970000000 1.0
C      1  0.5379840000000  0.4699530000000  0.5809180000000 1.0
C      1  0.4189630000000  0.4699520000000  0.5384780000000 1.0
C      1  0.4614030000000  0.4699520000000  0.4194570000000 1.0
C      1  0.6157320000000  0.4851300000000  0.5671300000000 1.0
C      1  0.4327590000000  0.4851310000000  0.6162280000000 1.0
C      1  0.3836560000000  0.4851270000000  0.4332450000000 1.0
C      1  0.5666290000000  0.4851310000000  0.3841480000000 1.0
C      1  0.6157230000000  0.5140740000000  0.5671570000000 1.0
C      1  0.4327160000000  0.5140750000000  0.6162150000000 1.0
C      1  0.3836630000000  0.5140720000000  0.4332190000000 1.0
C      1  0.5666690000000  0.5140750000000  0.3841610000000 1.0
C      1  0.5266570000000  0.4451010000000  0.4670550000000 1.0
C      1  0.5328270000000  0.4451010000000  0.5271520000000 1.0
C      1  0.4727300000000  0.4451010000000  0.5333210000000 1.0
C      1  0.4665610000000  0.4451010000000  0.4732240000000 1.0
C      1  0.5266570000000  0.5540930000000  0.4670550000000 1.0
C      1  0.5328260000000  0.5540930000000  0.5271510000000 1.0
C      1  0.4727290000000  0.5540930000000  0.5333210000000 1.0
C      1  0.4665600000000  0.5540930000000  0.4732240000000 1.0
C      1  0.5215850000000  0.5933150000000  0.5494350000000 1.0
C      1  0.4504450000000  0.5933150000000  0.5220800000000 1.0
C      1  0.4778000000000  0.5933150000000  0.4509400000000 1.0
C      1  0.5489400000000  0.5933150000000  0.4782950000000 1.0
C      1  0.5215870000000  0.4058790000000  0.5494360000000 1.0
C      1  0.4504470000000  0.4058790000000  0.5220810000000 1.0
C      1  0.4778010000000  0.4058790000000  0.4509410000000 1.0
C      1  0.5489420000000  0.4058790000000  0.4782950000000 1.0
C      1  0.5584330000000  0.5151000000000  0.4482980000000 1.0
C      1  0.5515830000000  0.5151000000000  0.5589270000000 1.0
C      1  0.4409540000000  0.5150990000000  0.5520780000000 1.0
C      1  0.4478030000000  0.5150990000000  0.4414480000000 1.0
C      1  0.5584330000000  0.4840950000000  0.4482980000000 1.0
C      1  0.5515830000000  0.4840950000000  0.5589270000000 1.0
C      1  0.4409540000000  0.4840940000000  0.5520780000000 1.0
C      1  0.4478040000000  0.4840940000000  0.4414490000000 1.0
C      1  0.4574960000000  0.5841220000000  0.4707480000000 1.0
C      1  0.5291320000000  0.5841230000000  0.4579910000000 1.0
C      1  0.5418890000000  0.5841230000000  0.5296270000000 1.0
C      1  0.4702530000000  0.5841230000000  0.5423840000000 1.0
C      1  0.4574970000000  0.4150710000000  0.4707480000000 1.0
C      1  0.5291340000000  0.4150710000000  0.4579910000000 1.0
C      1  0.5418910000000  0.4150720000000  0.5296280000000 1.0
C      1  0.4702540000000  0.4150710000000  0.5423850000000 1.0
C      1  0.4663480000000  0.5977550000000  0.4968050000000 1.0
C      1  0.5030750000000  0.5977560000000  0.4668430000000 1.0
C      1  0.5330370000000  0.5977560000000  0.5035700000000 1.0
C      1  0.4963100000000  0.5977560000000  0.5335320000000 1.0
C      1  0.4663500000000  0.4014380000000  0.4968050000000 1.0
C      1  0.5030770000000  0.4014380000000  0.4668440000000 1.0
C      1  0.5330390000000  0.4014390000000  0.5035710000000 1.0
C      1  0.4963110000000  0.4014380000000  0.5335320000000 1.0
C      1  0.4996930000000  0.6042660000000  0.5001870000000 1.0
C      1  0.4996940000000  0.3949280000000  0.5001880000000 1.0
END
