TITL C-862503-991-17 45545.0421826739 125000 -740.173551840162 0 0 135 (C1) n - 1
REM
REM in /home/nfs/bkarasulu/CARBON/AIRSS/Generating-Clusters/TERSOFF/Higher-Symm/FIRE-HFTN
REM
REM
REM
REM
REM
REM ./C.cell (b20cbc046b6831c77cfcea5457e17084)
REM AIRSS Version 0.9.1 bugfix July 2018 build 013d7b7c2542+ Fri, 06 Jul 2018 19:26:36 +0100
REM compiler GCC version 9.2.1 20190827 (Red Hat 9.2.1-1)
REM options -cpp -mtune=generic -march=x86-64 -g -O0 -fpre-include=/usr/include/finclude/math-vector-fortran.h
REM seed 590193843 -351536379 -1694205675 139105298 -596082572 178736079 1124592130 -1366002284 -226764456 -1639923974 -5466222 -1341496873 1998297166 610031344 -221319126 545684880 243693669 1587515373 -30721661 1843653627 1995448454 862467252 1613837430 -747527424 -289928275 982141637 491857753 -1323100249 -30068391 1196227637 -1449603650 1222786272 -217882584
REM
CELL 1.54180   50.00000   50.00000   50.00000   90.00000   90.00000   90.00000
LATT -1
SFAC C  
C      1  0.4342030000000  0.4383820000000  0.5573870000000 1.0
C      1  0.5651380000000  0.4371580000000  0.5589840000000 1.0
C      1  0.5709650000000  0.5588880000000  0.5644980000000 1.0
C      1  0.4468130000000  0.5741270000000  0.5631870000000 1.0
C      1  0.4389310000000  0.4305130000000  0.4388750000000 1.0
C      1  0.5678350000000  0.4367130000000  0.4410630000000 1.0
C      1  0.5584840000000  0.5698200000000  0.4462320000000 1.0
C      1  0.4260610000000  0.5535770000000  0.4451340000000 1.0
C      1  0.5365180000000  0.4280610000000  0.5196070000000 1.0
C      1  0.5652770000000  0.5394340000000  0.5153080000000 1.0
C      1  0.4645550000000  0.5646390000000  0.5100840000000 1.0
C      1  0.4294780000000  0.4665050000000  0.5145770000000 1.0
C      1  0.5325290000000  0.4224240000000  0.4782380000000 1.0
C      1  0.5748530000000  0.5311620000000  0.4753180000000 1.0
C      1  0.4677350000000  0.5679710000000  0.4819300000000 1.0
C      1  0.4251370000000  0.4678410000000  0.4728450000000 1.0
C      1  0.4369610000000  0.5580650000000  0.5410540000000 1.0
C      1  0.4487990000000  0.4338820000000  0.5325600000000 1.0
C      1  0.5686480000000  0.4511040000000  0.5336730000000 1.0
C      1  0.5535180000000  0.5683560000000  0.5433670000000 1.0
C      1  0.4308150000000  0.5497090000000  0.4739560000000 1.0
C      1  0.4463950000000  0.4321150000000  0.4670490000000 1.0
C      1  0.5666680000000  0.4450050000000  0.4689410000000 1.0
C      1  0.5525150000000  0.5667070000000  0.4748280000000 1.0
C      1  0.4684310000000  0.5281800000000  0.4291640000000 1.0
C      1  0.4687640000000  0.4695930000000  0.4260840000000 1.0
C      1  0.5283930000000  0.4658640000000  0.4282330000000 1.0
C      1  0.5304620000000  0.5292530000000  0.4309540000000 1.0
C      1  0.4818520000000  0.5382330000000  0.5722940000000 1.0
C      1  0.4631940000000  0.4779860000000  0.5698980000000 1.0
C      1  0.5243760000000  0.4644910000000  0.5711510000000 1.0
C      1  0.5384250000000  0.5205580000000  0.5729620000000 1.0
C      1  0.4505980000000  0.4479920000000  0.4189580000000 1.0
C      1  0.5498460000000  0.4475070000000  0.4212570000000 1.0
C      1  0.5472270000000  0.5526410000000  0.4254810000000 1.0
C      1  0.4436880000000  0.5431900000000  0.4241150000000 1.0
C      1  0.4418150000000  0.4591810000000  0.5759710000000 1.0
C      1  0.5441890000000  0.4442150000000  0.5775170000000 1.0
C      1  0.5628750000000  0.5354540000000  0.5795690000000 1.0
C      1  0.4684990000000  0.5634470000000  0.5793970000000 1.0
C      1  0.4735260000000  0.4508750000000  0.5283880000000 1.0
C      1  0.5509970000000  0.4750990000000  0.5289560000000 1.0
C      1  0.5285660000000  0.5539580000000  0.5410320000000 1.0
C      1  0.4489640000000  0.5319660000000  0.5388900000000 1.0
C      1  0.4713350000000  0.4493030000000  0.4726830000000 1.0
C      1  0.5486850000000  0.4695720000000  0.4744400000000 1.0
C      1  0.5283220000000  0.5471190000000  0.4798200000000 1.0
C      1  0.4519970000000  0.5268200000000  0.4789150000000 1.0
C      1  0.6130120000000  0.4988910000000  0.4635780000000 1.0
C      1  0.4982460000000  0.6101670000000  0.4678500000000 1.0
C      1  0.3879680000000  0.5056880000000  0.4641580000000 1.0
C      1  0.4991910000000  0.3836220000000  0.4690840000000 1.0
C      1  0.6125340000000  0.5076520000000  0.5247780000000 1.0
C      1  0.4884510000000  0.6145450000000  0.5287790000000 1.0
C      1  0.3849520000000  0.4982520000000  0.5259330000000 1.0
C      1  0.5022580000000  0.3866470000000  0.5308330000000 1.0
C      1  0.5154820000000  0.4828100000000  0.4082620000000 1.0
C      1  0.5160500000000  0.5150220000000  0.4098490000000 1.0
C      1  0.4838600000000  0.5156800000000  0.4078430000000 1.0
C      1  0.4841830000000  0.4842260000000  0.4063470000000 1.0
C      1  0.5120100000000  0.4807470000000  0.5917360000000 1.0
C      1  0.5207490000000  0.5104590000000  0.5935960000000 1.0
C      1  0.4905150000000  0.5191050000000  0.5923910000000 1.0
C      1  0.4809880000000  0.4882210000000  0.5906920000000 1.0
C      1  0.4180820000000  0.5677950000000  0.5208530000000 1.0
C      1  0.4406970000000  0.4136530000000  0.5134720000000 1.0
C      1  0.5881370000000  0.4424450000000  0.5141760000000 1.0
C      1  0.5622250000000  0.5866500000000  0.5219610000000 1.0
C      1  0.4269560000000  0.5722130000000  0.4929870000000 1.0
C      1  0.4292580000000  0.4217420000000  0.4880710000000 1.0
C      1  0.5790880000000  0.4294150000000  0.4899890000000 1.0
C      1  0.5714880000000  0.5760760000000  0.4958080000000 1.0
C      1  0.5641480000000  0.4887650000000  0.4564350000000 1.0
C      1  0.5107400000000  0.5624120000000  0.4577650000000 1.0
C      1  0.4372960000000  0.5109600000000  0.4552910000000 1.0
C      1  0.4906540000000  0.4317030000000  0.4567340000000 1.0
C      1  0.5660290000000  0.4980500000000  0.5416660000000 1.0
C      1  0.5050520000000  0.5672240000000  0.5342170000000 1.0
C      1  0.4335940000000  0.5094550000000  0.5331410000000 1.0
C      1  0.4943710000000  0.4347290000000  0.5436070000000 1.0
C      1  0.6000980000000  0.5745220000000  0.4905740000000 1.0
C      1  0.4320130000000  0.5994090000000  0.4838980000000 1.0
C      1  0.4005380000000  0.4200120000000  0.4838550000000 1.0
C      1  0.5818430000000  0.4006170000000  0.4870570000000 1.0
C      1  0.5618270000000  0.6153820000000  0.5265060000000 1.0
C      1  0.3904320000000  0.5730280000000  0.5282080000000 1.0
C      1  0.4437250000000  0.3854550000000  0.5198380000000 1.0
C      1  0.6165200000000  0.4464160000000  0.5189850000000 1.0
C      1  0.4979240000000  0.5963290000000  0.5747110000000 1.0
C      1  0.4016010000000  0.5094890000000  0.5720710000000 1.0
C      1  0.4803280000000  0.3977360000000  0.5747480000000 1.0
C      1  0.6057210000000  0.4917460000000  0.5719740000000 1.0
C      1  0.5285510000000  0.5997580000000  0.4290640000000 1.0
C      1  0.4036350000000  0.5271470000000  0.4214160000000 1.0
C      1  0.4714420000000  0.3946550000000  0.4285860000000 1.0
C      1  0.5987570000000  0.4695380000000  0.4253210000000 1.0
C      1  0.5532450000000  0.5112540000000  0.4727790000000 1.0
C      1  0.4873760000000  0.5492350000000  0.4708450000000 1.0
C      1  0.4477240000000  0.4862880000000  0.4688330000000 1.0
C      1  0.5128730000000  0.4435180000000  0.4729410000000 1.0
C      1  0.5500400000000  0.5167590000000  0.5240820000000 1.0
C      1  0.4864660000000  0.5489450000000  0.5221030000000 1.0
C      1  0.4485500000000  0.4880130000000  0.5211140000000 1.0
C      1  0.5152060000000  0.4470140000000  0.5255920000000 1.0
C      1  0.4771320000000  0.5241320000000  0.4570400000000 1.0
C      1  0.4726320000000  0.4755650000000  0.4549940000000 1.0
C      1  0.5219290000000  0.4693470000000  0.4574520000000 1.0
C      1  0.5268810000000  0.5208120000000  0.4592850000000 1.0
C      1  0.4789570000000  0.5286860000000  0.5437400000000 1.0
C      1  0.4713650000000  0.4798510000000  0.5411080000000 1.0
C      1  0.5222100000000  0.4726840000000  0.5421720000000 1.0
C      1  0.5275810000000  0.5229500000000  0.5442280000000 1.0
C      1  0.4971770000000  0.5927370000000  0.5458600000000 1.0
C      1  0.4066760000000  0.5057930000000  0.5436740000000 1.0
C      1  0.4922610000000  0.4063650000000  0.5496740000000 1.0
C      1  0.5947760000000  0.4991200000000  0.5460500000000 1.0
C      1  0.5126180000000  0.5907970000000  0.4516800000000 1.0
C      1  0.4096240000000  0.5149810000000  0.4471550000000 1.0
C      1  0.4869970000000  0.4033210000000  0.4515800000000 1.0
C      1  0.5919980000000  0.4856320000000  0.4485800000000 1.0
C      1  0.6309440000000  0.4903580000000  0.5107430000000 1.0
C      1  0.5061050000000  0.6317220000000  0.5136430000000 1.0
C      1  0.3690830000000  0.5168240000000  0.5104620000000 1.0
C      1  0.4857210000000  0.3681110000000  0.5160170000000 1.0
C      1  0.6307360000000  0.4857650000000  0.4822560000000 1.0
C      1  0.5107040000000  0.6296590000000  0.4851980000000 1.0
C      1  0.3729550000000  0.5223950000000  0.4823690000000 1.0
C      1  0.4846490000000  0.3663910000000  0.4871880000000 1.0
C      1  0.5374590000000  0.4928660000000  0.5000330000000 1.0
C      1  0.5010960000000  0.5320800000000  0.4981970000000 1.0
C      1  0.4643300000000  0.4979860000000  0.4966130000000 1.0
C      1  0.4937880000000  0.4595260000000  0.4994350000000 1.0
C      1  0.5002750000000  0.5006320000000  0.5355570000000 1.0
C      1  0.5000660000000  0.4971890000000  0.4640250000000 1.0
C      1  0.5006870000000  0.4956730000000  0.4996420000000 1.0
END
