TITL C-862128-1543-119 -1.34223422526199e-06 125000 -303.493155436836 0 0 56 (C4h) n - 1
REM
REM in /home/nfs/bkarasulu/CARBON/AIRSS/Generating-Clusters/TERSOFF/Higher-Symm/FIRE-HFTN
REM
REM
REM
REM
REM
REM ./C.cell (b20cbc046b6831c77cfcea5457e17084)
REM AIRSS Version 0.9.1 bugfix July 2018 build 013d7b7c2542+ Fri, 06 Jul 2018 19:26:36 +0100
REM compiler GCC version 9.2.1 20190827 (Red Hat 9.2.1-1)
REM options -cpp -mtune=generic -march=x86-64 -g -O0 -fpre-include=/usr/include/finclude/math-vector-fortran.h
REM seed 1385944955 -542510925 -69576165 379100767 -660172540 -1510822659 429765885 1500415396 -197018964 1930547769 -399264189 800827921 1866835827 351102504 806447139 -657508176 -1221396745 787584614 1694981836 -986976012 2101145184 1954442469 1685416498 1940869006 -1300605058 -1811774301 -1821022726 -2139576252 1610546981 2022516656 -1122323360 -1054779059 1719433418
REM
CELL 1.54180   50.00000   50.00000   50.00000   90.00000   90.00000   90.00000
LATT -1
SFAC C  
C      1  0.5286370000000  0.4704020000000  0.4602540000000 1.0
C      1  0.4602540000000  0.4704020000000  0.4713630000000 1.0
C      1  0.4713630000000  0.4704020000000  0.5397460000000 1.0
C      1  0.5397460000000  0.4704020000000  0.5286370000000 1.0
C      1  0.5286370000000  0.5295980000000  0.4602540000000 1.0
C      1  0.4602540000000  0.5295980000000  0.4713630000000 1.0
C      1  0.4713630000000  0.5295980000000  0.5397460000000 1.0
C      1  0.5397460000000  0.5295980000000  0.5286370000000 1.0
C      1  0.4912730000000  0.4699790000000  0.4326200000000 1.0
C      1  0.4326200000000  0.4699790000000  0.5087270000000 1.0
C      1  0.5087270000000  0.4699790000000  0.5673800000000 1.0
C      1  0.5673800000000  0.4699790000000  0.4912730000000 1.0
C      1  0.4912730000000  0.5300210000000  0.4326200000000 1.0
C      1  0.4326200000000  0.5300210000000  0.5087270000000 1.0
C      1  0.5087270000000  0.5300210000000  0.5673800000000 1.0
C      1  0.5673800000000  0.5300210000000  0.4912730000000 1.0
C      1  0.4831900000000  0.5150480000000  0.5647370000000 1.0
C      1  0.5647370000000  0.5150480000000  0.5168100000000 1.0
C      1  0.5168100000000  0.5150480000000  0.4352630000000 1.0
C      1  0.4352630000000  0.5150480000000  0.4831900000000 1.0
C      1  0.4831900000000  0.4849520000000  0.5647370000000 1.0
C      1  0.5647370000000  0.4849520000000  0.5168100000000 1.0
C      1  0.5168100000000  0.4849520000000  0.4352630000000 1.0
C      1  0.4352630000000  0.4849520000000  0.4831900000000 1.0
C      1  0.5554230000000  0.4844460000000  0.4684770000000 1.0
C      1  0.4684770000000  0.4844460000000  0.4445770000000 1.0
C      1  0.4445770000000  0.4844460000000  0.5315230000000 1.0
C      1  0.5315230000000  0.4844460000000  0.5554230000000 1.0
C      1  0.5554230000000  0.5155540000000  0.4684770000000 1.0
C      1  0.4684770000000  0.5155540000000  0.4445770000000 1.0
C      1  0.4445770000000  0.5155540000000  0.5315230000000 1.0
C      1  0.5315230000000  0.5155540000000  0.5554230000000 1.0
C      1  0.4907870000000  0.4433300000000  0.5239420000000 1.0
C      1  0.5239420000000  0.4433300000000  0.5092130000000 1.0
C      1  0.5092130000000  0.4433300000000  0.4760580000000 1.0
C      1  0.4760580000000  0.4433300000000  0.4907870000000 1.0
C      1  0.4907870000000  0.5566700000000  0.5239420000000 1.0
C      1  0.5239420000000  0.5566700000000  0.5092130000000 1.0
C      1  0.5092130000000  0.5566700000000  0.4760580000000 1.0
C      1  0.4760580000000  0.5566700000000  0.4907870000000 1.0
C      1  0.5133970000000  0.5153480000000  0.4817760000000 1.0
C      1  0.4817760000000  0.5153480000000  0.4866030000000 1.0
C      1  0.4866030000000  0.5153480000000  0.5182240000000 1.0
C      1  0.5182240000000  0.5153480000000  0.5133970000000 1.0
C      1  0.5133970000000  0.4846520000000  0.4817760000000 1.0
C      1  0.4817760000000  0.4846520000000  0.4866030000000 1.0
C      1  0.4866030000000  0.4846520000000  0.5182240000000 1.0
C      1  0.5182240000000  0.4846520000000  0.5133970000000 1.0
C      1  0.5536240000000  0.5560040000000  0.4963370000000 1.0
C      1  0.4963370000000  0.5560040000000  0.4463760000000 1.0
C      1  0.4463760000000  0.5560040000000  0.5036630000000 1.0
C      1  0.5036630000000  0.5560040000000  0.5536240000000 1.0
C      1  0.5536240000000  0.4439960000000  0.4963370000000 1.0
C      1  0.4963370000000  0.4439960000000  0.4463760000000 1.0
C      1  0.4463760000000  0.4439960000000  0.5036630000000 1.0
C      1  0.5036630000000  0.4439960000000  0.5536240000000 1.0
END
