TITL C-862502-1143-347 0.000673016897840054 125000 -772.165421536441 0 0 129 (C3) n - 1
REM
REM in /home/nfs/bkarasulu/CARBON/AIRSS/Generating-Clusters/TERSOFF/Higher-Symm/FIRE-HFTN
REM
REM
REM
REM
REM
REM ./C.cell (b20cbc046b6831c77cfcea5457e17084)
REM AIRSS Version 0.9.1 bugfix July 2018 build 013d7b7c2542+ Fri, 06 Jul 2018 19:26:36 +0100
REM compiler GCC version 9.2.1 20190827 (Red Hat 9.2.1-1)
REM options -cpp -mtune=generic -march=x86-64 -g -O0 -fpre-include=/usr/include/finclude/math-vector-fortran.h
REM seed -2021559717 334931462 619498568 -1946691299 -1187063339 -1010871451 1002551772 697440664 -1195837371 1012785100 315171086 -1837129660 1256374399 797311382 1141739435 1056471341 541824266 1072511418 155325818 1272117635 1591837271 -1576389670 -1589417281 -2147205811 159231536 -1483746188 -403765859 -353647413 -323520978 845577145 -437152429 -1997159934 -969013158
REM
CELL 1.54180   50.00000   50.00000   50.00000   90.00000   90.00000   90.00000
LATT -1
SFAC C  
C      1  0.5625390000000  0.5707600000000  0.4657740000000 1.0
C      1  0.4074500000000  0.5187800000000  0.4657730000000 1.0
C      1  0.5300110000000  0.4104590000000  0.4657740000000 1.0
C      1  0.4702700000000  0.3997590000000  0.4649580000000 1.0
C      1  0.6016760000000  0.5243730000000  0.4649580000000 1.0
C      1  0.4280540000000  0.5758670000000  0.4649570000000 1.0
C      1  0.4607590000000  0.4976820000000  0.4877650000000 1.0
C      1  0.5216290000000  0.4671750000000  0.4877650000000 1.0
C      1  0.5176130000000  0.5351430000000  0.4877650000000 1.0
C      1  0.4560210000000  0.5817330000000  0.4620520000000 1.0
C      1  0.4512070000000  0.4210460000000  0.4620530000000 1.0
C      1  0.5927730000000  0.4972210000000  0.4620530000000 1.0
C      1  0.5593100000000  0.5268770000000  0.5243710000000 1.0
C      1  0.4470680000000  0.5379260000000  0.5243700000000 1.0
C      1  0.4936210000000  0.4351970000000  0.5243710000000 1.0
C      1  0.5525030000000  0.5150380000000  0.5901820000000 1.0
C      1  0.4607250000000  0.5379500000000  0.5901820000000 1.0
C      1  0.4867710000000  0.4470120000000  0.5901820000000 1.0
C      1  0.5831550000000  0.4777040000000  0.5338970000000 1.0
C      1  0.4777310000000  0.5831630000000  0.5338970000000 1.0
C      1  0.4391130000000  0.4391330000000  0.5338970000000 1.0
C      1  0.4066620000000  0.5147590000000  0.5362030000000 1.0
C      1  0.5338870000000  0.4117880000000  0.5362040000000 1.0
C      1  0.5594500000000  0.5734540000000  0.5362030000000 1.0
C      1  0.4969320000000  0.4577110000000  0.4736700000000 1.0
C      1  0.5381580000000  0.5184880000000  0.4736700000000 1.0
C      1  0.4649100000000  0.5238020000000  0.4736700000000 1.0
C      1  0.4687360000000  0.5302870000000  0.6171680000000 1.0
C      1  0.4894030000000  0.4577820000000  0.6171680000000 1.0
C      1  0.5418600000000  0.5119320000000  0.6171680000000 1.0
C      1  0.5496190000000  0.5416470000000  0.5775810000000 1.0
C      1  0.4391230000000  0.5221480000000  0.5775810000000 1.0
C      1  0.5112570000000  0.4362050000000  0.5775820000000 1.0
C      1  0.4236640000000  0.4566260000000  0.4768440000000 1.0
C      1  0.5757310000000  0.4555770000000  0.4768450000000 1.0
C      1  0.5006060000000  0.5877960000000  0.4768440000000 1.0
C      1  0.4771380000000  0.5462250000000  0.4888710000000 1.0
C      1  0.4713990000000  0.4570880000000  0.4888710000000 1.0
C      1  0.5514630000000  0.4966870000000  0.4888710000000 1.0
C      1  0.4613610000000  0.5859030000000  0.5098620000000 1.0
C      1  0.4449260000000  0.4235860000000  0.5098620000000 1.0
C      1  0.5937130000000  0.4905110000000  0.5098630000000 1.0
C      1  0.5517190000000  0.4976990000000  0.3988290000000 1.0
C      1  0.4761340000000  0.5459400000000  0.3988290000000 1.0
C      1  0.4721490000000  0.4563610000000  0.3988290000000 1.0
C      1  0.5043740000000  0.5661850000000  0.5345280000000 1.0
C      1  0.4404950000000  0.4706960000000  0.5345280000000 1.0
C      1  0.5551310000000  0.4631190000000  0.5345280000000 1.0
C      1  0.5121200000000  0.4101110000000  0.4897550000000 1.0
C      1  0.5717870000000  0.5554400000000  0.4897550000000 1.0
C      1  0.4160940000000  0.5344490000000  0.4897540000000 1.0
C      1  0.4267600000000  0.5132050000000  0.4433060000000 1.0
C      1  0.5251840000000  0.4299700000000  0.4433070000000 1.0
C      1  0.5480560000000  0.5568250000000  0.4433070000000 1.0
C      1  0.5119080000000  0.4695750000000  0.3961930000000 1.0
C      1  0.5203950000000  0.5255240000000  0.3961930000000 1.0
C      1  0.4676980000000  0.5049000000000  0.3961920000000 1.0
C      1  0.4427150000000  0.4879100000000  0.6122840000000 1.0
C      1  0.5391120000000  0.4564350000000  0.6122850000000 1.0
C      1  0.5181710000000  0.5556550000000  0.6122840000000 1.0
C      1  0.5381200000000  0.4504220000000  0.5071460000000 1.0
C      1  0.5238750000000  0.5578020000000  0.5071460000000 1.0
C      1  0.4380040000000  0.4917760000000  0.5071460000000 1.0
C      1  0.5009670000000  0.5818490000000  0.4468380000000 1.0
C      1  0.4286330000000  0.4599130000000  0.4468370000000 1.0
C      1  0.5704000000000  0.4582380000000  0.4468380000000 1.0
C      1  0.5360090000000  0.4503940000000  0.5836600000000 1.0
C      1  0.5249560000000  0.5559880000000  0.5836590000000 1.0
C      1  0.4390350000000  0.4936190000000  0.5836590000000 1.0
C      1  0.5194280000000  0.4271480000000  0.5133220000000 1.0
C      1  0.5533770000000  0.5532510000000  0.5133220000000 1.0
C      1  0.4271940000000  0.5196000000000  0.5133220000000 1.0
C      1  0.4746750000000  0.5581770000000  0.5747260000000 1.0
C      1  0.4622800000000  0.4489800000000  0.5747260000000 1.0
C      1  0.5630450000000  0.4928440000000  0.5747260000000 1.0
C      1  0.4005350000000  0.4856170000000  0.5250580000000 1.0
C      1  0.5621880000000  0.4210530000000  0.5250590000000 1.0
C      1  0.5372760000000  0.5933300000000  0.5250590000000 1.0
C      1  0.5028820000000  0.5554080000000  0.5644860000000 1.0
C      1  0.4505740000000  0.4747920000000  0.5644860000000 1.0
C      1  0.5465430000000  0.4698000000000  0.5644860000000 1.0
C      1  0.5255860000000  0.5329450000000  0.6287070000000 1.0
C      1  0.4586760000000  0.5056860000000  0.6287070000000 1.0
C      1  0.5157370000000  0.4613700000000  0.6287070000000 1.0
C      1  0.4678410000000  0.4036510000000  0.5141940000000 1.0
C      1  0.5995200000000  0.5203240000000  0.5141950000000 1.0
C      1  0.4326380000000  0.5760250000000  0.5141940000000 1.0
C      1  0.5640650000000  0.4335020000000  0.4945320000000 1.0
C      1  0.5255570000000  0.5887310000000  0.4945310000000 1.0
C      1  0.4103780000000  0.4777680000000  0.4945310000000 1.0
C      1  0.4245760000000  0.4849070000000  0.4308840000000 1.0
C      1  0.5507840000000  0.4422270000000  0.4308840000000 1.0
C      1  0.5246420000000  0.5728660000000  0.4308840000000 1.0
C      1  0.5049010000000  0.5490860000000  0.3913770000000 1.0
C      1  0.4550400000000  0.4797010000000  0.3913770000000 1.0
C      1  0.5400600000000  0.4712120000000  0.3913770000000 1.0
C      1  0.4852040000000  0.3982940000000  0.4897770000000 1.0
C      1  0.5954780000000  0.5380390000000  0.4897770000000 1.0
C      1  0.4193180000000  0.5636670000000  0.4897770000000 1.0
C      1  0.5605270000000  0.5050370000000  0.4262010000000 1.0
C      1  0.4653750000000  0.5498990000000  0.4262000000000 1.0
C      1  0.4740990000000  0.4450640000000  0.4262000000000 1.0
C      1  0.4824020000000  0.5083980000000  0.4211880000000 1.0
C      1  0.5015260000000  0.4805600000000  0.4211880000000 1.0
C      1  0.5160720000000  0.5110410000000  0.4211880000000 1.0
C      1  0.4719750000000  0.5754030000000  0.4385710000000 1.0
C      1  0.4487110000000  0.4380280000000  0.4385720000000 1.0
C      1  0.5793140000000  0.4865690000000  0.4385720000000 1.0
C      1  0.4471370000000  0.4389570000000  0.4854830000000 1.0
C      1  0.5792960000000  0.4847410000000  0.4854830000000 1.0
C      1  0.4735670000000  0.5763020000000  0.4854830000000 1.0
C      1  0.4994210000000  0.4465270000000  0.4456680000000 1.0
C      1  0.5465990000000  0.5262340000000  0.4456680000000 1.0
C      1  0.4539810000000  0.5272380000000  0.4456670000000 1.0
C      1  0.4563140000000  0.4279990000000  0.5557180000000 1.0
C      1  0.5841970000000  0.4981680000000  0.5557180000000 1.0
C      1  0.4594880000000  0.5738330000000  0.5557180000000 1.0
C      1  0.5688940000000  0.5511500000000  0.5572320000000 1.0
C      1  0.4212550000000  0.5340890000000  0.5572320000000 1.0
C      1  0.5098500000000  0.4147610000000  0.5572320000000 1.0
C      1  0.5480830000000  0.5935640000000  0.4759660000000 1.0
C      1  0.3949300000000  0.4948580000000  0.4759650000000 1.0
C      1  0.5569880000000  0.4115770000000  0.4759660000000 1.0
C      1  0.5192990000000  0.5716250000000  0.4023980000000 1.0
C      1  0.4283220000000  0.4809010000000  0.4023970000000 1.0
C      1  0.5523800000000  0.4474740000000  0.4023980000000 1.0
C      1  0.4799110000000  0.4139060000000  0.5427740000000 1.0
C      1  0.5846030000000  0.5256500000000  0.5427750000000 1.0
C      1  0.4354850000000  0.5604440000000  0.5427740000000 1.0
END
