TITL C-862501-1041-302 -6.27202550480048e-07 125000 -12.3085327188619 0 0 4 (D(inf)h) n - 1
REM
REM in /home/nfs/bkarasulu/CARBON/AIRSS/Generating-Clusters/TERSOFF/Higher-Symm/FIRE-HFTN
REM
REM
REM
REM
REM
REM ./C.cell (b20cbc046b6831c77cfcea5457e17084)
REM AIRSS Version 0.9.1 bugfix July 2018 build 013d7b7c2542+ Fri, 06 Jul 2018 19:26:36 +0100
REM compiler GCC version 9.2.1 20190827 (Red Hat 9.2.1-1)
REM options -cpp -mtune=generic -march=x86-64 -g -O0 -fpre-include=/usr/include/finclude/math-vector-fortran.h
REM seed 1561837109 1932748575 -2030401240 1699680953 -253514724 -757036479 -226759029 -1759227862 -1101607904 378826273 -1235142597 853784597 -652917082 1333720604 1633605126 1906382186 -1589887601 -733347845 -242469363 -581507663 186423418 29396459 -714056900 -1846903533 1990113401 1622373974 -1903654263 1048496098 397272306 -833998698 1275880974 107110296 -549048087
REM
CELL 1.54180   50.00000   50.00000   50.00000   90.00000   90.00000   90.00000
LATT -1
SFAC C  
C      1  0.5019860000000  0.5454270000000  0.4953650000000 1.0
C      1  0.5019860000000  0.5154940000000  0.4953650000000 1.0
C      1  0.5019860000000  0.4545730000000  0.4953650000000 1.0
C      1  0.5019860000000  0.4845060000000  0.4953650000000 1.0
END
