TITL C-862129-6180-988 9.42383230431202e-06 125000 -339.046607168185 0 0 67 (C2v) n - 1
REM
REM in /home/nfs/bkarasulu/CARBON/AIRSS/Generating-Clusters/TERSOFF/Higher-Symm/FIRE-HFTN
REM
REM
REM
REM
REM
REM ./C.cell (b20cbc046b6831c77cfcea5457e17084)
REM AIRSS Version 0.9.1 bugfix July 2018 build 013d7b7c2542+ Fri, 06 Jul 2018 19:26:36 +0100
REM compiler GCC version 9.2.1 20190827 (Red Hat 9.2.1-1)
REM options -cpp -mtune=generic -march=x86-64 -g -O0 -fpre-include=/usr/include/finclude/math-vector-fortran.h
REM seed -122365083 1618756818 -605074499 1149460096 -1001016013 1574021183 1126139524 -969127313 -1074150562 917590924 -1696901708 587059767 -1701168791 309624031 383265046 -22619770 1550293580 -1904415515 -262258339 817884750 781350288 -536509624 -881626240 1225486416 -1156942483 29395259 386382007 -1708734055 -485113402 -280586768 198433516 1728043159 1333065531
REM
CELL 1.54180   50.00000   50.00000   50.00000   90.00000   90.00000   90.00000
LATT -1
SFAC C  
C      1  0.5553170000000  0.4818870000000  0.5290230000000 1.0
C      1  0.4459490000000  0.4818870000000  0.4712160000000 1.0
C      1  0.4459490000000  0.4818870000000  0.5290230000000 1.0
C      1  0.5553170000000  0.4818870000000  0.4712160000000 1.0
C      1  0.5502640000000  0.4962810000000  0.5610060000000 1.0
C      1  0.4510020000000  0.4962810000000  0.4392330000000 1.0
C      1  0.4510020000000  0.4962810000000  0.5610060000000 1.0
C      1  0.5502640000000  0.4962810000000  0.4392330000000 1.0
C      1  0.5152650000000  0.4889920000000  0.5393120000000 1.0
C      1  0.4860010000000  0.4889920000000  0.4609270000000 1.0
C      1  0.4860010000000  0.4889920000000  0.5393120000000 1.0
C      1  0.5152650000000  0.4889920000000  0.4609270000000 1.0
C      1  0.5251600000000  0.4609350000000  0.5268860000000 1.0
C      1  0.4761060000000  0.4609350000000  0.4733530000000 1.0
C      1  0.4761060000000  0.4609350000000  0.5268860000000 1.0
C      1  0.5251600000000  0.4609350000000  0.4733530000000 1.0
C      1  0.4824730000000  0.4878040000000  0.4285270000000 1.0
C      1  0.5187930000000  0.4878040000000  0.5717130000000 1.0
C      1  0.5187930000000  0.4878040000000  0.4285270000000 1.0
C      1  0.4824730000000  0.4878040000000  0.5717130000000 1.0
C      1  0.5706240000000  0.5090840000000  0.5154740000000 1.0
C      1  0.4306430000000  0.5090840000000  0.4847650000000 1.0
C      1  0.4306430000000  0.5090840000000  0.5154740000000 1.0
C      1  0.5706240000000  0.5090840000000  0.4847650000000 1.0
C      1  0.5769150000000  0.4608910000000  0.5256960000000 1.0
C      1  0.4243510000000  0.4608910000000  0.4745430000000 1.0
C      1  0.4243510000000  0.4608910000000  0.5256960000000 1.0
C      1  0.5769150000000  0.4608910000000  0.4745430000000 1.0
C      1  0.5172540000000  0.5358330000000  0.4440030000000 1.0
C      1  0.4840120000000  0.5358330000000  0.5562360000000 1.0
C      1  0.4840120000000  0.5358330000000  0.4440030000000 1.0
C      1  0.5172540000000  0.5358330000000  0.5562360000000 1.0
C      1  0.4778510000000  0.5711660000000  0.4791220000000 1.0
C      1  0.5234150000000  0.5711660000000  0.5211180000000 1.0
C      1  0.5234150000000  0.5711660000000  0.4791220000000 1.0
C      1  0.4778510000000  0.5711660000000  0.5211180000000 1.0
C      1  0.5624640000000  0.5338870000000  0.4695590000000 1.0
C      1  0.4388030000000  0.5338870000000  0.5306810000000 1.0
C      1  0.4388030000000  0.5338870000000  0.4695590000000 1.0
C      1  0.5624640000000  0.5338870000000  0.5306810000000 1.0
C      1  0.4760460000000  0.4373340000000  0.5447010000000 1.0
C      1  0.5252200000000  0.4373340000000  0.4555380000000 1.0
C      1  0.5252200000000  0.4373340000000  0.5447010000000 1.0
C      1  0.4760460000000  0.4373340000000  0.4555380000000 1.0
C      1  0.4621400000000  0.5460410000000  0.5151360000000 1.0
C      1  0.5391270000000  0.5460410000000  0.4851030000000 1.0
C      1  0.5391270000000  0.5460410000000  0.5151360000000 1.0
C      1  0.4621400000000  0.5460410000000  0.4851030000000 1.0
C      1  0.5215680000000  0.5206090000000  0.4737910000000 1.0
C      1  0.4796980000000  0.5206090000000  0.5264480000000 1.0
C      1  0.4796980000000  0.5206090000000  0.4737910000000 1.0
C      1  0.5215680000000  0.5206090000000  0.5264480000000 1.0
C      1  0.5494340000000  0.5263070000000  0.4429220000000 1.0
C      1  0.4518320000000  0.5263070000000  0.5573170000000 1.0
C      1  0.4518320000000  0.5263070000000  0.4429220000000 1.0
C      1  0.5494340000000  0.5263070000000  0.5573170000000 1.0
C      1  0.4653630000000  0.4912510000000  0.5001200000000 1.0
C      1  0.5359030000000  0.4912510000000  0.5001200000000 1.0
C      1  0.4146490000000  0.4514600000000  0.5001200000000 1.0
C      1  0.5866170000000  0.4514600000000  0.5001200000000 1.0
C      1  0.5006330000000  0.4255530000000  0.5535950000000 1.0
C      1  0.5006330000000  0.4255530000000  0.4466440000000 1.0
C      1  0.5006330000000  0.5218090000000  0.5001200000000 1.0
C      1  0.5006330000000  0.4255090000000  0.5001200000000 1.0
C      1  0.5006330000000  0.5820500000000  0.5001200000000 1.0
C      1  0.5006330000000  0.4898190000000  0.5001200000000 1.0
C      1  0.5006330000000  0.4571420000000  0.5001200000000 1.0
END
