TITL C-862127-1500-928 -0.00304411844843218 125000 -297.68583162483 0 0 62 (C5) n - 1
REM
REM in /home/nfs/bkarasulu/CARBON/AIRSS/Generating-Clusters/TERSOFF/Higher-Symm/FIRE-HFTN
REM
REM
REM
REM
REM
REM ./C.cell (b20cbc046b6831c77cfcea5457e17084)
REM AIRSS Version 0.9.1 bugfix July 2018 build 013d7b7c2542+ Fri, 06 Jul 2018 19:26:36 +0100
REM compiler GCC version 9.2.1 20190827 (Red Hat 9.2.1-1)
REM options -cpp -mtune=generic -march=x86-64 -g -O0 -fpre-include=/usr/include/finclude/math-vector-fortran.h
REM seed -950868221 -1008617765 -400504414 -564906852 -2068255374 1259495146 -981662559 -337546739 2032218150 1535174175 -1574720822 1500776656 -693206859 -141909964 -347648161 1960217597 1172603619 -1273670639 -73287089 -1973114092 -1929848587 -746485749 1510506907 -765042768 -1095284284 -260462099 1595954641 183474621 1588435314 621551066 1362423610 -116918662 -1604408362
REM
CELL 1.54180   50.00000   50.00000   50.00000   90.00000   90.00000   90.00000
LATT -1
SFAC C  
C      1  0.4888860000000  0.4726860000000  0.5226500000000 1.0
C      1  0.5179650000000  0.4726860000000  0.5177540000000 1.0
C      1  0.5222940000000  0.4726860000000  0.4885860000000 1.0
C      1  0.4958920000000  0.4726860000000  0.4754550000000 1.0
C      1  0.4752440000000  0.4726860000000  0.4965070000000 1.0
C      1  0.5037130000000  0.4909170000000  0.4275200000000 1.0
C      1  0.4320730000000  0.4909170000000  0.4742560000000 1.0
C      1  0.4543830000000  0.4909170000000  0.5568320000000 1.0
C      1  0.5398120000000  0.4909170000000  0.5611310000000 1.0
C      1  0.5703000000000  0.4909170000000  0.4812120000000 1.0
C      1  0.5441740000000  0.4585450000000  0.4755570000000 1.0
C      1  0.4902610000000  0.4585450000000  0.4506200000000 1.0
C      1  0.4498850000000  0.4585450000000  0.4941880000000 1.0
C      1  0.4788440000000  0.4585450000000  0.5460510000000 1.0
C      1  0.5371170000000  0.4585450000000  0.5345360000000 1.0
C      1  0.5299710000000  0.4462400000000  0.4513190000000 1.0
C      1  0.4628210000000  0.4462400000000  0.4566370000000 1.0
C      1  0.4471280000000  0.4462400000000  0.5221450000000 1.0
C      1  0.5045810000000  0.4462400000000  0.5573120000000 1.0
C      1  0.5557800000000  0.4462400000000  0.5135390000000 1.0
C      1  0.4716350000000  0.5312550000000  0.5488330000000 1.0
C      1  0.5375350000000  0.5312550000000  0.5422520000000 1.0
C      1  0.5516410000000  0.5312550000000  0.4775430000000 1.0
C      1  0.4944580000000  0.5312550000000  0.4441330000000 1.0
C      1  0.4450120000000  0.5312550000000  0.4881920000000 1.0
C      1  0.5620270000000  0.4798260000000  0.5082990000000 1.0
C      1  0.5269180000000  0.4798260000000  0.4437590000000 1.0
C      1  0.4546870000000  0.4798260000000  0.4572050000000 1.0
C      1  0.4451550000000  0.4798260000000  0.5300560000000 1.0
C      1  0.5114940000000  0.4798260000000  0.5616340000000 1.0
C      1  0.5419970000000  0.5574480000000  0.5296820000000 1.0
C      1  0.5410650000000  0.5574480000000  0.4694160000000 1.0
C      1  0.4834610000000  0.5574480000000  0.4516790000000 1.0
C      1  0.4487910000000  0.5574480000000  0.5009830000000 1.0
C      1  0.4849680000000  0.5574480000000  0.5491910000000 1.0
C      1  0.4739780000000  0.5728320000000  0.5006420000000 1.0
C      1  0.4924270000000  0.5728320000000  0.5251310000000 1.0
C      1  0.5214190000000  0.5728320000000  0.5151540000000 1.0
C      1  0.5208890000000  0.5728320000000  0.4844970000000 1.0
C      1  0.4915690000000  0.5728320000000  0.4755280000000 1.0
C      1  0.4757020000000  0.4303110000000  0.5114320000000 1.0
C      1  0.5032220000000  0.4303110000000  0.5268270000000 1.0
C      1  0.5263670000000  0.4303110000000  0.5054110000000 1.0
C      1  0.5131520000000  0.4303110000000  0.4767810000000 1.0
C      1  0.4818390000000  0.4303110000000  0.4805020000000 1.0
C      1  0.5302290000000  0.5253850000000  0.4419170000000 1.0
C      1  0.4539590000000  0.5253850000000  0.4534870000000 1.0
C      1  0.4413940000000  0.5253850000000  0.5295990000000 1.0
C      1  0.5098980000000  0.5253850000000  0.5650690000000 1.0
C      1  0.5648010000000  0.5253850000000  0.5108790000000 1.0
C      1  0.5356190000000  0.5110430000000  0.4987050000000 1.0
C      1  0.5096330000000  0.5110430000000  0.4659090000000 1.0
C      1  0.4704120000000  0.5110430000000  0.4804890000000 1.0
C      1  0.4721590000000  0.5110430000000  0.5222960000000 1.0
C      1  0.5124590000000  0.5110430000000  0.5335540000000 1.0
C      1  0.4350060000000  0.5011910000000  0.5055520000000 1.0
C      1  0.4850540000000  0.5011910000000  0.5637130000000 1.0
C      1  0.5558340000000  0.5011910000000  0.5340880000000 1.0
C      1  0.5495310000000  0.5011910000000  0.4576170000000 1.0
C      1  0.4748560000000  0.5011910000000  0.4399810000000 1.0
C      1  0.5000560000000  0.5399740000000  0.5001900000000 1.0
C      1  0.5000560000000  0.5101330000000  0.5001900000000 1.0
END
