TITL C-862500-986-773 1.75369351005039e-06 125000 -79.7967258313188 0 0 16 (D2d) n - 1
REM
REM in /home/nfs/bkarasulu/CARBON/AIRSS/Generating-Clusters/TERSOFF/Higher-Symm/FIRE-HFTN
REM
REM
REM
REM
REM
REM ./C.cell (b20cbc046b6831c77cfcea5457e17084)
REM AIRSS Version 0.9.1 bugfix July 2018 build 013d7b7c2542+ Fri, 06 Jul 2018 19:26:36 +0100
REM compiler GCC version 9.2.1 20190827 (Red Hat 9.2.1-1)
REM options -cpp -mtune=generic -march=x86-64 -g -O0 -fpre-include=/usr/include/finclude/math-vector-fortran.h
REM seed -1813580041 -1224721135 35804229 412287348 -465002620 -2052175540 707443205 -1411704159 619202436 -474624121 -327135170 -298595199 1600870032 -721719537 971610071 -878357242 1489794244 -1161739644 1086165726 1785069202 958728532 -549224303 936282804 1409174315 1478471552 -293544731 1863376066 1811318054 1274842958 -1421936444 -1442685962 -1763110984 -1416189669
REM
CELL 1.54180   50.00000   50.00000   50.00000   90.00000   90.00000   90.00000
LATT -1
SFAC C  
C      1  0.4484710000000  0.5309050000000  0.5103040000000 1.0
C      1  0.5515290000000  0.5309050000000  0.4896960000000 1.0
C      1  0.5515290000000  0.4690950000000  0.5103040000000 1.0
C      1  0.4484710000000  0.4690950000000  0.4896960000000 1.0
C      1  0.5103040000000  0.5309050000000  0.4484710000000 1.0
C      1  0.4896960000000  0.5309050000000  0.5515290000000 1.0
C      1  0.5103040000000  0.4690950000000  0.5515290000000 1.0
C      1  0.4896960000000  0.4690950000000  0.4484710000000 1.0
C      1  0.5309760000000  0.5103360000000  0.4896800000000 1.0
C      1  0.4690240000000  0.5103360000000  0.5103200000000 1.0
C      1  0.4690240000000  0.4896640000000  0.4896800000000 1.0
C      1  0.5309760000000  0.4896640000000  0.5103200000000 1.0
C      1  0.4896800000000  0.5103360000000  0.5309760000000 1.0
C      1  0.5103200000000  0.5103360000000  0.4690240000000 1.0
C      1  0.4896800000000  0.4896640000000  0.4690240000000 1.0
C      1  0.5103200000000  0.4896640000000  0.5309760000000 1.0
END
