TITL C-862505-1648-590 0.986659109702763 125000 -1119.71680570334 0 0 198 (C3) n - 1
REM
REM in /home/nfs/bkarasulu/CARBON/AIRSS/Generating-Clusters/TERSOFF/Higher-Symm/FIRE-HFTN
REM
REM
REM
REM
REM
REM ./C.cell (b20cbc046b6831c77cfcea5457e17084)
REM AIRSS Version 0.9.1 bugfix July 2018 build 013d7b7c2542+ Fri, 06 Jul 2018 19:26:36 +0100
REM compiler GCC version 9.2.1 20190827 (Red Hat 9.2.1-1)
REM options -cpp -mtune=generic -march=x86-64 -g -O0 -fpre-include=/usr/include/finclude/math-vector-fortran.h
REM seed 1606196213 -227201365 -258310182 -1972338829 -1433909503 -1864801757 -1319951093 1087100291 -1887776155 1776446030 -1927600694 627307678 1269983179 -1483777347 -273702187 572939676 1398341215 1951352570 2010941233 85522622 348246343 -2051403410 1451021748 543742104 -340902646 -1477396301 -284071729 2058536105 -1937574623 -197529891 841862987 -702658407 -750601413
REM
CELL 1.54180   50.00000   50.00000   50.00000   90.00000   90.00000   90.00000
LATT -1
SFAC C  
C      1  0.5477080000000  0.5377540000000  0.5748250000000 1.0
C      1  0.4434500000000  0.5224400000000  0.5748250000000 1.0
C      1  0.5088420000000  0.4398060000000  0.5748250000000 1.0
C      1  0.4683600000000  0.5206320000000  0.3999290000000 1.0
C      1  0.4979520000000  0.4622820000000  0.3999290000000 1.0
C      1  0.5336880000000  0.5170850000000  0.3999290000000 1.0
C      1  0.5382240000000  0.5946920000000  0.5186330000000 1.0
C      1  0.3988820000000  0.4857570000000  0.5186340000000 1.0
C      1  0.5628940000000  0.4195510000000  0.5186340000000 1.0
C      1  0.5496140000000  0.4564790000000  0.5510030000000 1.0
C      1  0.5128830000000  0.5647270000000  0.5510030000000 1.0
C      1  0.4375030000000  0.4787940000000  0.5510030000000 1.0
C      1  0.5741310000000  0.5115110000000  0.5291340000000 1.0
C      1  0.4529650000000  0.5584440000000  0.5291340000000 1.0
C      1  0.4729040000000  0.4300450000000  0.5291340000000 1.0
C      1  0.6234680000000  0.5291060000000  0.4927700000000 1.0
C      1  0.4130590000000  0.5923740000000  0.4927700000000 1.0
C      1  0.4634720000000  0.3785200000000  0.4927700000000 1.0
C      1  0.5154170000000  0.5261800000000  0.4423380000000 1.0
C      1  0.4696190000000  0.5002610000000  0.4423380000000 1.0
C      1  0.5149640000000  0.4735590000000  0.4423380000000 1.0
C      1  0.4833610000000  0.5695110000000  0.4862080000000 1.0
C      1  0.4481210000000  0.4508350000000  0.4862080000000 1.0
C      1  0.5685180000000  0.4796540000000  0.4862080000000 1.0
C      1  0.3939310000000  0.5698070000000  0.4898080000000 1.0
C      1  0.4925800000000  0.3732390000000  0.4898080000000 1.0
C      1  0.6134890000000  0.5569550000000  0.4898070000000 1.0
C      1  0.5328920000000  0.4554420000000  0.5738410000000 1.0
C      1  0.5221420000000  0.5507650000000  0.5738410000000 1.0
C      1  0.4449650000000  0.4937940000000  0.5738410000000 1.0
C      1  0.4346200000000  0.5369270000000  0.5351670000000 1.0
C      1  0.5007110000000  0.4249160000000  0.5351670000000 1.0
C      1  0.5646700000000  0.5381580000000  0.5351670000000 1.0
C      1  0.5449020000000  0.5909740000000  0.4339150000000 1.0
C      1  0.3987630000000  0.4933990000000  0.4339150000000 1.0
C      1  0.5563350000000  0.4156260000000  0.4339150000000 1.0
C      1  0.4708090000000  0.5018330000000  0.6339960000000 1.0
C      1  0.5130080000000  0.4738040000000  0.6339960000000 1.0
C      1  0.5161830000000  0.5243640000000  0.6339960000000 1.0
C      1  0.5993440000000  0.5651270000000  0.4408460000000 1.0
C      1  0.3939260000000  0.5534700000000  0.4408460000000 1.0
C      1  0.5067300000000  0.3814020000000  0.4408460000000 1.0
C      1  0.3952440000000  0.4561800000000  0.5126810000000 1.0
C      1  0.5903270000000  0.4311880000000  0.5126810000000 1.0
C      1  0.5144290000000  0.6126310000000  0.5126810000000 1.0
C      1  0.4445920000000  0.4715490000000  0.4030410000000 1.0
C      1  0.5523430000000  0.4662410000000  0.4030410000000 1.0
C      1  0.5030650000000  0.5622090000000  0.4030410000000 1.0
C      1  0.4357310000000  0.5932300000000  0.5132890000000 1.0
C      1  0.4513950000000  0.3977270000000  0.5132890000000 1.0
C      1  0.6128740000000  0.5090440000000  0.5132890000000 1.0
C      1  0.4685830000000  0.4522170000000  0.3955630000000 1.0
C      1  0.5570900000000  0.4966830000000  0.3955630000000 1.0
C      1  0.4743270000000  0.5510990000000  0.3955630000000 1.0
C      1  0.5125310000000  0.6253110000000  0.4860930000000 1.0
C      1  0.3852120000000  0.4481970000000  0.4860940000000 1.0
C      1  0.6022570000000  0.4264920000000  0.4860940000000 1.0
C      1  0.4920080000000  0.5438580000000  0.5335310000000 1.0
C      1  0.4660130000000  0.4711500000000  0.5335310000000 1.0
C      1  0.5419780000000  0.4849920000000  0.5335310000000 1.0
C      1  0.4562070000000  0.5710120000000  0.4086750000000 1.0
C      1  0.4603990000000  0.4265680000000  0.4086760000000 1.0
C      1  0.5833950000000  0.5024200000000  0.4086750000000 1.0
C      1  0.5806240000000  0.5568260000000  0.4193220000000 1.0
C      1  0.4104750000000  0.5414090000000  0.4193220000000 1.0
C      1  0.5089010000000  0.4017640000000  0.4193220000000 1.0
C      1  0.4273780000000  0.4881600000000  0.5236120000000 1.0
C      1  0.5465650000000  0.4430270000000  0.5236120000000 1.0
C      1  0.5260580000000  0.5688130000000  0.5236110000000 1.0
C      1  0.4859270000000  0.5149770000000  0.5203020000000 1.0
C      1  0.4940660000000  0.4803240000000  0.5203030000000 1.0
C      1  0.5200060000000  0.5046990000000  0.5203020000000 1.0
C      1  0.4395720000000  0.5135240000000  0.5191530000000 1.0
C      1  0.5185020000000  0.4409060000000  0.5191530000000 1.0
C      1  0.5419260000000  0.5455700000000  0.5191520000000 1.0
C      1  0.5320610000000  0.3533720000000  0.5307510000000 1.0
C      1  0.6109530000000  0.6010800000000  0.5307500000000 1.0
C      1  0.3569850000000  0.5455480000000  0.5307510000000 1.0
C      1  0.4869550000000  0.5263590000000  0.6304170000000 1.0
C      1  0.4836950000000  0.4755230000000  0.6304170000000 1.0
C      1  0.5293500000000  0.4981180000000  0.6304170000000 1.0
C      1  0.5452830000000  0.3406790000000  0.5531530000000 1.0
C      1  0.6153340000000  0.6188790000000  0.5531510000000 1.0
C      1  0.3393840000000  0.5404460000000  0.5531540000000 1.0
C      1  0.4968950000000  0.5816310000000  0.4243670000000 1.0
C      1  0.4308570000000  0.4564950000000  0.4243670000000 1.0
C      1  0.5722480000000  0.4618730000000  0.4243670000000 1.0
C      1  0.4369190000000  0.5900530000000  0.5708650000000 1.0
C      1  0.4535520000000  0.4003430000000  0.5708660000000 1.0
C      1  0.6095290000000  0.5096040000000  0.5708650000000 1.0
C      1  0.5228650000000  0.4519100000000  0.6183420000000 1.0
C      1  0.5302150000000  0.5438470000000  0.6183410000000 1.0
C      1  0.4469210000000  0.5042440000000  0.6183420000000 1.0
C      1  0.5107200000000  0.3862320000000  0.4700070000000 1.0
C      1  0.5931660000000  0.5661680000000  0.4700060000000 1.0
C      1  0.3961130000000  0.5476000000000  0.4700070000000 1.0
C      1  0.5366020000000  0.4005270000000  0.4789450000000 1.0
C      1  0.5678450000000  0.5814340000000  0.4789450000000 1.0
C      1  0.3955530000000  0.5180380000000  0.4789450000000 1.0
C      1  0.5643320000000  0.5297070000000  0.4562480000000 1.0
C      1  0.4421070000000  0.5408590000000  0.4562480000000 1.0
C      1  0.4935610000000  0.4294340000000  0.4562480000000 1.0
C      1  0.5317110000000  0.4999730000000  0.4315610000000 1.0
C      1  0.4841670000000  0.5274760000000  0.4315610000000 1.0
C      1  0.4841210000000  0.4725500000000  0.4315610000000 1.0
C      1  0.4139420000000  0.5123360000000  0.4147180000000 1.0
C      1  0.5323460000000  0.4193030000000  0.4147180000000 1.0
C      1  0.5537120000000  0.5683610000000  0.4147170000000 1.0
C      1  0.4719540000000  0.4690770000000  0.4809340000000 1.0
C      1  0.5408030000000  0.4911730000000  0.4809340000000 1.0
C      1  0.4872430000000  0.5397500000000  0.4809330000000 1.0
C      1  0.5699470000000  0.4401410000000  0.4436060000000 1.0
C      1  0.5168660000000  0.5905060000000  0.4436050000000 1.0
C      1  0.4131860000000  0.4693530000000  0.4436060000000 1.0
C      1  0.5662420000000  0.5932500000000  0.5075150000000 1.0
C      1  0.3861220000000  0.5107420000000  0.5075150000000 1.0
C      1  0.5476360000000  0.3960070000000  0.5075160000000 1.0
C      1  0.4717900000000  0.5187730000000  0.4928500000000 1.0
C      1  0.4978470000000  0.4661830000000  0.4928500000000 1.0
C      1  0.5303630000000  0.5150440000000  0.4928500000000 1.0
C      1  0.4990700000000  0.4405000000000  0.6019880000000 1.0
C      1  0.5519940000000  0.5289450000000  0.6019870000000 1.0
C      1  0.4489360000000  0.5305560000000  0.6019870000000 1.0
C      1  0.3827060000000  0.5050550000000  0.4552240000000 1.0
C      1  0.5542690000000  0.3958930000000  0.4552240000000 1.0
C      1  0.5630250000000  0.5990520000000  0.4552240000000 1.0
C      1  0.4645250000000  0.5752680000000  0.5815020000000 1.0
C      1  0.4525540000000  0.4316430000000  0.5815020000000 1.0
C      1  0.5829220000000  0.4930890000000  0.5815020000000 1.0
C      1  0.5298760000000  0.3820980000000  0.5268890000000 1.0
C      1  0.5871680000000  0.5848240000000  0.5268880000000 1.0
C      1  0.3829560000000  0.5330780000000  0.5268880000000 1.0
C      1  0.5121850000000  0.5293390000000  0.4732010000000 1.0
C      1  0.4684990000000  0.4958830000000  0.4732010000000 1.0
C      1  0.5193160000000  0.4747770000000  0.4732010000000 1.0
C      1  0.4629130000000  0.3914950000000  0.5427030000000 1.0
C      1  0.6125120000000  0.5221340000000  0.5427030000000 1.0
C      1  0.4245750000000  0.5863710000000  0.5427030000000 1.0
C      1  0.5561900000000  0.4499840000000  0.4699370000000 1.0
C      1  0.5152200000000  0.5736700000000  0.4699370000000 1.0
C      1  0.4285890000000  0.4763460000000  0.4699370000000 1.0
C      1  0.5562930000000  0.4977550000000  0.6064320000000 1.0
C      1  0.4737980000000  0.5498740000000  0.6064320000000 1.0
C      1  0.4699090000000  0.4523720000000  0.6064320000000 1.0
C      1  0.5911720000000  0.4731970000000  0.4639670000000 1.0
C      1  0.4776260000000  0.5923580000000  0.4639670000000 1.0
C      1  0.4312020000000  0.4344440000000  0.4639680000000 1.0
C      1  0.5083470000000  0.5584740000000  0.6003790000000 1.0
C      1  0.4451870000000  0.4779930000000  0.6003790000000 1.0
C      1  0.5464660000000  0.4635340000000  0.6003790000000 1.0
C      1  0.5604700000000  0.5038260000000  0.4438390000000 1.0
C      1  0.4664520000000  0.5504560000000  0.4438390000000 1.0
C      1  0.4730780000000  0.4457190000000  0.4438390000000 1.0
C      1  0.4933330000000  0.5864040000000  0.5896490000000 1.0
C      1  0.4285060000000  0.4510240000000  0.5896500000000 1.0
C      1  0.5781620000000  0.4625730000000  0.5896500000000 1.0
C      1  0.5968310000000  0.4427290000000  0.4622270000000 1.0
C      1  0.5011830000000  0.6124940000000  0.4622270000000 1.0
C      1  0.4019860000000  0.4447770000000  0.4622270000000 1.0
C      1  0.4234390000000  0.4087950000000  0.5158710000000 1.0
C      1  0.6172660000000  0.4792990000000  0.5158700000000 1.0
C      1  0.4592950000000  0.6119060000000  0.5158700000000 1.0
C      1  0.4199260000000  0.4365220000000  0.5280660000000 1.0
C      1  0.5950100000000  0.4623930000000  0.5280650000000 1.0
C      1  0.4850640000000  0.6010850000000  0.5280650000000 1.0
C      1  0.4689490000000  0.5799830000000  0.4360170000000 1.0
C      1  0.4462580000000  0.4331170000000  0.4360170000000 1.0
C      1  0.5847930000000  0.4868990000000  0.4360170000000 1.0
C      1  0.5098630000000  0.3978060000000  0.5422780000000 1.0
C      1  0.5835710000000  0.5596390000000  0.5422770000000 1.0
C      1  0.4065660000000  0.5425550000000  0.5422780000000 1.0
C      1  0.5817030000000  0.5076700000000  0.4998210000000 1.0
C      1  0.4525060000000  0.5669220000000  0.4998210000000 1.0
C      1  0.4657900000000  0.4254080000000  0.4998210000000 1.0
C      1  0.4225500000000  0.5025570000000  0.4823620000000 1.0
C      1  0.5365100000000  0.4316480000000  0.4823620000000 1.0
C      1  0.5409400000000  0.5657950000000  0.4823610000000 1.0
C      1  0.5809590000000  0.4889330000000  0.5480590000000 1.0
C      1  0.4691050000000  0.5756460000000  0.5480590000000 1.0
C      1  0.4499360000000  0.4354210000000  0.5480590000000 1.0
C      1  0.4413360000000  0.5132030000000  0.4463480000000 1.0
C      1  0.5178970000000  0.4425940000000  0.4463480000000 1.0
C      1  0.5407660000000  0.5442030000000  0.4463480000000 1.0
C      1  0.5655880000000  0.4691240000000  0.5143780000000 1.0
C      1  0.4939460000000  0.5722390000000  0.5143780000000 1.0
C      1  0.4404660000000  0.4586370000000  0.5143780000000 1.0
C      1  0.5273910000000  0.4485340000000  0.4034640000000 1.0
C      1  0.5308750000000  0.5494540000000  0.4034640000000 1.0
C      1  0.4417340000000  0.5020110000000  0.4034640000000 1.0
C      1  0.5171540000000  0.5090280000000  0.3769060000000 1.0
C      1  0.4836040000000  0.5103420000000  0.3769060000000 1.0
C      1  0.4992410000000  0.4806300000000  0.3769060000000 1.0
C      1  0.5759040000000  0.4500700000000  0.5631320000000 1.0
C      1  0.5052890000000  0.5907000000000  0.5631320000000 1.0
C      1  0.4188070000000  0.4592310000000  0.5631320000000 1.0
C      1  0.4358850000000  0.5487710000000  0.4834130000000 1.0
C      1  0.4898200000000  0.4200890000000  0.4834130000000 1.0
C      1  0.5742950000000  0.5311400000000  0.4834130000000 1.0
END
