TITL C-862506-1665-1500 -157481.278038544 125000 -309.589048969027 0 0 56 (C1) n - 1
REM
REM in /home/nfs/bkarasulu/CARBON/AIRSS/Generating-Clusters/TERSOFF/Higher-Symm/FIRE-HFTN
REM
REM
REM
REM
REM
REM ./C.cell (b20cbc046b6831c77cfcea5457e17084)
REM AIRSS Version 0.9.1 bugfix July 2018 build 013d7b7c2542+ Fri, 06 Jul 2018 19:26:36 +0100
REM compiler GCC version 9.2.1 20190827 (Red Hat 9.2.1-1)
REM options -cpp -mtune=generic -march=x86-64 -g -O0 -fpre-include=/usr/include/finclude/math-vector-fortran.h
REM seed 428718541 -1625195384 714031109 -1437366537 -345547165 -1050412856 -1263252099 -2007971899 -135499312 1475827227 503546006 -1636332286 -1443149469 -1411852742 -54739971 -715932264 -1943773238 1836819601 -755275095 -677675424 467235734 -723312419 -1694422080 1339066622 1657677615 359741043 -130293431 -2008549001 431067136 -314695122 1996289844 -486814765 -1497449886
REM
CELL 1.54180   50.00000   50.00000   50.00000   90.00000   90.00000   90.00000
LATT -1
SFAC C  
C      1  0.4782020000000  0.4603570000000  0.5326470000000 1.0
C      1  0.4719570000000  0.4381480000000  0.5145410000000 1.0
C      1  0.4898110000000  0.5470960000000  0.4401710000000 1.0
C      1  0.4496890000000  0.5083220000000  0.4875890000000 1.0
C      1  0.4987270000000  0.4911200000000  0.4840580000000 1.0
C      1  0.5260310000000  0.4388310000000  0.5379420000000 1.0
C      1  0.5376770000000  0.5001430000000  0.4982150000000 1.0
C      1  0.4220510000000  0.4907570000000  0.5138840000000 1.0
C      1  0.5555030000000  0.4711280000000  0.5227840000000 1.0
C      1  0.5319910000000  0.5493040000000  0.4720840000000 1.0
C      1  0.4703050000000  0.4889480000000  0.4789410000000 1.0
C      1  0.4820990000000  0.4970840000000  0.4291170000000 1.0
C      1  0.4935880000000  0.4291450000000  0.4980750000000 1.0
C      1  0.5337150000000  0.4633680000000  0.4523410000000 1.0
C      1  0.4529950000000  0.5413020000000  0.5560330000000 1.0
C      1  0.4726020000000  0.5239340000000  0.4358870000000 1.0
C      1  0.5086350000000  0.5800350000000  0.5037220000000 1.0
C      1  0.5003000000000  0.5019120000000  0.5790670000000 1.0
C      1  0.5437980000000  0.5407270000000  0.4434200000000 1.0
C      1  0.4543700000000  0.5306270000000  0.5058880000000 1.0
C      1  0.4919880000000  0.4430260000000  0.4706620000000 1.0
C      1  0.4641380000000  0.4625350000000  0.4648150000000 1.0
C      1  0.4402370000000  0.5330510000000  0.5310410000000 1.0
C      1  0.5338100000000  0.5645850000000  0.5005620000000 1.0
C      1  0.5499390000000  0.5105810000000  0.4469520000000 1.0
C      1  0.5098230000000  0.4937690000000  0.4196020000000 1.0
C      1  0.5364790000000  0.4865000000000  0.5643160000000 1.0
C      1  0.5471650000000  0.5508820000000  0.5237630000000 1.0
C      1  0.4800950000000  0.5426860000000  0.5056010000000 1.0
C      1  0.5016370000000  0.5282470000000  0.5170470000000 1.0
C      1  0.4208080000000  0.4762390000000  0.4883240000000 1.0
C      1  0.4592310000000  0.5002870000000  0.5491960000000 1.0
C      1  0.5188490000000  0.4249670000000  0.5127150000000 1.0
C      1  0.4412690000000  0.4823070000000  0.5345920000000 1.0
C      1  0.5094970000000  0.5016450000000  0.5090710000000 1.0
C      1  0.4458100000000  0.4367410000000  0.5024520000000 1.0
C      1  0.4391060000000  0.4547210000000  0.4807390000000 1.0
C      1  0.5124930000000  0.4378460000000  0.4446630000000 1.0
C      1  0.4656600000000  0.4734730000000  0.4365870000000 1.0
C      1  0.4044450000000  0.5133870000000  0.5186960000000 1.0
C      1  0.5430750000000  0.5160490000000  0.5631030000000 1.0
C      1  0.5308350000000  0.4688440000000  0.5400210000000 1.0
C      1  0.5307530000000  0.5378580000000  0.5457410000000 1.0
C      1  0.5021410000000  0.5542360000000  0.4656460000000 1.0
C      1  0.5329620000000  0.4885690000000  0.4369160000000 1.0
C      1  0.5499630000000  0.5190010000000  0.4788000000000 1.0
C      1  0.5044040000000  0.5501470000000  0.5527770000000 1.0
C      1  0.5604650000000  0.4544740000000  0.4607880000000 1.0
C      1  0.4810510000000  0.5357300000000  0.5632600000000 1.0
C      1  0.5757680000000  0.5274620000000  0.4913050000000 1.0
C      1  0.5778450000000  0.4886910000000  0.5281700000000 1.0
C      1  0.5735750000000  0.5405450000000  0.5169050000000 1.0
C      1  0.5039740000000  0.4809720000000  0.5312100000000 1.0
C      1  0.4868860000000  0.5655200000000  0.4889100000000 1.0
C      1  0.5118960000000  0.4666910000000  0.4750690000000 1.0
C      1  0.4878850000000  0.4954480000000  0.5535780000000 1.0
END
