TITL C-862507-1800-1108 0.0128132537946195 125000 -391.974508930668 0 0 68 (C3) n - 1
REM
REM in /home/nfs/bkarasulu/CARBON/AIRSS/Generating-Clusters/TERSOFF/Higher-Symm/FIRE-HFTN
REM
REM
REM
REM
REM
REM ./C.cell (b20cbc046b6831c77cfcea5457e17084)
REM AIRSS Version 0.9.1 bugfix July 2018 build 013d7b7c2542+ Fri, 06 Jul 2018 19:26:36 +0100
REM compiler GCC version 9.2.1 20190827 (Red Hat 9.2.1-1)
REM options -cpp -mtune=generic -march=x86-64 -g -O0 -fpre-include=/usr/include/finclude/math-vector-fortran.h
REM seed -705300607 -330970512 1820051651 1792432808 457445085 -374913468 -1442963836 1500971308 1874235190 -1336610589 -284412296 482064569 -139700698 683851957 -1546426893 -583589217 111094980 -959384419 638992864 -1536165187 1374963766 -1961093881 -1170616428 1344434096 1463608879 6504783 117129806 -1471708493 715980730 -150917799 2017699433 -1379141111 -1530130083
REM
CELL 1.54180   50.00000   50.00000   50.00000   90.00000   90.00000   90.00000
LATT -1
SFAC C  
C      1  0.5357900000000  0.5055610000000  0.4733820000000 1.0
C      1  0.5357900000000  0.5209340000000  0.5188520000000 1.0
C      1  0.5357900000000  0.4738700000000  0.5094300000000 1.0
C      1  0.4325600000000  0.4792120000000  0.5222640000000 1.0
C      1  0.4325600000000  0.4917760000000  0.4715920000000 1.0
C      1  0.4325600000000  0.5293770000000  0.5078090000000 1.0
C      1  0.4767410000000  0.4282140000000  0.5181520000000 1.0
C      1  0.4767410000000  0.5208360000000  0.4294830000000 1.0
C      1  0.4767410000000  0.5513150000000  0.5540310000000 1.0
C      1  0.5139050000000  0.4572700000000  0.5029620000000 1.0
C      1  0.5139050000000  0.5194620000000  0.4622410000000 1.0
C      1  0.5139050000000  0.5236320000000  0.5364620000000 1.0
C      1  0.4764100000000  0.4262010000000  0.4873550000000 1.0
C      1  0.4764100000000  0.5485130000000  0.4431380000000 1.0
C      1  0.4764100000000  0.5256500000000  0.5711720000000 1.0
C      1  0.5049100000000  0.4255530000000  0.5289420000000 1.0
C      1  0.5049100000000  0.5128220000000  0.4217830000000 1.0
C      1  0.5049100000000  0.5619900000000  0.5509390000000 1.0
C      1  0.4996210000000  0.4630180000000  0.4411110000000 1.0
C      1  0.4996210000000  0.5701530000000  0.4981450000000 1.0
C      1  0.4996210000000  0.4671930000000  0.5624090000000 1.0
C      1  0.4454960000000  0.4828030000000  0.4469250000000 1.0
C      1  0.4454960000000  0.5552260000000  0.5123720000000 1.0
C      1  0.4454960000000  0.4623350000000  0.5423680000000 1.0
C      1  0.4535190000000  0.5625000000000  0.5397660000000 1.0
C      1  0.4535190000000  0.4349740000000  0.5349710000000 1.0
C      1  0.4535190000000  0.5028900000000  0.4269280000000 1.0
C      1  0.5435780000000  0.5667740000000  0.5142790000000 1.0
C      1  0.5435780000000  0.4549100000000  0.5514160000000 1.0
C      1  0.5435780000000  0.4786810000000  0.4359700000000 1.0
C      1  0.4707930000000  0.5157510000000  0.4881590000000 1.0
C      1  0.4707940000000  0.5030420000000  0.5202880000000 1.0
C      1  0.4707940000000  0.4815720000000  0.4932180000000 1.0
C      1  0.5058950000000  0.5574340000000  0.4461890000000 1.0
C      1  0.5058960000000  0.5185480000000  0.5773720000000 1.0
C      1  0.5058960000000  0.4243830000000  0.4781040000000 1.0
C      1  0.4925850000000  0.5306390000000  0.4775120000000 1.0
C      1  0.4925850000000  0.5048190000000  0.5385060000000 1.0
C      1  0.4925850000000  0.4649060000000  0.4856470000000 1.0
C      1  0.4405430000000  0.5080440000000  0.5274820000000 1.0
C      1  0.4405430000000  0.4728400000000  0.4939530000000 1.0
C      1  0.4405430000000  0.5194800000000  0.4802300000000 1.0
C      1  0.5640990000000  0.4702450000000  0.5002190000000 1.0
C      1  0.5640990000000  0.5153510000000  0.4748490000000 1.0
C      1  0.5640990000000  0.5147690000000  0.5265960000000 1.0
C      1  0.4545340000000  0.5583320000000  0.4605680000000 1.0
C      1  0.4545340000000  0.5056460000000  0.5709600000000 1.0
C      1  0.4545340000000  0.4363870000000  0.4701370000000 1.0
C      1  0.5658250000000  0.5443600000000  0.4727920000000 1.0
C      1  0.5658250000000  0.5020460000000  0.5527470000000 1.0
C      1  0.5658250000000  0.4539590000000  0.4761250000000 1.0
C      1  0.5154170000000  0.4443440000000  0.5499200000000 1.0
C      1  0.5154170000000  0.4852590000000  0.4275670000000 1.0
C      1  0.5154170000000  0.5707620000000  0.5241770000000 1.0
C      1  0.5459810000000  0.5624590000000  0.4842160000000 1.0
C      1  0.5459810000000  0.4831030000000  0.5627100000000 1.0
C      1  0.5459810000000  0.4548030000000  0.4547380000000 1.0
C      1  0.5210690000000  0.5452120000000  0.5715940000000 1.0
C      1  0.5210690000000  0.4160540000000  0.5040850000000 1.0
C      1  0.5210690000000  0.5390980000000  0.4259850000000 1.0
C      1  0.4578430000000  0.4558300000000  0.4478290000000 1.0
C      1  0.4578430000000  0.5679290000000  0.4885610000000 1.0
C      1  0.4578430000000  0.4766050000000  0.5652750000000 1.0
C      1  0.5167840000000  0.4908950000000  0.5709370000000 1.0
C      1  0.5167840000000  0.4437820000000  0.4573730000000 1.0
C      1  0.5167840000000  0.5656880000000  0.4733550000000 1.0
C      1  0.5302350000000  0.5001220000000  0.5005550000000 1.0
C      1  0.5747730000000  0.5001220000000  0.5005550000000 1.0
END
