TITL C-862501-1041-1349 0.00455821369785229 125000 -912.880605504244 0 0 179 (C1) n - 1
REM
REM in /home/nfs/bkarasulu/CARBON/AIRSS/Generating-Clusters/TERSOFF/Higher-Symm/FIRE-HFTN
REM
REM
REM
REM
REM
REM ./C.cell (b20cbc046b6831c77cfcea5457e17084)
REM AIRSS Version 0.9.1 bugfix July 2018 build 013d7b7c2542+ Fri, 06 Jul 2018 19:26:36 +0100
REM compiler GCC version 9.2.1 20190827 (Red Hat 9.2.1-1)
REM options -cpp -mtune=generic -march=x86-64 -g -O0 -fpre-include=/usr/include/finclude/math-vector-fortran.h
REM seed 1523934675 -1671867780 -621996045 -915655549 -649690655 1636658068 288239224 -1383499654 940292515 1938135214 -187826463 1551714367 1368593264 745917510 1341755850 222648869 -1254322791 2055162908 -1895370053 1037199880 -620788884 1888314881 -993768728 -921394009 -1387136372 544687838 -1932359090 -1103775405 2095824845 1229543638 1432812502 706004537 -1345231146
REM
CELL 1.54180   50.00000   50.00000   50.00000   90.00000   90.00000   90.00000
LATT -1
SFAC C  
C      1  0.4131680000000  0.4683570000000  0.5284910000000 1.0
C      1  0.4177010000000  0.5320690000000  0.4594520000000 1.0
C      1  0.4699040000000  0.4672360000000  0.4158420000000 1.0
C      1  0.5408230000000  0.5318340000000  0.4200320000000 1.0
C      1  0.5874110000000  0.4681990000000  0.4701300000000 1.0
C      1  0.5813960000000  0.5319520000000  0.5407950000000 1.0
C      1  0.5275010000000  0.4679780000000  0.5840240000000 1.0
C      1  0.4594210000000  0.5332150000000  0.5802440000000 1.0
C      1  0.4795780000000  0.4205840000000  0.5086680000000 1.0
C      1  0.4778990000000  0.5817980000000  0.4948080000000 1.0
C      1  0.4915610000000  0.4212420000000  0.4783420000000 1.0
C      1  0.5079940000000  0.5825560000000  0.4795530000000 1.0
C      1  0.5235170000000  0.4187020000000  0.4879650000000 1.0
C      1  0.5230530000000  0.5848100000000  0.5097060000000 1.0
C      1  0.5096900000000  0.4192810000000  0.5183980000000 1.0
C      1  0.4922590000000  0.5849090000000  0.5228280000000 1.0
C      1  0.5761780000000  0.5735410000000  0.4682220000000 1.0
C      1  0.5743460000000  0.4296460000000  0.5307450000000 1.0
C      1  0.5315160000000  0.5729050000000  0.5763740000000 1.0
C      1  0.4687900000000  0.4268190000000  0.5765580000000 1.0
C      1  0.4225440000000  0.5746750000000  0.5331830000000 1.0
C      1  0.4252660000000  0.4288280000000  0.4710870000000 1.0
C      1  0.4686930000000  0.5714720000000  0.4264580000000 1.0
C      1  0.5333710000000  0.4217980000000  0.4203070000000 1.0
C      1  0.5759000000000  0.4995120000000  0.4773080000000 1.0
C      1  0.5688430000000  0.4999140000000  0.5376000000000 1.0
C      1  0.5220550000000  0.5003560000000  0.5757460000000 1.0
C      1  0.4614540000000  0.5010090000000  0.5701410000000 1.0
C      1  0.4218310000000  0.5005510000000  0.5228320000000 1.0
C      1  0.4297500000000  0.5000970000000  0.4605610000000 1.0
C      1  0.4789380000000  0.4984300000000  0.4251530000000 1.0
C      1  0.5396880000000  0.4987560000000  0.4291550000000 1.0
C      1  0.6103320000000  0.4604660000000  0.5329330000000 1.0
C      1  0.5547600000000  0.5386870000000  0.6011730000000 1.0
C      1  0.4675900000000  0.4620600000000  0.6098140000000 1.0
C      1  0.3989990000000  0.5383510000000  0.5552140000000 1.0
C      1  0.3884660000000  0.4594260000000  0.4684100000000 1.0
C      1  0.4446480000000  0.5402260000000  0.3996020000000 1.0
C      1  0.5312170000000  0.4622720000000  0.3918740000000 1.0
C      1  0.6012300000000  0.5393160000000  0.4453650000000 1.0
C      1  0.5368260000000  0.5127470000000  0.5137760000000 1.0
C      1  0.5204000000000  0.4877780000000  0.5346400000000 1.0
C      1  0.4938710000000  0.5128860000000  0.5357740000000 1.0
C      1  0.4693410000000  0.4903430000000  0.5220890000000 1.0
C      1  0.4614060000000  0.5141550000000  0.4961480000000 1.0
C      1  0.4761910000000  0.4949880000000  0.4742500000000 1.0
C      1  0.5098790000000  0.5055040000000  0.4663180000000 1.0
C      1  0.5330970000000  0.4793580000000  0.4683860000000 1.0
C      1  0.6017320000000  0.5566130000000  0.4696770000000 1.0
C      1  0.5926550000000  0.4435570000000  0.5504750000000 1.0
C      1  0.5304820000000  0.5561640000000  0.6018530000000 1.0
C      1  0.4498940000000  0.4445450000000  0.5934650000000 1.0
C      1  0.3977430000000  0.5561350000000  0.5313700000000 1.0
C      1  0.4072210000000  0.4434420000000  0.4517570000000 1.0
C      1  0.4698030000000  0.5562940000000  0.4002940000000 1.0
C      1  0.5501880000000  0.4440570000000  0.4053760000000 1.0
C      1  0.5848580000000  0.4127900000000  0.4822620000000 1.0
C      1  0.5724580000000  0.5871270000000  0.5458160000000 1.0
C      1  0.5202590000000  0.4149470000000  0.5822150000000 1.0
C      1  0.4549860000000  0.5864730000000  0.5736450000000 1.0
C      1  0.4157380000000  0.4141330000000  0.5204160000000 1.0
C      1  0.4273340000000  0.5877200000000  0.4548810000000 1.0
C      1  0.4804750000000  0.4110060000000  0.4195100000000 1.0
C      1  0.5438760000000  0.5856190000000  0.4281280000000 1.0
C      1  0.5255710000000  0.4387260000000  0.4610930000000 1.0
C      1  0.5333320000000  0.5533250000000  0.4952650000000 1.0
C      1  0.5241640000000  0.4507880000000  0.5146520000000 1.0
C      1  0.5056960000000  0.5536070000000  0.5313420000000 1.0
C      1  0.4780260000000  0.4453090000000  0.5303650000000 1.0
C      1  0.4618460000000  0.5558990000000  0.5068010000000 1.0
C      1  0.4785090000000  0.4543950000000  0.4842350000000 1.0
C      1  0.4931640000000  0.5504210000000  0.4720940000000 1.0
C      1  0.5104480000000  0.4816150000000  0.4319620000000 1.0
C      1  0.5543300000000  0.5140890000000  0.4582810000000 1.0
C      1  0.5656450000000  0.4830190000000  0.5068700000000 1.0
C      1  0.5421270000000  0.5168190000000  0.5556450000000 1.0
C      1  0.4906270000000  0.4849110000000  0.5668640000000 1.0
C      1  0.4450180000000  0.5176330000000  0.5424980000000 1.0
C      1  0.4316850000000  0.4849270000000  0.4914640000000 1.0
C      1  0.4571130000000  0.5174560000000  0.4445170000000 1.0
C      1  0.5047650000000  0.4967430000000  0.6045340000000 1.0
C      1  0.4287070000000  0.5039620000000  0.5786110000000 1.0
C      1  0.3933810000000  0.4963220000000  0.5042170000000 1.0
C      1  0.4214020000000  0.5043770000000  0.4270170000000 1.0
C      1  0.4955200000000  0.4955590000000  0.3953690000000 1.0
C      1  0.5722340000000  0.5040000000000  0.4217090000000 1.0
C      1  0.6038810000000  0.4966070000000  0.4962790000000 1.0
C      1  0.5785120000000  0.5029100000000  0.5709960000000 1.0
C      1  0.4880630000000  0.5253070000000  0.5990540000000 1.0
C      1  0.4205290000000  0.4757570000000  0.5624410000000 1.0
C      1  0.3997920000000  0.5251340000000  0.4883620000000 1.0
C      1  0.4381820000000  0.4756020000000  0.4254530000000 1.0
C      1  0.5107260000000  0.5241780000000  0.4040620000000 1.0
C      1  0.5823840000000  0.4752300000000  0.4358010000000 1.0
C      1  0.5980090000000  0.5251850000000  0.5114790000000 1.0
C      1  0.5620810000000  0.4745460000000  0.5801010000000 1.0
C      1  0.4787660000000  0.4488220000000  0.4385280000000 1.0
C      1  0.5294040000000  0.5480830000000  0.4432690000000 1.0
C      1  0.5634530000000  0.4498690000000  0.4753630000000 1.0
C      1  0.5596160000000  0.5498130000000  0.5290700000000 1.0
C      1  0.5194530000000  0.4517890000000  0.5598100000000 1.0
C      1  0.4711060000000  0.5498320000000  0.5578020000000 1.0
C      1  0.4377460000000  0.4521690000000  0.5209330000000 1.0
C      1  0.4393220000000  0.5497550000000  0.4719110000000 1.0
C      1  0.4240680000000  0.5391980000000  0.4246440000000 1.0
C      1  0.4994720000000  0.4605190000000  0.3960490000000 1.0
C      1  0.5760310000000  0.5381900000000  0.4254020000000 1.0
C      1  0.6062660000000  0.4623280000000  0.5005420000000 1.0
C      1  0.5749710000000  0.5376520000000  0.5759000000000 1.0
C      1  0.4994590000000  0.4626990000000  0.6060790000000 1.0
C      1  0.4240100000000  0.5380810000000  0.5753090000000 1.0
C      1  0.3917280000000  0.4617990000000  0.5002670000000 1.0
C      1  0.5436260000000  0.3996260000000  0.5032670000000 1.0
C      1  0.5280780000000  0.6030300000000  0.5351740000000 1.0
C      1  0.4966720000000  0.3999840000000  0.5410200000000 1.0
C      1  0.4664730000000  0.6027590000000  0.5293490000000 1.0
C      1  0.4578590000000  0.4011410000000  0.4985690000000 1.0
C      1  0.4713360000000  0.6001060000000  0.4690260000000 1.0
C      1  0.5042420000000  0.3987920000000  0.4564450000000 1.0
C      1  0.5333270000000  0.6016580000000  0.4726500000000 1.0
C      1  0.4536200000000  0.4428360000000  0.5479830000000 1.0
C      1  0.4318990000000  0.5590520000000  0.5023070000000 1.0
C      1  0.4568880000000  0.4430690000000  0.4610540000000 1.0
C      1  0.4978220000000  0.5556960000000  0.4407510000000 1.0
C      1  0.5519210000000  0.4376500000000  0.4468440000000 1.0
C      1  0.5645340000000  0.5576910000000  0.4978260000000 1.0
C      1  0.5439380000000  0.4448940000000  0.5398280000000 1.0
C      1  0.5022430000000  0.5578210000000  0.5627180000000 1.0
C      1  0.4237950000000  0.4534640000000  0.5828320000000 1.0
C      1  0.3871820000000  0.5472320000000  0.5051850000000 1.0
C      1  0.4182470000000  0.4535700000000  0.4268100000000 1.0
C      1  0.4954700000000  0.5461000000000  0.3905970000000 1.0
C      1  0.5772010000000  0.4526130000000  0.4146780000000 1.0
C      1  0.6114920000000  0.5469650000000  0.4957320000000 1.0
C      1  0.5825240000000  0.4524140000000  0.5767010000000 1.0
C      1  0.5045730000000  0.5469010000000  0.6123190000000 1.0
C      1  0.5042500000000  0.4290690000000  0.4116880000000 1.0
C      1  0.5659220000000  0.5684020000000  0.4399880000000 1.0
C      1  0.5884810000000  0.4330780000000  0.5044810000000 1.0
C      1  0.5600270000000  0.5685260000000  0.5665660000000 1.0
C      1  0.4962690000000  0.4324400000000  0.5889000000000 1.0
C      1  0.4337400000000  0.5685930000000  0.5610630000000 1.0
C      1  0.4098010000000  0.4320830000000  0.4970510000000 1.0
C      1  0.4396210000000  0.5686790000000  0.4345390000000 1.0
C      1  0.4829820000000  0.5949730000000  0.4417410000000 1.0
C      1  0.5322620000000  0.4006140000000  0.4448620000000 1.0
C      1  0.5607380000000  0.5969150000000  0.4834170000000 1.0
C      1  0.5545760000000  0.4053590000000  0.5304810000000 1.0
C      1  0.5166810000000  0.5972140000000  0.5621360000000 1.0
C      1  0.4695850000000  0.4044190000000  0.5535130000000 1.0
C      1  0.4391490000000  0.5973550000000  0.5178570000000 1.0
C      1  0.4451330000000  0.4042510000000  0.4719000000000 1.0
C      1  0.4649180000000  0.4103620000000  0.4473790000000 1.0
C      1  0.5143010000000  0.5868120000000  0.4383000000000 1.0
C      1  0.5593620000000  0.4096370000000  0.4640790000000 1.0
C      1  0.5644250000000  0.5890720000000  0.5153100000000 1.0
C      1  0.5343080000000  0.4131060000000  0.5542360000000 1.0
C      1  0.4849460000000  0.5888040000000  0.5643910000000 1.0
C      1  0.4426870000000  0.4132410000000  0.5358000000000 1.0
C      1  0.4343710000000  0.5890760000000  0.4856150000000 1.0
C      1  0.4562250000000  0.4678690000000  0.5018150000000 1.0
C      1  0.4660810000000  0.5355350000000  0.4703240000000 1.0
C      1  0.5052160000000  0.4560580000000  0.4473850000000 1.0
C      1  0.5325400000000  0.5336900000000  0.4690730000000 1.0
C      1  0.5436140000000  0.4646670000000  0.4950930000000 1.0
C      1  0.5327970000000  0.5374860000000  0.5341210000000 1.0
C      1  0.4974170000000  0.4640120000000  0.5441180000000 1.0
C      1  0.4672210000000  0.5371480000000  0.5307630000000 1.0
C      1  0.4544620000000  0.4775060000000  0.4569750000000 1.0
C      1  0.4980360000000  0.5214140000000  0.4361750000000 1.0
C      1  0.5499250000000  0.4716520000000  0.4422690000000 1.0
C      1  0.5668680000000  0.5236800000000  0.4971990000000 1.0
C      1  0.5514360000000  0.4764620000000  0.5489530000000 1.0
C      1  0.5029790000000  0.5249420000000  0.5684980000000 1.0
C      1  0.4525280000000  0.4772570000000  0.5509520000000 1.0
C      1  0.4296580000000  0.5248800000000  0.5041070000000 1.0
C      1  0.5022600000000  0.4701300000000  0.5011670000000 1.0
C      1  0.5049290000000  0.5366490000000  0.5005720000000 1.0
C      1  0.5095360000000  0.5042880000000  0.4978760000000 1.0
END
