TITL C-862507-1800-413 0.372653445140234 125000 -681.355447795389 0 0 123 (C1) n - 1
REM
REM in /home/nfs/bkarasulu/CARBON/AIRSS/Generating-Clusters/TERSOFF/Higher-Symm/FIRE-HFTN
REM
REM
REM
REM
REM
REM ./C.cell (b20cbc046b6831c77cfcea5457e17084)
REM AIRSS Version 0.9.1 bugfix July 2018 build 013d7b7c2542+ Fri, 06 Jul 2018 19:26:36 +0100
REM compiler GCC version 9.2.1 20190827 (Red Hat 9.2.1-1)
REM options -cpp -mtune=generic -march=x86-64 -g -O0 -fpre-include=/usr/include/finclude/math-vector-fortran.h
REM seed 307399646 1554116986 -218801950 -160977578 -1038104529 107694299 686695500 1839723355 -538504010 -895685837 -552893061 -1129272860 203885191 373403254 1109167692 337325825 1010240723 -616070596 599011453 477350710 -1701901949 83167475 -208472784 119395789 2138943185 921907953 2076020521 -1194093463 -1957083321 204727684 -1443352516 -1343438346 -1363644283
REM
CELL 1.54180   50.00000   50.00000   50.00000   90.00000   90.00000   90.00000
LATT -1
SFAC C  
C      1  0.4239620000000  0.5553970000000  0.4976470000000 1.0
C      1  0.4227620000000  0.4434260000000  0.4959280000000 1.0
C      1  0.4986120000000  0.4738530000000  0.4921660000000 1.0
C      1  0.4992620000000  0.5284230000000  0.4922700000000 1.0
C      1  0.4718980000000  0.4424090000000  0.4993190000000 1.0
C      1  0.4718720000000  0.5586770000000  0.5014000000000 1.0
C      1  0.5042740000000  0.4402930000000  0.5748000000000 1.0
C      1  0.5058090000000  0.5620220000000  0.5778340000000 1.0
C      1  0.5365900000000  0.4245660000000  0.4215800000000 1.0
C      1  0.5368770000000  0.5755160000000  0.4202120000000 1.0
C      1  0.5614120000000  0.5696890000000  0.4888070000000 1.0
C      1  0.5603560000000  0.4307700000000  0.4902810000000 1.0
C      1  0.5873380000000  0.5379380000000  0.5299040000000 1.0
C      1  0.5867500000000  0.4632930000000  0.5305020000000 1.0
C      1  0.5312660000000  0.4234490000000  0.4495230000000 1.0
C      1  0.5321050000000  0.5769680000000  0.4481980000000 1.0
C      1  0.4780940000000  0.4390390000000  0.5543890000000 1.0
C      1  0.4795940000000  0.5598160000000  0.5566440000000 1.0
C      1  0.4342050000000  0.4633550000000  0.5723830000000 1.0
C      1  0.4359600000000  0.5355680000000  0.5744850000000 1.0
C      1  0.4975520000000  0.5333870000000  0.4496100000000 1.0
C      1  0.4972230000000  0.4673550000000  0.4497640000000 1.0
C      1  0.4118750000000  0.4705550000000  0.4844170000000 1.0
C      1  0.4149260000000  0.5278320000000  0.4871590000000 1.0
C      1  0.5624610000000  0.4459930000000  0.5392230000000 1.0
C      1  0.5637050000000  0.5557790000000  0.5374940000000 1.0
C      1  0.4345640000000  0.4834790000000  0.5004490000000 1.0
C      1  0.4359500000000  0.5115710000000  0.5014880000000 1.0
C      1  0.4528210000000  0.5607570000000  0.5738680000000 1.0
C      1  0.4509680000000  0.4379540000000  0.5712270000000 1.0
C      1  0.5671090000000  0.4715080000000  0.4535470000000 1.0
C      1  0.5675610000000  0.5284450000000  0.4530370000000 1.0
C      1  0.4531410000000  0.5144150000000  0.5396870000000 1.0
C      1  0.4526710000000  0.4854580000000  0.5386120000000 1.0
C      1  0.4478740000000  0.5715810000000  0.4809610000000 1.0
C      1  0.4474420000000  0.4282960000000  0.4797870000000 1.0
C      1  0.4395180000000  0.5321470000000  0.4425080000000 1.0
C      1  0.4392690000000  0.4682850000000  0.4416480000000 1.0
C      1  0.4207180000000  0.5157880000000  0.4582510000000 1.0
C      1  0.4197750000000  0.4843370000000  0.4569160000000 1.0
C      1  0.5518750000000  0.4257200000000  0.5208030000000 1.0
C      1  0.5537040000000  0.5763110000000  0.5190040000000 1.0
C      1  0.5067170000000  0.4146910000000  0.4926420000000 1.0
C      1  0.5061570000000  0.5880510000000  0.4944690000000 1.0
C      1  0.4738380000000  0.5153510000000  0.4070580000000 1.0
C      1  0.4739890000000  0.4852930000000  0.4068020000000 1.0
C      1  0.5200030000000  0.5566890000000  0.4068450000000 1.0
C      1  0.5202330000000  0.4432640000000  0.4073160000000 1.0
C      1  0.4837020000000  0.5977580000000  0.5112150000000 1.0
C      1  0.4852860000000  0.4038420000000  0.5091650000000 1.0
C      1  0.4475820000000  0.5267690000000  0.4149620000000 1.0
C      1  0.4477470000000  0.4736210000000  0.4142460000000 1.0
C      1  0.5269900000000  0.4723090000000  0.4119060000000 1.0
C      1  0.5268570000000  0.5276530000000  0.4117280000000 1.0
C      1  0.4967100000000  0.4859150000000  0.5204150000000 1.0
C      1  0.4969220000000  0.5164700000000  0.5202000000000 1.0
C      1  0.4962470000000  0.5832850000000  0.5350040000000 1.0
C      1  0.4954050000000  0.4151860000000  0.5348920000000 1.0
C      1  0.5527640000000  0.5148290000000  0.5241650000000 1.0
C      1  0.5525680000000  0.4833610000000  0.5166250000000 1.0
C      1  0.5407640000000  0.4580730000000  0.5566660000000 1.0
C      1  0.5417300000000  0.5437100000000  0.5531530000000 1.0
C      1  0.5893020000000  0.5274400000000  0.5020150000000 1.0
C      1  0.5903000000000  0.4720980000000  0.5021020000000 1.0
C      1  0.4978440000000  0.4906030000000  0.5882710000000 1.0
C      1  0.5037950000000  0.5148960000000  0.6036190000000 1.0
C      1  0.4319750000000  0.5548990000000  0.5275780000000 1.0
C      1  0.4313690000000  0.4452310000000  0.5254720000000 1.0
C      1  0.4773530000000  0.5255240000000  0.4708290000000 1.0
C      1  0.4766010000000  0.4754650000000  0.4706550000000 1.0
C      1  0.4264110000000  0.4694350000000  0.5425800000000 1.0
C      1  0.4274350000000  0.5307010000000  0.5446790000000 1.0
C      1  0.4759380000000  0.5275270000000  0.5568810000000 1.0
C      1  0.4741970000000  0.4712090000000  0.5560520000000 1.0
C      1  0.4758080000000  0.4335010000000  0.4371840000000 1.0
C      1  0.4758770000000  0.5672210000000  0.4374640000000 1.0
C      1  0.5376460000000  0.4735560000000  0.4591870000000 1.0
C      1  0.5381600000000  0.5284230000000  0.4589550000000 1.0
C      1  0.5183200000000  0.5381090000000  0.5932300000000 1.0
C      1  0.5139870000000  0.4660000000000  0.5880260000000 1.0
C      1  0.4571270000000  0.4839980000000  0.5808810000000 1.0
C      1  0.4586160000000  0.5140310000000  0.5813260000000 1.0
C      1  0.5669590000000  0.5167830000000  0.5837310000000 1.0
C      1  0.5657280000000  0.4863550000000  0.5762360000000 1.0
C      1  0.4902700000000  0.5633480000000  0.4101750000000 1.0
C      1  0.4905130000000  0.4369810000000  0.4102470000000 1.0
C      1  0.5344930000000  0.5396800000000  0.5120010000000 1.0
C      1  0.5308270000000  0.4617400000000  0.5160700000000 1.0
C      1  0.4561630000000  0.5975250000000  0.4999670000000 1.0
C      1  0.4575440000000  0.4030110000000  0.4987910000000 1.0
C      1  0.5236660000000  0.5150110000000  0.4798120000000 1.0
C      1  0.5235560000000  0.4870240000000  0.4800700000000 1.0
C      1  0.5269160000000  0.4127440000000  0.5382640000000 1.0
C      1  0.5273800000000  0.5869800000000  0.5377170000000 1.0
C      1  0.5505450000000  0.4138630000000  0.4687610000000 1.0
C      1  0.5519890000000  0.5862240000000  0.4668970000000 1.0
C      1  0.4591890000000  0.5886580000000  0.4535800000000 1.0
C      1  0.4584440000000  0.4120390000000  0.4522310000000 1.0
C      1  0.5750550000000  0.4569400000000  0.4816710000000 1.0
C      1  0.5751110000000  0.5428460000000  0.4811140000000 1.0
C      1  0.4612960000000  0.5608480000000  0.5287720000000 1.0
C      1  0.4607110000000  0.4400950000000  0.5265250000000 1.0
C      1  0.5262860000000  0.5807370000000  0.5670870000000 1.0
C      1  0.5247870000000  0.4206710000000  0.5671060000000 1.0
C      1  0.5108200000000  0.4415260000000  0.4605990000000 1.0
C      1  0.5108290000000  0.5600860000000  0.4596310000000 1.0
C      1  0.4588530000000  0.5469940000000  0.4584060000000 1.0
C      1  0.4584450000000  0.4536050000000  0.4579110000000 1.0
C      1  0.5762160000000  0.5173620000000  0.5499400000000 1.0
C      1  0.5737340000000  0.4858550000000  0.5461280000000 1.0
C      1  0.5019040000000  0.5174480000000  0.4246780000000 1.0
C      1  0.5020270000000  0.4829000000000  0.4247060000000 1.0
C      1  0.5131110000000  0.5587740000000  0.4902170000000 1.0
C      1  0.5144010000000  0.4446130000000  0.4916150000000 1.0
C      1  0.5449690000000  0.4670760000000  0.5854620000000 1.0
C      1  0.5448510000000  0.5361490000000  0.5803240000000 1.0
C      1  0.5156370000000  0.5348210000000  0.5382020000000 1.0
C      1  0.5134730000000  0.4671030000000  0.5417890000000 1.0
C      1  0.5544780000000  0.4844350000000  0.4223260000000 1.0
C      1  0.5542230000000  0.5153240000000  0.4224560000000 1.0
C      1  0.3876000000000  0.4854080000000  0.4945530000000 1.0
C      1  0.3891120000000  0.5146320000000  0.4958440000000 1.0
C      1  0.6017970000000  0.4999420000000  0.4959250000000 1.0
END
