TITL C-862505-1648-568 -290460.151916223 125000 -1029.52043595384 0 0 179 (C1) n - 1
REM
REM in /home/nfs/bkarasulu/CARBON/AIRSS/Generating-Clusters/TERSOFF/Higher-Symm/FIRE-HFTN
REM
REM
REM
REM
REM
REM ./C.cell (b20cbc046b6831c77cfcea5457e17084)
REM AIRSS Version 0.9.1 bugfix July 2018 build 013d7b7c2542+ Fri, 06 Jul 2018 19:26:36 +0100
REM compiler GCC version 9.2.1 20190827 (Red Hat 9.2.1-1)
REM options -cpp -mtune=generic -march=x86-64 -g -O0 -fpre-include=/usr/include/finclude/math-vector-fortran.h
REM seed -2024031223 1862666547 1640120055 -2116771608 1332006284 -747676687 2136058951 -2098917008 393792961 -942781696 828999363 -805011743 -285257487 -1900709401 801974930 748526948 -1717588436 1264512902 -449893030 1816963168 767552132 -1564644308 809830163 1372056282 464064515 -48648199 174246794 -331747579 66621175 2049412400 423624974 1501369073 1435158455
REM
CELL 1.54180   50.00000   50.00000   50.00000   90.00000   90.00000   90.00000
LATT -1
SFAC C  
C      1  0.4629720000000  0.4095650000000  0.4306820000000 1.0
C      1  0.5541860000000  0.4099490000000  0.4456650000000 1.0
C      1  0.5708540000000  0.4084210000000  0.5364910000000 1.0
C      1  0.4884630000000  0.4082830000000  0.5760950000000 1.0
C      1  0.4220640000000  0.4095940000000  0.5101290000000 1.0
C      1  0.4637880000000  0.5885770000000  0.4316270000000 1.0
C      1  0.5546170000000  0.5885500000000  0.4459530000000 1.0
C      1  0.5706470000000  0.5909050000000  0.5369520000000 1.0
C      1  0.4879200000000  0.5916110000000  0.5766570000000 1.0
C      1  0.4217610000000  0.5901890000000  0.5104450000000 1.0
C      1  0.5307070000000  0.3809540000000  0.5321880000000 1.0
C      1  0.4785130000000  0.3857180000000  0.5380080000000 1.0
C      1  0.4608320000000  0.3850720000000  0.4906110000000 1.0
C      1  0.4928260000000  0.3858780000000  0.4550490000000 1.0
C      1  0.5382300000000  0.3840620000000  0.4830500000000 1.0
C      1  0.5294660000000  0.6175700000000  0.5312030000000 1.0
C      1  0.4787880000000  0.6144940000000  0.5375500000000 1.0
C      1  0.4593230000000  0.6152490000000  0.4909390000000 1.0
C      1  0.4934660000000  0.6122290000000  0.4556340000000 1.0
C      1  0.5380430000000  0.6142890000000  0.4835570000000 1.0
C      1  0.5165890000000  0.5722300000000  0.5329260000000 1.0
C      1  0.4774150000000  0.5698640000000  0.5182150000000 1.0
C      1  0.4554280000000  0.5636560000000  0.4772850000000 1.0
C      1  0.5015010000000  0.5699000000000  0.4709530000000 1.0
C      1  0.5354440000000  0.5719100000000  0.4954780000000 1.0
C      1  0.5174640000000  0.4286120000000  0.5332200000000 1.0
C      1  0.4782680000000  0.4300570000000  0.5184670000000 1.0
C      1  0.4563370000000  0.4345230000000  0.4772530000000 1.0
C      1  0.5025070000000  0.4287550000000  0.4713970000000 1.0
C      1  0.5365260000000  0.4279520000000  0.4958790000000 1.0
C      1  0.4738300000000  0.4684910000000  0.4534700000000 1.0
C      1  0.5351360000000  0.4694730000000  0.4607140000000 1.0
C      1  0.5489420000000  0.4704700000000  0.5208750000000 1.0
C      1  0.4951110000000  0.4703900000000  0.5520520000000 1.0
C      1  0.4484840000000  0.4692350000000  0.5108070000000 1.0
C      1  0.4721470000000  0.5291300000000  0.4537600000000 1.0
C      1  0.5351510000000  0.5295480000000  0.4622030000000 1.0
C      1  0.5480030000000  0.5301710000000  0.5222560000000 1.0
C      1  0.4938670000000  0.5309830000000  0.5521130000000 1.0
C      1  0.4483650000000  0.5296380000000  0.5120330000000 1.0
C      1  0.5259180000000  0.3982750000000  0.4549610000000 1.0
C      1  0.5549500000000  0.3942360000000  0.5117670000000 1.0
C      1  0.5086800000000  0.3942120000000  0.5544540000000 1.0
C      1  0.4509860000000  0.3981750000000  0.5186820000000 1.0
C      1  0.4587640000000  0.3963790000000  0.4598770000000 1.0
C      1  0.5264740000000  0.5996740000000  0.4555120000000 1.0
C      1  0.5551730000000  0.6045560000000  0.5121220000000 1.0
C      1  0.5080370000000  0.6057890000000  0.5553890000000 1.0
C      1  0.4505910000000  0.6020980000000  0.5195070000000 1.0
C      1  0.4595990000000  0.6021100000000  0.4609370000000 1.0
C      1  0.4772770000000  0.5586660000000  0.4594630000000 1.0
C      1  0.5304780000000  0.5581710000000  0.4682540000000 1.0
C      1  0.5420060000000  0.5590070000000  0.5225390000000 1.0
C      1  0.4904010000000  0.5592160000000  0.5442740000000 1.0
C      1  0.4561100000000  0.5570720000000  0.5041840000000 1.0
C      1  0.4783210000000  0.4393800000000  0.4597190000000 1.0
C      1  0.5312020000000  0.4408180000000  0.4680120000000 1.0
C      1  0.5429420000000  0.4415760000000  0.5224720000000 1.0
C      1  0.4911400000000  0.4417980000000  0.5444370000000 1.0
C      1  0.4565960000000  0.4418220000000  0.5040040000000 1.0
C      1  0.5894930000000  0.4875460000000  0.4942630000000 1.0
C      1  0.5339980000000  0.4882710000000  0.5806220000000 1.0
C      1  0.4215670000000  0.4879430000000  0.5480050000000 1.0
C      1  0.4306210000000  0.4877850000000  0.4349170000000 1.0
C      1  0.5442830000000  0.4854480000000  0.4131160000000 1.0
C      1  0.5924440000000  0.5113130000000  0.5081420000000 1.0
C      1  0.5219510000000  0.5118020000000  0.5887660000000 1.0
C      1  0.4323710000000  0.5117890000000  0.5569210000000 1.0
C      1  0.4228610000000  0.5114570000000  0.4470530000000 1.0
C      1  0.5487870000000  0.5127710000000  0.4173900000000 1.0
C      1  0.5864300000000  0.5280130000000  0.4549930000000 1.0
C      1  0.5710180000000  0.5286280000000  0.5683840000000 1.0
C      1  0.4573290000000  0.5296570000000  0.5887320000000 1.0
C      1  0.4019220000000  0.5285010000000  0.4877610000000 1.0
C      1  0.4808340000000  0.5280510000000  0.4029810000000 1.0
C      1  0.5864190000000  0.4702960000000  0.4536140000000 1.0
C      1  0.5720970000000  0.4703310000000  0.5673960000000 1.0
C      1  0.4577790000000  0.4707020000000  0.5880380000000 1.0
C      1  0.4022210000000  0.4712430000000  0.4871870000000 1.0
C      1  0.4811280000000  0.4703810000000  0.4025940000000 1.0
C      1  0.4124160000000  0.5958160000000  0.4836360000000 1.0
C      1  0.4888810000000  0.5919720000000  0.4191310000000 1.0
C      1  0.5761450000000  0.5933850000000  0.4640540000000 1.0
C      1  0.5592240000000  0.5949330000000  0.5627040000000 1.0
C      1  0.4601410000000  0.5951150000000  0.5716430000000 1.0
C      1  0.4124290000000  0.4038590000000  0.4834450000000 1.0
C      1  0.4881490000000  0.4058050000000  0.4183750000000 1.0
C      1  0.5759600000000  0.4049700000000  0.4634840000000 1.0
C      1  0.5596940000000  0.4048380000000  0.5624810000000 1.0
C      1  0.4607630000000  0.4049330000000  0.5708650000000 1.0
C      1  0.5163350000000  0.5332850000000  0.5715130000000 1.0
C      1  0.4398120000000  0.5333730000000  0.5400870000000 1.0
C      1  0.4404650000000  0.5329840000000  0.4528130000000 1.0
C      1  0.5318870000000  0.5298000000000  0.4329120000000 1.0
C      1  0.5738180000000  0.5324350000000  0.5073020000000 1.0
C      1  0.5203120000000  0.4664740000000  0.5685930000000 1.0
C      1  0.4368180000000  0.4668760000000  0.5374000000000 1.0
C      1  0.4433720000000  0.4667320000000  0.4486820000000 1.0
C      1  0.5301970000000  0.4680730000000  0.4312810000000 1.0
C      1  0.5726060000000  0.4662010000000  0.5023980000000 1.0
C      1  0.4280130000000  0.4093610000000  0.4596250000000 1.0
C      1  0.5123730000000  0.4152610000000  0.4299110000000 1.0
C      1  0.5749410000000  0.4117020000000  0.4913430000000 1.0
C      1  0.5326400000000  0.4117830000000  0.5685260000000 1.0
C      1  0.4481610000000  0.4148660000000  0.5472500000000 1.0
C      1  0.4282010000000  0.5902310000000  0.4599720000000 1.0
C      1  0.5130400000000  0.5824250000000  0.4306320000000 1.0
C      1  0.5746040000000  0.5865560000000  0.4918430000000 1.0
C      1  0.5322260000000  0.5877970000000  0.5686190000000 1.0
C      1  0.4472180000000  0.5856110000000  0.5479750000000 1.0
C      1  0.4735840000000  0.5155480000000  0.5065820000000 1.0
C      1  0.4850350000000  0.5154080000000  0.4767950000000 1.0
C      1  0.5169780000000  0.5154220000000  0.4800220000000 1.0
C      1  0.5245490000000  0.5162370000000  0.5108040000000 1.0
C      1  0.4975700000000  0.5164720000000  0.5268610000000 1.0
C      1  0.4737690000000  0.4836420000000  0.5060150000000 1.0
C      1  0.4858220000000  0.4830380000000  0.4764730000000 1.0
C      1  0.5172350000000  0.4834730000000  0.4792820000000 1.0
C      1  0.5251080000000  0.4839520000000  0.5100060000000 1.0
C      1  0.4980750000000  0.4842490000000  0.5265480000000 1.0
C      1  0.5061190000000  0.5446900000000  0.3975390000000 1.0
C      1  0.6006360000000  0.5450820000000  0.4764900000000 1.0
C      1  0.5541100000000  0.5452740000000  0.5883760000000 1.0
C      1  0.4334200000000  0.5474060000000  0.5791530000000 1.0
C      1  0.4009390000000  0.5445350000000  0.4610640000000 1.0
C      1  0.5060590000000  0.4534790000000  0.3968920000000 1.0
C      1  0.6006430000000  0.4522510000000  0.4744130000000 1.0
C      1  0.5555360000000  0.4528530000000  0.5873720000000 1.0
C      1  0.4335570000000  0.4537610000000  0.5779780000000 1.0
C      1  0.4017280000000  0.4553330000000  0.4607040000000 1.0
C      1  0.4307170000000  0.5604000000000  0.5493830000000 1.0
C      1  0.4259000000000  0.5608650000000  0.4476500000000 1.0
C      1  0.5251020000000  0.5562300000000  0.4197550000000 1.0
C      1  0.5859200000000  0.5596380000000  0.5009580000000 1.0
C      1  0.5265920000000  0.5603290000000  0.5811630000000 1.0
C      1  0.4314880000000  0.4399420000000  0.5490470000000 1.0
C      1  0.4265730000000  0.4395470000000  0.4481560000000 1.0
C      1  0.5246430000000  0.4409500000000  0.4189960000000 1.0
C      1  0.5860760000000  0.4387420000000  0.5002070000000 1.0
C      1  0.5268400000000  0.4393470000000  0.5807880000000 1.0
C      1  0.5922440000000  0.5459100000000  0.5533270000000 1.0
C      1  0.4786870000000  0.5469790000000  0.6036980000000 1.0
C      1  0.3941440000000  0.5457470000000  0.5123000000000 1.0
C      1  0.4545610000000  0.5450200000000  0.4034420000000 1.0
C      1  0.5779640000000  0.5446860000000  0.4298510000000 1.0
C      1  0.5931800000000  0.4534500000000  0.5518700000000 1.0
C      1  0.4789350000000  0.4530180000000  0.6030340000000 1.0
C      1  0.3944840000000  0.4539400000000  0.5117690000000 1.0
C      1  0.4548620000000  0.4533930000000  0.4025890000000 1.0
C      1  0.5770930000000  0.4540640000000  0.4285290000000 1.0
C      1  0.4973990000000  0.5671640000000  0.5906700000000 1.0
C      1  0.4117370000000  0.5664590000000  0.5252230000000 1.0
C      1  0.4470540000000  0.5655200000000  0.4246410000000 1.0
C      1  0.5550120000000  0.5645950000000  0.4286750000000 1.0
C      1  0.5862690000000  0.5663590000000  0.5317050000000 1.0
C      1  0.4977700000000  0.4328150000000  0.5900470000000 1.0
C      1  0.4121830000000  0.4333570000000  0.5248390000000 1.0
C      1  0.4467020000000  0.4330830000000  0.4237910000000 1.0
C      1  0.5544100000000  0.4338020000000  0.4280900000000 1.0
C      1  0.5868250000000  0.4327030000000  0.5307390000000 1.0
C      1  0.4828110000000  0.4839510000000  0.4294510000000 1.0
C      1  0.5610840000000  0.4840150000000  0.4635420000000 1.0
C      1  0.5567510000000  0.4848870000000  0.5454910000000 1.0
C      1  0.4737420000000  0.4852530000000  0.5668510000000 1.0
C      1  0.4285840000000  0.4845650000000  0.4940800000000 1.0
C      1  0.4815830000000  0.5142340000000  0.4296060000000 1.0
C      1  0.5613030000000  0.5144480000000  0.4649940000000 1.0
C      1  0.5550910000000  0.5148150000000  0.5468190000000 1.0
C      1  0.4730200000000  0.5155820000000  0.5667550000000 1.0
C      1  0.4281680000000  0.5148380000000  0.4952500000000 1.0
C      1  0.4793740000000  0.4992980000000  0.3877230000000 1.0
C      1  0.4498860000000  0.4999990000000  0.6017500000000 1.0
C      1  0.3871710000000  0.4997570000000  0.4857080000000 1.0
C      1  0.5817290000000  0.4995370000000  0.5792580000000 1.0
C      1  0.6002310000000  0.4993070000000  0.4481250000000 1.0
C      1  0.5010670000000  0.3842020000000  0.5026110000000 1.0
C      1  0.5000150000000  0.6156140000000  0.5013240000000 1.0
C      1  0.5037400000000  0.4135430000000  0.5028380000000 1.0
C      1  0.5026570000000  0.5862950000000  0.5021510000000 1.0
END
