TITL C-862133-5440-1106 0.0167958432866328 125000 -869.445225611201 0 0 144 (Ci) n - 1
REM
REM in /home/nfs/bkarasulu/CARBON/AIRSS/Generating-Clusters/TERSOFF/Higher-Symm/FIRE-HFTN
REM
REM
REM
REM
REM
REM ./C.cell (b20cbc046b6831c77cfcea5457e17084)
REM AIRSS Version 0.9.1 bugfix July 2018 build 013d7b7c2542+ Fri, 06 Jul 2018 19:26:36 +0100
REM compiler GCC version 9.2.1 20190827 (Red Hat 9.2.1-1)
REM options -cpp -mtune=generic -march=x86-64 -g -O0 -fpre-include=/usr/include/finclude/math-vector-fortran.h
REM seed -420991771 -2065109601 168441486 -1145536687 1154864698 -818625460 -786447405 9062615 1290927973 536653020 -1057005116 177510605 -1567327102 776937460 639110244 1055324360 1266480656 937352817 142843594 762756325 -446570242 -2131810205 -1303015889 480314373 -1753831669 -1311302636 -336945951 546631825 89403041 -1357765503 -433652878 -1958434278 2084708418
REM
CELL 1.54180   50.00000   50.00000   50.00000   90.00000   90.00000   90.00000
LATT -1
SFAC C  
C      1  0.5010510000000  0.3843520000000  0.4441060000000 1.0
C      1  0.4993010000000  0.6129160000000  0.4483980000000 1.0
C      1  0.5006990000000  0.3870840000000  0.5516020000000 1.0
C      1  0.4989490000000  0.6156480000000  0.5558940000000 1.0
C      1  0.5646100000000  0.4543390000000  0.5540940000000 1.0
C      1  0.4350350000000  0.5487710000000  0.5568410000000 1.0
C      1  0.5649650000000  0.4512290000000  0.4431590000000 1.0
C      1  0.4353900000000  0.5456610000000  0.4459060000000 1.0
C      1  0.4717140000000  0.4535990000000  0.5802570000000 1.0
C      1  0.5279170000000  0.5489910000000  0.5814580000000 1.0
C      1  0.4720830000000  0.4510090000000  0.4185420000000 1.0
C      1  0.5282860000000  0.5464010000000  0.4197430000000 1.0
C      1  0.5955040000000  0.4980820000000  0.4697100000000 1.0
C      1  0.4043130000000  0.4978550000000  0.4677270000000 1.0
C      1  0.5956870000000  0.5021450000000  0.5322730000000 1.0
C      1  0.4044960000000  0.5019180000000  0.5302900000000 1.0
C      1  0.3819100000000  0.4289380000000  0.4850690000000 1.0
C      1  0.6187840000000  0.5701960000000  0.4851440000000 1.0
C      1  0.3812160000000  0.4298040000000  0.5148560000000 1.0
C      1  0.6180900000000  0.5710620000000  0.5149310000000 1.0
C      1  0.5861560000000  0.4328630000000  0.4589410000000 1.0
C      1  0.4159600000000  0.5616910000000  0.4682450000000 1.0
C      1  0.5840400000000  0.4383090000000  0.5317550000000 1.0
C      1  0.4138440000000  0.5671370000000  0.5410590000000 1.0
C      1  0.4994270000000  0.4356350000000  0.4584900000000 1.0
C      1  0.5008490000000  0.5584570000000  0.4602470000000 1.0
C      1  0.4991510000000  0.4415430000000  0.5397530000000 1.0
C      1  0.5005730000000  0.5643650000000  0.5415100000000 1.0
C      1  0.4698820000000  0.5139850000000  0.4659900000000 1.0
C      1  0.5335900000000  0.4823770000000  0.4686150000000 1.0
C      1  0.4664100000000  0.5176230000000  0.5313850000000 1.0
C      1  0.5301180000000  0.4860150000000  0.5340100000000 1.0
C      1  0.5424140000000  0.5304030000000  0.4605610000000 1.0
C      1  0.4592710000000  0.4664330000000  0.4591000000000 1.0
C      1  0.5407290000000  0.5335670000000  0.5409000000000 1.0
C      1  0.4575860000000  0.4695970000000  0.5394390000000 1.0
C      1  0.4979270000000  0.5421850000000  0.5871450000000 1.0
C      1  0.5018930000000  0.4597510000000  0.5862680000000 1.0
C      1  0.4981070000000  0.5402490000000  0.4137320000000 1.0
C      1  0.5020730000000  0.4578150000000  0.4128550000000 1.0
C      1  0.4836240000000  0.5633920000000  0.5684590000000 1.0
C      1  0.5163480000000  0.4387830000000  0.5660260000000 1.0
C      1  0.4836520000000  0.5612170000000  0.4339740000000 1.0
C      1  0.5163760000000  0.4366080000000  0.4315410000000 1.0
C      1  0.4901650000000  0.5156970000000  0.5152290000000 1.0
C      1  0.5084520000000  0.4890680000000  0.5157960000000 1.0
C      1  0.4915480000000  0.5109320000000  0.4842040000000 1.0
C      1  0.5098350000000  0.4843030000000  0.4847710000000 1.0
C      1  0.4374770000000  0.4612740000000  0.4760690000000 1.0
C      1  0.5652670000000  0.5376980000000  0.4748210000000 1.0
C      1  0.4347330000000  0.4623020000000  0.5251790000000 1.0
C      1  0.5625230000000  0.5387260000000  0.5239310000000 1.0
C      1  0.4497630000000  0.4709260000000  0.4144360000000 1.0
C      1  0.5507430000000  0.5262990000000  0.4155430000000 1.0
C      1  0.4492570000000  0.4737010000000  0.5844570000000 1.0
C      1  0.5502370000000  0.5290740000000  0.5855640000000 1.0
C      1  0.5336200000000  0.3830790000000  0.5124650000000 1.0
C      1  0.4659010000000  0.6184020000000  0.5168770000000 1.0
C      1  0.5340990000000  0.3815980000000  0.4831230000000 1.0
C      1  0.4663800000000  0.6169210000000  0.4875350000000 1.0
C      1  0.4172070000000  0.4816700000000  0.5140310000000 1.0
C      1  0.5804250000000  0.5185120000000  0.5146130000000 1.0
C      1  0.4195750000000  0.4814880000000  0.4853870000000 1.0
C      1  0.5827930000000  0.5183300000000  0.4859690000000 1.0
C      1  0.4645300000000  0.4930730000000  0.4485700000000 1.0
C      1  0.5388160000000  0.5033280000000  0.4507480000000 1.0
C      1  0.4611840000000  0.4966720000000  0.5492520000000 1.0
C      1  0.5354700000000  0.5069270000000  0.5514300000000 1.0
C      1  0.4318300000000  0.5212540000000  0.5707130000000 1.0
C      1  0.5678280000000  0.4817160000000  0.5705590000000 1.0
C      1  0.4321720000000  0.5182840000000  0.4294410000000 1.0
C      1  0.5681700000000  0.4787460000000  0.4292870000000 1.0
C      1  0.4527600000000  0.5676860000000  0.5694500000000 1.0
C      1  0.5473420000000  0.4345730000000  0.5656610000000 1.0
C      1  0.4526580000000  0.5654270000000  0.4343390000000 1.0
C      1  0.5472400000000  0.4323140000000  0.4305500000000 1.0
C      1  0.4131860000000  0.4962970000000  0.4397210000000 1.0
C      1  0.5873090000000  0.4999320000000  0.4410150000000 1.0
C      1  0.4126910000000  0.5000680000000  0.5589850000000 1.0
C      1  0.5868140000000  0.5037030000000  0.5602790000000 1.0
C      1  0.5404690000000  0.4991610000000  0.5807450000000 1.0
C      1  0.4593640000000  0.5035320000000  0.5794350000000 1.0
C      1  0.5406360000000  0.4964680000000  0.4205650000000 1.0
C      1  0.4595310000000  0.5008390000000  0.4192550000000 1.0
C      1  0.4730420000000  0.4442070000000  0.4476480000000 1.0
C      1  0.5270580000000  0.5511040000000  0.4490330000000 1.0
C      1  0.4729420000000  0.4488960000000  0.5509670000000 1.0
C      1  0.5269580000000  0.5557930000000  0.5523520000000 1.0
C      1  0.4486800000000  0.5325900000000  0.4692580000000 1.0
C      1  0.5521930000000  0.4602220000000  0.4688730000000 1.0
C      1  0.4478070000000  0.5397780000000  0.5311270000000 1.0
C      1  0.5513200000000  0.4674100000000  0.5307420000000 1.0
C      1  0.5931340000000  0.5685740000000  0.5308570000000 1.0
C      1  0.4054690000000  0.4328900000000  0.5316890000000 1.0
C      1  0.5945310000000  0.5671100000000  0.4683110000000 1.0
C      1  0.4068660000000  0.4314260000000  0.4691430000000 1.0
C      1  0.4273830000000  0.5401330000000  0.5119530000000 1.0
C      1  0.5710450000000  0.4732180000000  0.5123990000000 1.0
C      1  0.4289550000000  0.5267820000000  0.4876010000000 1.0
C      1  0.5726170000000  0.4598670000000  0.4880470000000 1.0
C      1  0.4513310000000  0.5952760000000  0.4435710000000 1.0
C      1  0.5487650000000  0.4021910000000  0.4384460000000 1.0
C      1  0.4512350000000  0.5978090000000  0.5615540000000 1.0
C      1  0.5486690000000  0.4047240000000  0.5564290000000 1.0
C      1  0.5790840000000  0.5279390000000  0.4313130000000 1.0
C      1  0.4217860000000  0.4687300000000  0.4300520000000 1.0
C      1  0.5782140000000  0.5312700000000  0.5699480000000 1.0
C      1  0.4209160000000  0.4720610000000  0.5686870000000 1.0
C      1  0.4820150000000  0.5977400000000  0.5711060000000 1.0
C      1  0.5181060000000  0.4044840000000  0.5668450000000 1.0
C      1  0.4818940000000  0.5955160000000  0.4331550000000 1.0
C      1  0.5179850000000  0.4022600000000  0.4288940000000 1.0
C      1  0.5099620000000  0.3727990000000  0.4690090000000 1.0
C      1  0.4907550000000  0.6248380000000  0.4732750000000 1.0
C      1  0.5092450000000  0.3751620000000  0.5267250000000 1.0
C      1  0.4900380000000  0.6272010000000  0.5309910000000 1.0
C      1  0.5108630000000  0.4897790000000  0.5889670000000 1.0
C      1  0.4886830000000  0.5122720000000  0.5886350000000 1.0
C      1  0.5113170000000  0.4877280000000  0.4113650000000 1.0
C      1  0.4891370000000  0.5102210000000  0.4110330000000 1.0
C      1  0.4057780000000  0.4459290000000  0.5599890000000 1.0
C      1  0.5920250000000  0.5576520000000  0.5600620000000 1.0
C      1  0.4079750000000  0.4423480000000  0.4399380000000 1.0
C      1  0.5942220000000  0.5540710000000  0.4400110000000 1.0
C      1  0.5755250000000  0.4130220000000  0.4806330000000 1.0
C      1  0.4263930000000  0.5841050000000  0.4868670000000 1.0
C      1  0.5736070000000  0.4158950000000  0.5131330000000 1.0
C      1  0.4244750000000  0.5869780000000  0.5193670000000 1.0
C      1  0.6014010000000  0.4723040000000  0.4834200000000 1.0
C      1  0.3978370000000  0.5237720000000  0.4806840000000 1.0
C      1  0.6021630000000  0.4762280000000  0.5193160000000 1.0
C      1  0.3985990000000  0.5276960000000  0.5165800000000 1.0
C      1  0.4315110000000  0.4343420000000  0.4856280000000 1.0
C      1  0.5691910000000  0.5653870000000  0.4841050000000 1.0
C      1  0.4308090000000  0.4346130000000  0.5158950000000 1.0
C      1  0.5684890000000  0.5656580000000  0.5143720000000 1.0
C      1  0.4965690000000  0.5718580000000  0.4874700000000 1.0
C      1  0.5099040000000  0.4423710000000  0.4864390000000 1.0
C      1  0.4900960000000  0.5576290000000  0.5135610000000 1.0
C      1  0.5034310000000  0.4281420000000  0.5125300000000 1.0
C      1  0.4458960000000  0.6015410000000  0.4724650000000 1.0
C      1  0.5549630000000  0.3956520000000  0.4672070000000 1.0
C      1  0.4450370000000  0.6043480000000  0.5327930000000 1.0
C      1  0.5541040000000  0.3984590000000  0.5275350000000 1.0
END
