TITL C-862133-5440-912 -0.00324481828919515 125000 -540.564375851386 0 0 107 (C2) n - 1
REM
REM in /home/nfs/bkarasulu/CARBON/AIRSS/Generating-Clusters/TERSOFF/Higher-Symm/FIRE-HFTN
REM
REM
REM
REM
REM
REM ./C.cell (b20cbc046b6831c77cfcea5457e17084)
REM AIRSS Version 0.9.1 bugfix July 2018 build 013d7b7c2542+ Fri, 06 Jul 2018 19:26:36 +0100
REM compiler GCC version 9.2.1 20190827 (Red Hat 9.2.1-1)
REM options -cpp -mtune=generic -march=x86-64 -g -O0 -fpre-include=/usr/include/finclude/math-vector-fortran.h
REM seed -387108105 988216707 -1318651363 -1200607470 431912735 -838310603 -1981274666 -853657419 656184062 527186808 -276150277 -1031982250 -979940639 1615836446 -1397049995 962925747 813114169 -356708648 -2018672179 890321373 913754274 -430442209 -904963464 -1121806654 -1441625265 -153292645 -546114976 233424580 -471721806 910463364 -1542300229 -1319870488 -2066819479
REM
CELL 1.54180   50.00000   50.00000   50.00000   90.00000   90.00000   90.00000
LATT -1
SFAC C  
C      1  0.5661890000000  0.5412830000000  0.5181280000000 1.0
C      1  0.4342020000000  0.5412830000000  0.4827840000000 1.0
C      1  0.5660660000000  0.4584860000000  0.5175270000000 1.0
C      1  0.4343250000000  0.4584860000000  0.4833850000000 1.0
C      1  0.5097340000000  0.5984390000000  0.5126220000000 1.0
C      1  0.4906570000000  0.5984390000000  0.4882900000000 1.0
C      1  0.5096660000000  0.4012180000000  0.5126800000000 1.0
C      1  0.4907250000000  0.4012180000000  0.4882330000000 1.0
C      1  0.4604960000000  0.5528220000000  0.5601640000000 1.0
C      1  0.5398940000000  0.5528220000000  0.4407480000000 1.0
C      1  0.4605750000000  0.4475500000000  0.5604780000000 1.0
C      1  0.5398160000000  0.4475500000000  0.4404350000000 1.0
C      1  0.5630340000000  0.4355110000000  0.4981660000000 1.0
C      1  0.4373570000000  0.4355110000000  0.5027460000000 1.0
C      1  0.5634760000000  0.5643240000000  0.4986630000000 1.0
C      1  0.4369150000000  0.5643240000000  0.5022500000000 1.0
C      1  0.5465700000000  0.4841040000000  0.4700280000000 1.0
C      1  0.4538210000000  0.4841040000000  0.5308850000000 1.0
C      1  0.5466500000000  0.5156710000000  0.4699780000000 1.0
C      1  0.4537410000000  0.5156710000000  0.5309340000000 1.0
C      1  0.5135300000000  0.5758920000000  0.4396950000000 1.0
C      1  0.4868610000000  0.5758920000000  0.5612180000000 1.0
C      1  0.5133670000000  0.4245390000000  0.4393490000000 1.0
C      1  0.4870230000000  0.4245390000000  0.5615630000000 1.0
C      1  0.5712990000000  0.5099770000000  0.5598040000000 1.0
C      1  0.4290910000000  0.5099760000000  0.4411080000000 1.0
C      1  0.5739030000000  0.4775820000000  0.5658210000000 1.0
C      1  0.4264870000000  0.4775820000000  0.4350920000000 1.0
C      1  0.5846470000000  0.4761000000000  0.5040570000000 1.0
C      1  0.4157440000000  0.4761000000000  0.4968550000000 1.0
C      1  0.5845080000000  0.5236250000000  0.5042570000000 1.0
C      1  0.4158830000000  0.5236250000000  0.4966560000000 1.0
C      1  0.5374160000000  0.4360490000000  0.5496360000000 1.0
C      1  0.4629740000000  0.4360490000000  0.4512760000000 1.0
C      1  0.5366990000000  0.5625440000000  0.5493100000000 1.0
C      1  0.4636920000000  0.5625440000000  0.4516030000000 1.0
C      1  0.4558620000000  0.4354020000000  0.5266170000000 1.0
C      1  0.5445290000000  0.4354020000000  0.4742950000000 1.0
C      1  0.4555490000000  0.5646540000000  0.5261950000000 1.0
C      1  0.5448420000000  0.5646540000000  0.4747180000000 1.0
C      1  0.5026500000000  0.4721700000000  0.4556790000000 1.0
C      1  0.4977410000000  0.4721700000000  0.5452340000000 1.0
C      1  0.5029450000000  0.5275160000000  0.4557200000000 1.0
C      1  0.4974460000000  0.5275160000000  0.5451920000000 1.0
C      1  0.5174450000000  0.4752900000000  0.4839950000000 1.0
C      1  0.4829460000000  0.4752900000000  0.5169170000000 1.0
C      1  0.5175290000000  0.5244160000000  0.4840280000000 1.0
C      1  0.4828610000000  0.5244160000000  0.5168850000000 1.0
C      1  0.5645290000000  0.4540430000000  0.5481180000000 1.0
C      1  0.4358620000000  0.4540430000000  0.4527950000000 1.0
C      1  0.5642520000000  0.5432120000000  0.5500780000000 1.0
C      1  0.4361390000000  0.5432120000000  0.4508340000000 1.0
C      1  0.4896920000000  0.5644750000000  0.5270660000000 1.0
C      1  0.5106990000000  0.5644750000000  0.4738470000000 1.0
C      1  0.4897460000000  0.4352420000000  0.5271540000000 1.0
C      1  0.5106450000000  0.4352420000000  0.4737590000000 1.0
C      1  0.4618300000000  0.5259490000000  0.4790960000000 1.0
C      1  0.5385600000000  0.5259490000000  0.5218170000000 1.0
C      1  0.4615710000000  0.4739180000000  0.4793310000000 1.0
C      1  0.5388200000000  0.4739180000000  0.5215820000000 1.0
C      1  0.5293630000000  0.4235080000000  0.5202040000000 1.0
C      1  0.4710270000000  0.4235080000000  0.4807080000000 1.0
C      1  0.5293620000000  0.5760700000000  0.5201430000000 1.0
C      1  0.4710290000000  0.5760700000000  0.4807700000000 1.0
C      1  0.5792490000000  0.5159000000000  0.4762520000000 1.0
C      1  0.4211410000000  0.5159000000000  0.5246610000000 1.0
C      1  0.5793550000000  0.4841460000000  0.4761370000000 1.0
C      1  0.4210360000000  0.4841460000000  0.5247750000000 1.0
C      1  0.5959900000000  0.4712800000000  0.4556180000000 1.0
C      1  0.4044010000000  0.4712800000000  0.5452950000000 1.0
C      1  0.5958710000000  0.5290460000000  0.4559000000000 1.0
C      1  0.4045200000000  0.5290460000000  0.5450130000000 1.0
C      1  0.4743800000000  0.5154790000000  0.4531190000000 1.0
C      1  0.5260110000000  0.5154790000000  0.5477930000000 1.0
C      1  0.4743700000000  0.4844510000000  0.4535560000000 1.0
C      1  0.5260210000000  0.4844510000000  0.5473570000000 1.0
C      1  0.4828250000000  0.5473580000000  0.4894730000000 1.0
C      1  0.5175660000000  0.5473580000000  0.5114400000000 1.0
C      1  0.4827940000000  0.4522700000000  0.4895180000000 1.0
C      1  0.5175960000000  0.4522700000000  0.5113950000000 1.0
C      1  0.4898790000000  0.5537370000000  0.4379410000000 1.0
C      1  0.5105120000000  0.5537370000000  0.5629710000000 1.0
C      1  0.4889920000000  0.4459920000000  0.4375400000000 1.0
C      1  0.5113990000000  0.4459920000000  0.5633730000000 1.0
C      1  0.5123240000000  0.4680130000000  0.5891180000000 1.0
C      1  0.4880670000000  0.4680130000000  0.4117950000000 1.0
C      1  0.5117170000000  0.5331430000000  0.5890650000000 1.0
C      1  0.4886740000000  0.5331430000000  0.4118470000000 1.0
C      1  0.4625530000000  0.4086340000000  0.5448590000000 1.0
C      1  0.5378380000000  0.4086340000000  0.4560540000000 1.0
C      1  0.4625440000000  0.5915550000000  0.5441110000000 1.0
C      1  0.5378470000000  0.5915550000000  0.4568020000000 1.0
C      1  0.5145380000000  0.4847540000000  0.4090970000000 1.0
C      1  0.4858530000000  0.4847540000000  0.5918160000000 1.0
C      1  0.5147850000000  0.5157650000000  0.4089890000000 1.0
C      1  0.4856060000000  0.5157650000000  0.5919240000000 1.0
C      1  0.5350310000000  0.5167930000000  0.5792990000000 1.0
C      1  0.4653590000000  0.5167930000000  0.4216140000000 1.0
C      1  0.5345810000000  0.4850570000000  0.5783120000000 1.0
C      1  0.4658100000000  0.4850570000000  0.4226010000000 1.0
C      1  0.4745600000000  0.5262990000000  0.5656690000000 1.0
C      1  0.5258310000000  0.5262990000000  0.4352430000000 1.0
C      1  0.4748780000000  0.4739980000000  0.5656530000000 1.0
C      1  0.5255120000000  0.4739980000000  0.4352600000000 1.0
C      1  0.5414100000000  0.4999850000000  0.5084560000000 1.0
C      1  0.4589810000000  0.4999850000000  0.4924560000000 1.0
C      1  0.5001950000000  0.4998520000000  0.5004560000000 1.0
END
