TITL C-862500-986-334 0.000725763744901518 125000 -631.04968170811 0 0 122 (C1) n - 1
REM
REM in /home/nfs/bkarasulu/CARBON/AIRSS/Generating-Clusters/TERSOFF/Higher-Symm/FIRE-HFTN
REM
REM
REM
REM
REM
REM ./C.cell (b20cbc046b6831c77cfcea5457e17084)
REM AIRSS Version 0.9.1 bugfix July 2018 build 013d7b7c2542+ Fri, 06 Jul 2018 19:26:36 +0100
REM compiler GCC version 9.2.1 20190827 (Red Hat 9.2.1-1)
REM options -cpp -mtune=generic -march=x86-64 -g -O0 -fpre-include=/usr/include/finclude/math-vector-fortran.h
REM seed -646463358 1180523021 1201784655 570352106 -600213883 -452791059 -158995491 1121140032 2024121959 -1943639943 306399661 -1791269510 727226681 -1274060264 -710214312 921635777 -23429249 1415239371 -432038754 336469228 1725770369 -1447019070 1274903118 -143987421 1893842889 178488965 -870683442 1644165276 -1793204598 -34487922 -249025155 1251515870 -1405367009
REM
CELL 1.54180   50.00000   50.00000   50.00000   90.00000   90.00000   90.00000
LATT -1
SFAC C  
C      1  0.6020250000000  0.4752560000000  0.5020280000000 1.0
C      1  0.5663790000000  0.5269500000000  0.4322750000000 1.0
C      1  0.5003380000000  0.4843370000000  0.3987130000000 1.0
C      1  0.4318870000000  0.5214710000000  0.4343390000000 1.0
C      1  0.3992830000000  0.4806090000000  0.4964810000000 1.0
C      1  0.4276100000000  0.5201850000000  0.5642160000000 1.0
C      1  0.4948400000000  0.4763420000000  0.5962780000000 1.0
C      1  0.5705100000000  0.5078870000000  0.5671980000000 1.0
C      1  0.4204500000000  0.4711580000000  0.5147460000000 1.0
C      1  0.4573350000000  0.5189980000000  0.5617680000000 1.0
C      1  0.5137940000000  0.4817110000000  0.5738420000000 1.0
C      1  0.5716110000000  0.5222020000000  0.5409930000000 1.0
C      1  0.5796360000000  0.4783650000000  0.4833970000000 1.0
C      1  0.5358210000000  0.5237390000000  0.4345120000000 1.0
C      1  0.4838050000000  0.4728580000000  0.4200340000000 1.0
C      1  0.4339400000000  0.5222050000000  0.4648170000000 1.0
C      1  0.4046680000000  0.4798750000000  0.4662510000000 1.0
C      1  0.4113390000000  0.5079110000000  0.5449590000000 1.0
C      1  0.4692640000000  0.4876390000000  0.5952090000000 1.0
C      1  0.5486930000000  0.5152770000000  0.5881840000000 1.0
C      1  0.5951400000000  0.4874460000000  0.5262940000000 1.0
C      1  0.5849430000000  0.5132560000000  0.4487600000000 1.0
C      1  0.5309980000000  0.4832060000000  0.4036370000000 1.0
C      1  0.4524580000000  0.5108510000000  0.4184960000000 1.0
C      1  0.4554010000000  0.5792780000000  0.4515970000000 1.0
C      1  0.4261120000000  0.4253640000000  0.4901480000000 1.0
C      1  0.4498980000000  0.5701550000000  0.5445240000000 1.0
C      1  0.4958440000000  0.4304610000000  0.5680370000000 1.0
C      1  0.5483350000000  0.5692000000000  0.5521250000000 1.0
C      1  0.5672870000000  0.4304140000000  0.5081280000000 1.0
C      1  0.5490800000000  0.5733010000000  0.4543960000000 1.0
C      1  0.5075250000000  0.4267150000000  0.4340550000000 1.0
C      1  0.5699670000000  0.4769740000000  0.5388020000000 1.0
C      1  0.5795420000000  0.5134140000000  0.4788190000000 1.0
C      1  0.5378550000000  0.4878000000000  0.4352060000000 1.0
C      1  0.4773780000000  0.5251910000000  0.4194530000000 1.0
C      1  0.4350720000000  0.4861600000000  0.4602310000000 1.0
C      1  0.4111330000000  0.5214570000000  0.5191090000000 1.0
C      1  0.4566480000000  0.4831440000000  0.5669120000000 1.0
C      1  0.5202740000000  0.5154190000000  0.5747570000000 1.0
C      1  0.4641540000000  0.4726090000000  0.4675830000000 1.0
C      1  0.4367760000000  0.5320570000000  0.5080180000000 1.0
C      1  0.4671550000000  0.4684580000000  0.5385760000000 1.0
C      1  0.5138310000000  0.5352030000000  0.5503720000000 1.0
C      1  0.5373100000000  0.4732130000000  0.5299820000000 1.0
C      1  0.5547760000000  0.5307850000000  0.4918830000000 1.0
C      1  0.5326800000000  0.4741060000000  0.4665870000000 1.0
C      1  0.4876770000000  0.5368660000000  0.4476250000000 1.0
C      1  0.4900150000000  0.4075270000000  0.5238210000000 1.0
C      1  0.5133050000000  0.5912810000000  0.5246030000000 1.0
C      1  0.5237860000000  0.4070210000000  0.5143280000000 1.0
C      1  0.5262980000000  0.5917210000000  0.4940880000000 1.0
C      1  0.5077760000000  0.4083870000000  0.4812030000000 1.0
C      1  0.4948000000000  0.5959740000000  0.4797510000000 1.0
C      1  0.4756920000000  0.4117180000000  0.4941510000000 1.0
C      1  0.4825640000000  0.5933610000000  0.5136650000000 1.0
C      1  0.5236540000000  0.5659980000000  0.4741410000000 1.0
C      1  0.4929530000000  0.4362200000000  0.4647290000000 1.0
C      1  0.4711610000000  0.5736080000000  0.4787410000000 1.0
C      1  0.4663890000000  0.4388220000000  0.5088530000000 1.0
C      1  0.4825370000000  0.5633530000000  0.5305440000000 1.0
C      1  0.5018870000000  0.4346450000000  0.5370240000000 1.0
C      1  0.5310650000000  0.5641400000000  0.5252790000000 1.0
C      1  0.5368030000000  0.4317790000000  0.4998790000000 1.0
C      1  0.5242070000000  0.5368730000000  0.4821130000000 1.0
C      1  0.5041230000000  0.4635620000000  0.4760430000000 1.0
C      1  0.4783970000000  0.5457980000000  0.4813820000000 1.0
C      1  0.4749900000000  0.4664940000000  0.4974440000000 1.0
C      1  0.4870540000000  0.5374230000000  0.5135190000000 1.0
C      1  0.4972160000000  0.4620700000000  0.5252190000000 1.0
C      1  0.5204790000000  0.5360380000000  0.5181410000000 1.0
C      1  0.5231130000000  0.4563860000000  0.5033860000000 1.0
C      1  0.5496380000000  0.4457510000000  0.4603140000000 1.0
C      1  0.5021970000000  0.5614240000000  0.4375310000000 1.0
C      1  0.4595300000000  0.4408170000000  0.4515940000000 1.0
C      1  0.4364650000000  0.5591160000000  0.4974070000000 1.0
C      1  0.4485560000000  0.4384870000000  0.5392260000000 1.0
C      1  0.4958140000000  0.5587840000000  0.5638040000000 1.0
C      1  0.5442610000000  0.4477160000000  0.5543240000000 1.0
C      1  0.5722800000000  0.5570270000000  0.5045850000000 1.0
C      1  0.5623840000000  0.4670830000000  0.4378350000000 1.0
C      1  0.4970180000000  0.5161270000000  0.3992920000000 1.0
C      1  0.4386430000000  0.4653260000000  0.4351930000000 1.0
C      1  0.3928150000000  0.5108450000000  0.4993440000000 1.0
C      1  0.4319840000000  0.4627810000000  0.5605660000000 1.0
C      1  0.4967560000000  0.5325860000000  0.5885950000000 1.0
C      1  0.5679040000000  0.4714290000000  0.5692270000000 1.0
C      1  0.5959830000000  0.5317180000000  0.4996470000000 1.0
C      1  0.4917720000000  0.4843950000000  0.4500990000000 1.0
C      1  0.4569460000000  0.5111520000000  0.4909910000000 1.0
C      1  0.4529920000000  0.4870180000000  0.5135470000000 1.0
C      1  0.4755000000000  0.5090630000000  0.5321550000000 1.0
C      1  0.5062290000000  0.4908320000000  0.5394330000000 1.0
C      1  0.5482950000000  0.5149570000000  0.5190290000000 1.0
C      1  0.5463350000000  0.4897370000000  0.4930360000000 1.0
C      1  0.5084700000000  0.5156070000000  0.4575170000000 1.0
C      1  0.5492340000000  0.4202090000000  0.5380020000000 1.0
C      1  0.5602730000000  0.5809170000000  0.4878560000000 1.0
C      1  0.5310740000000  0.4210910000000  0.4563560000000 1.0
C      1  0.4899970000000  0.5883890000000  0.4445250000000 1.0
C      1  0.4509330000000  0.4200360000000  0.4746570000000 1.0
C      1  0.4485410000000  0.5814840000000  0.5140510000000 1.0
C      1  0.4676550000000  0.4152790000000  0.5512320000000 1.0
C      1  0.5165890000000  0.5832730000000  0.5595760000000 1.0
C      1  0.4553740000000  0.4817160000000  0.4169980000000 1.0
C      1  0.4029090000000  0.5126400000000  0.4695890000000 1.0
C      1  0.4133560000000  0.4785280000000  0.5428850000000 1.0
C      1  0.4709650000000  0.5177650000000  0.5907830000000 1.0
C      1  0.5436660000000  0.4830950000000  0.5877470000000 1.0
C      1  0.5971020000000  0.5166670000000  0.5261200000000 1.0
C      1  0.5844840000000  0.4821400000000  0.4512360000000 1.0
C      1  0.5275380000000  0.5155910000000  0.4054210000000 1.0
C      1  0.4814470000000  0.4427740000000  0.4249890000000 1.0
C      1  0.4341410000000  0.5578350000000  0.4670360000000 1.0
C      1  0.4250010000000  0.4411850000000  0.5152320000000 1.0
C      1  0.4633870000000  0.5503120000000  0.5653670000000 1.0
C      1  0.5198250000000  0.4510100000000  0.5712420000000 1.0
C      1  0.5698730000000  0.5529550000000  0.5366840000000 1.0
C      1  0.5709020000000  0.4481620000000  0.4817570000000 1.0
C      1  0.5311930000000  0.5560960000000  0.4341150000000 1.0
C      1  0.4923460000000  0.5064810000000  0.4857110000000 1.0
C      1  0.5129890000000  0.4969130000000  0.5053190000000 1.0
END
