TITL C-862134-6730-1130 0.000585461272324826 125000 -877.699250854591 0 0 157 (D5) n - 1
REM
REM in /home/nfs/bkarasulu/CARBON/AIRSS/Generating-Clusters/TERSOFF/Higher-Symm/FIRE-HFTN
REM
REM
REM
REM
REM
REM ./C.cell (b20cbc046b6831c77cfcea5457e17084)
REM AIRSS Version 0.9.1 bugfix July 2018 build 013d7b7c2542+ Fri, 06 Jul 2018 19:26:36 +0100
REM compiler GCC version 9.2.1 20190827 (Red Hat 9.2.1-1)
REM options -cpp -mtune=generic -march=x86-64 -g -O0 -fpre-include=/usr/include/finclude/math-vector-fortran.h
REM seed 1485822041 -298351431 1588347633 -262530498 -1305182851 -2113487319 1108305573 1256343383 1809368133 -74939814 -1986816001 117463470 606919503 1290000464 498105650 1498081879 -2006669090 391216844 1091107181 -56236007 255127049 -1153302230 -1280249098 -972577027 2104920135 -1398281416 -1529687674 -896020884 336047378 -1846387791 1369956972 -669658004 10858098
REM
CELL 1.54180   50.00000   50.00000   50.00000   90.00000   90.00000   90.00000
LATT -1
SFAC C  
C      1  0.4928990000000  0.4641110000000  0.5594110000000 1.0
C      1  0.4640500000000  0.4956680000000  0.5594110000000 1.0
C      1  0.4851480000000  0.5328560000000  0.5594110000000 1.0
C      1  0.5270350000000  0.5242830000000  0.5594110000000 1.0
C      1  0.5318260000000  0.4817960000000  0.5594110000000 1.0
C      1  0.4928990000000  0.5353750000000  0.4416400000000 1.0
C      1  0.4640500000000  0.5038180000000  0.4416400000000 1.0
C      1  0.4851480000000  0.4666290000000  0.4416400000000 1.0
C      1  0.5270350000000  0.4752030000000  0.4416400000000 1.0
C      1  0.5318260000000  0.5176890000000  0.4416400000000 1.0
C      1  0.4665030000000  0.4232860000000  0.5444480000000 1.0
C      1  0.4170670000000  0.5081560000000  0.5444490000000 1.0
C      1  0.4825060000000  0.5813990000000  0.5444490000000 1.0
C      1  0.5723860000000  0.5417950000000  0.5444490000000 1.0
C      1  0.5624950000000  0.4440760000000  0.5444490000000 1.0
C      1  0.4665030000000  0.5761990000000  0.4566030000000 1.0
C      1  0.4170670000000  0.4913300000000  0.4566030000000 1.0
C      1  0.4825060000000  0.4180870000000  0.4566020000000 1.0
C      1  0.5723860000000  0.4576900000000  0.4566030000000 1.0
C      1  0.5624960000000  0.5554090000000  0.4566030000000 1.0
C      1  0.5229090000000  0.5104540000000  0.6098130000000 1.0
C      1  0.5173990000000  0.4814470000000  0.6098130000000 1.0
C      1  0.4881090000000  0.4777230000000  0.6098130000000 1.0
C      1  0.4755160000000  0.5044290000000  0.6098130000000 1.0
C      1  0.4970240000000  0.5246580000000  0.6098130000000 1.0
C      1  0.5229090000000  0.4890310000000  0.3912380000000 1.0
C      1  0.5173990000000  0.5180390000000  0.3912380000000 1.0
C      1  0.4881090000000  0.5217620000000  0.3912380000000 1.0
C      1  0.4755160000000  0.4950560000000  0.3912380000000 1.0
C      1  0.4970240000000  0.4748270000000  0.3912380000000 1.0
C      1  0.5029460000000  0.4352170000000  0.4666530000000 1.0
C      1  0.4396750000000  0.4771830000000  0.4666530000000 1.0
C      1  0.4600360000000  0.5503260000000  0.4666530000000 1.0
C      1  0.5358900000000  0.5535640000000  0.4666530000000 1.0
C      1  0.5624100000000  0.4824230000000  0.4666530000000 1.0
C      1  0.5029460000000  0.5642680000000  0.5343980000000 1.0
C      1  0.4396750000000  0.5223020000000  0.5343980000000 1.0
C      1  0.4600360000000  0.4491590000000  0.5343980000000 1.0
C      1  0.5358900000000  0.4459210000000  0.5343980000000 1.0
C      1  0.5624100000000  0.5170620000000  0.5343980000000 1.0
C      1  0.4945750000000  0.5474630000000  0.5910870000000 1.0
C      1  0.5438410000000  0.5198300000000  0.5910870000000 1.0
C      1  0.5327840000000  0.4644370000000  0.5910860000000 1.0
C      1  0.4766860000000  0.4578350000000  0.5910860000000 1.0
C      1  0.4530710000000  0.5091480000000  0.5910870000000 1.0
C      1  0.4945750000000  0.4520230000000  0.4099650000000 1.0
C      1  0.5438410000000  0.4796550000000  0.4099650000000 1.0
C      1  0.5327840000000  0.5350480000000  0.4099650000000 1.0
C      1  0.4766860000000  0.5416500000000  0.4099650000000 1.0
C      1  0.4530710000000  0.4903380000000  0.4099650000000 1.0
C      1  0.4523820000000  0.4572100000000  0.4489200000000 1.0
C      1  0.4449670000000  0.5320690000000  0.4489200000000 1.0
C      1  0.5138700000000  0.5622540000000  0.4489200000000 1.0
C      1  0.5638700000000  0.5060510000000  0.4489200000000 1.0
C      1  0.5258690000000  0.4411300000000  0.4489200000000 1.0
C      1  0.4523820000000  0.5422750000000  0.5521310000000 1.0
C      1  0.4449660000000  0.4674170000000  0.5521310000000 1.0
C      1  0.5138700000000  0.4372310000000  0.5521310000000 1.0
C      1  0.5638700000000  0.4934340000000  0.5521310000000 1.0
C      1  0.5258690000000  0.5583550000000  0.5521310000000 1.0
C      1  0.5071600000000  0.4316940000000  0.4960360000000 1.0
C      1  0.4376260000000  0.4720870000000  0.4960360000000 1.0
C      1  0.4545560000000  0.5507000000000  0.4960360000000 1.0
C      1  0.5345520000000  0.5588910000000  0.4960360000000 1.0
C      1  0.5670630000000  0.4853410000000  0.4960360000000 1.0
C      1  0.5071600000000  0.5677920000000  0.5050160000000 1.0
C      1  0.4376260000000  0.5273980000000  0.5050150000000 1.0
C      1  0.4545560000000  0.4487860000000  0.5050150000000 1.0
C      1  0.5345520000000  0.4405940000000  0.5050150000000 1.0
C      1  0.5670630000000  0.5141440000000  0.5050160000000 1.0
C      1  0.4463710000000  0.5419180000000  0.4081480000000 1.0
C      1  0.5236710000000  0.5639620000000  0.4081480000000 1.0
C      1  0.5685230000000  0.4972580000000  0.4081480000000 1.0
C      1  0.5189440000000  0.4339880000000  0.4081480000000 1.0
C      1  0.4434500000000  0.4615890000000  0.4081480000000 1.0
C      1  0.4463710000000  0.4575680000000  0.5929030000000 1.0
C      1  0.5236700000000  0.4355230000000  0.5929030000000 1.0
C      1  0.5685230000000  0.5022270000000  0.5929030000000 1.0
C      1  0.5189440000000  0.5654970000000  0.5929040000000 1.0
C      1  0.4434500000000  0.5378960000000  0.5929030000000 1.0
C      1  0.6076910000000  0.5267170000000  0.5614760000000 1.0
C      1  0.5590650000000  0.4058390000000  0.5614760000000 1.0
C      1  0.4290770000000  0.4147330000000  0.5614760000000 1.0
C      1  0.3973670000000  0.5411070000000  0.5614760000000 1.0
C      1  0.5077570000000  0.6103170000000  0.5614760000000 1.0
C      1  0.6076910000000  0.4727680000000  0.4395750000000 1.0
C      1  0.5590650000000  0.5936460000000  0.4395750000000 1.0
C      1  0.4290780000000  0.5847530000000  0.4395750000000 1.0
C      1  0.3973670000000  0.4583790000000  0.4395750000000 1.0
C      1  0.5077560000000  0.3891690000000  0.4395750000000 1.0
C      1  0.5220380000000  0.5149140000000  0.4754130000000 1.0
C      1  0.5213710000000  0.4836540000000  0.4754130000000 1.0
C      1  0.4914350000000  0.4746280000000  0.4754120000000 1.0
C      1  0.4736000000000  0.5003100000000  0.4754130000000 1.0
C      1  0.4925130000000  0.5252080000000  0.4754130000000 1.0
C      1  0.5220380000000  0.4845710000000  0.5256390000000 1.0
C      1  0.5213710000000  0.5158310000000  0.5256390000000 1.0
C      1  0.4914350000000  0.5248580000000  0.5256390000000 1.0
C      1  0.4736000000000  0.4991760000000  0.5256390000000 1.0
C      1  0.4925130000000  0.4742770000000  0.5256390000000 1.0
C      1  0.4993070000000  0.4007930000000  0.4915920000000 1.0
C      1  0.4058110000000  0.4700070000000  0.4915930000000 1.0
C      1  0.4427460000000  0.5803150000000  0.4915930000000 1.0
C      1  0.5590680000000  0.5792750000000  0.4915930000000 1.0
C      1  0.5940250000000  0.4683240000000  0.4915930000000 1.0
C      1  0.4993070000000  0.5986920000000  0.5094590000000 1.0
C      1  0.4058110000000  0.5294790000000  0.5094590000000 1.0
C      1  0.4427460000000  0.4191710000000  0.5094580000000 1.0
C      1  0.5590680000000  0.4202100000000  0.5094580000000 1.0
C      1  0.5940250000000  0.5311610000000  0.5094590000000 1.0
C      1  0.5744150000000  0.4173510000000  0.5376320000000 1.0
C      1  0.4447680000000  0.4036910000000  0.5376320000000 1.0
C      1  0.3917140000000  0.5227710000000  0.5376320000000 1.0
C      1  0.4885720000000  0.6100270000000  0.5376320000000 1.0
C      1  0.6014870000000  0.5448730000000  0.5376320000000 1.0
C      1  0.5744160000000  0.5821340000000  0.4634200000000 1.0
C      1  0.4447690000000  0.5957950000000  0.4634200000000 1.0
C      1  0.3917140000000  0.4767140000000  0.4634190000000 1.0
C      1  0.4885720000000  0.3894580000000  0.4634190000000 1.0
C      1  0.6014870000000  0.4546120000000  0.4634190000000 1.0
C      1  0.4894110000000  0.5811560000000  0.4400640000000 1.0
C      1  0.5742880000000  0.5351530000000  0.4400640000000 1.0
C      1  0.5567660000000  0.4402150000000  0.4400640000000 1.0
C      1  0.4610600000000  0.4275420000000  0.4400640000000 1.0
C      1  0.4194320000000  0.5146480000000  0.4400640000000 1.0
C      1  0.4894110000000  0.4183300000000  0.5609870000000 1.0
C      1  0.5742880000000  0.4643320000000  0.5609870000000 1.0
C      1  0.5567660000000  0.5592700000000  0.5609870000000 1.0
C      1  0.4610600000000  0.5719430000000  0.5609870000000 1.0
C      1  0.4194320000000  0.4848370000000  0.5609870000000 1.0
C      1  0.4928570000000  0.5680380000000  0.4116040000000 1.0
C      1  0.5628780000000  0.5278230000000  0.4116040000000 1.0
C      1  0.5462680000000  0.4488020000000  0.4116040000000 1.0
C      1  0.4659820000000  0.4401800000000  0.4116040000000 1.0
C      1  0.4329730000000  0.5138720000000  0.4116040000000 1.0
C      1  0.4928570000000  0.4314470000000  0.5894470000000 1.0
C      1  0.5628770000000  0.4716620000000  0.5894470000000 1.0
C      1  0.5462680000000  0.5506830000000  0.5894470000000 1.0
C      1  0.4659820000000  0.5593050000000  0.5894470000000 1.0
C      1  0.4329720000000  0.4856140000000  0.5894470000000 1.0
C      1  0.4308610000000  0.5564360000000  0.4307990000000 1.0
C      1  0.5326850000000  0.5831990000000  0.4307990000000 1.0
C      1  0.5896040000000  0.4946290000000  0.4307990000000 1.0
C      1  0.5229580000000  0.4131260000000  0.4307990000000 1.0
C      1  0.4248490000000  0.4513250000000  0.4307990000000 1.0
C      1  0.4308610000000  0.4430500000000  0.5702520000000 1.0
C      1  0.5326850000000  0.4162860000000  0.5702520000000 1.0
C      1  0.5896040000000  0.5048560000000  0.5702520000000 1.0
C      1  0.5229580000000  0.5863590000000  0.5702520000000 1.0
C      1  0.4248490000000  0.5481610000000  0.5702520000000 1.0
C      1  0.4857490000000  0.4552930000000  0.5005250000000 1.0
C      1  0.4534550000000  0.4997430000000  0.5005260000000 1.0
C      1  0.5380020000000  0.4722710000000  0.5005260000000 1.0
C      1  0.4857490000000  0.5441920000000  0.5005260000000 1.0
C      1  0.5380020000000  0.5272140000000  0.5005260000000 1.0
C      1  0.5001910000000  0.4997420000000  0.5629470000000 1.0
C      1  0.5001920000000  0.4997430000000  0.4381040000000 1.0
END
