TITL C-862130-1496-1289 0.00348648540395486 125000 -449.10818748543 0 0 82 (C1) n - 1
REM
REM in /home/nfs/bkarasulu/CARBON/AIRSS/Generating-Clusters/TERSOFF/Higher-Symm/FIRE-HFTN
REM
REM
REM
REM
REM
REM ./C.cell (b20cbc046b6831c77cfcea5457e17084)
REM AIRSS Version 0.9.1 bugfix July 2018 build 013d7b7c2542+ Fri, 06 Jul 2018 19:26:36 +0100
REM compiler GCC version 9.2.1 20190827 (Red Hat 9.2.1-1)
REM options -cpp -mtune=generic -march=x86-64 -g -O0 -fpre-include=/usr/include/finclude/math-vector-fortran.h
REM seed 1816652557 -1188113044 -912694857 -1404111012 1502322185 -1654320908 1510957375 -1798275890 -545275067 -45164776 1925016637 -836464516 -1200787415 945015270 -638632815 877897003 1485708931 -1046638383 -417904441 -1937046149 617150762 857371313 1562781681 694854270 -1317153040 -438603833 -53902592 -1670706839 -97359398 -1396381360 -690047027 -1412514724 -519016071
REM
CELL 1.54180   50.00000   50.00000   50.00000   90.00000   90.00000   90.00000
LATT -1
SFAC C  
C      1  0.5625890000000  0.4922430000000  0.5816760000000 1.0
C      1  0.5649530000000  0.4343590000000  0.4548150000000 1.0
C      1  0.5642560000000  0.5731940000000  0.4665160000000 1.0
C      1  0.5610140000000  0.4912970000000  0.4171200000000 1.0
C      1  0.5594000000000  0.4316390000000  0.5507350000000 1.0
C      1  0.5624410000000  0.5754820000000  0.5343850000000 1.0
C      1  0.4702950000000  0.5853510000000  0.4888320000000 1.0
C      1  0.4720630000000  0.4678170000000  0.5789770000000 1.0
C      1  0.4711230000000  0.4485790000000  0.4321340000000 1.0
C      1  0.4700460000000  0.5849310000000  0.5205740000000 1.0
C      1  0.4704200000000  0.4761620000000  0.4165110000000 1.0
C      1  0.4718090000000  0.4405990000000  0.5629520000000 1.0
C      1  0.5701060000000  0.5533610000000  0.5163190000000 1.0
C      1  0.5708050000000  0.4575730000000  0.5415620000000 1.0
C      1  0.5726060000000  0.4860910000000  0.4445540000000 1.0
C      1  0.5705990000000  0.5520490000000  0.4857810000000 1.0
C      1  0.5710330000000  0.4618180000000  0.4626700000000 1.0
C      1  0.5709030000000  0.4850620000000  0.5546080000000 1.0
C      1  0.4788680000000  0.5624440000000  0.5385860000000 1.0
C      1  0.4799340000000  0.4365950000000  0.5343140000000 1.0
C      1  0.4788230000000  0.5031050000000  0.4269760000000 1.0
C      1  0.4799860000000  0.5654230000000  0.4669950000000 1.0
C      1  0.4809990000000  0.4399150000000  0.4603410000000 1.0
C      1  0.4815290000000  0.4965880000000  0.5721320000000 1.0
C      1  0.4810910000000  0.5269700000000  0.4837100000000 1.0
C      1  0.4816050000000  0.5015970000000  0.5304920000000 1.0
C      1  0.4815220000000  0.4736990000000  0.4851880000000 1.0
C      1  0.4795550000000  0.5283200000000  0.5141990000000 1.0
C      1  0.4796590000000  0.4993790000000  0.4687540000000 1.0
C      1  0.4799280000000  0.4745680000000  0.5164800000000 1.0
C      1  0.5217580000000  0.5492260000000  0.5542830000000 1.0
C      1  0.5212750000000  0.4297260000000  0.5149370000000 1.0
C      1  0.5218600000000  0.5233840000000  0.4311690000000 1.0
C      1  0.5225950000000  0.5491500000000  0.4462130000000 1.0
C      1  0.5227910000000  0.4299730000000  0.4851900000000 1.0
C      1  0.5227860000000  0.5230610000000  0.5684810000000 1.0
C      1  0.4357370000000  0.5671450000000  0.5042310000000 1.0
C      1  0.4372730000000  0.4633700000000  0.5558900000000 1.0
C      1  0.4362800000000  0.4705560000000  0.4402560000000 1.0
C      1  0.4389590000000  0.5611520000000  0.4748770000000 1.0
C      1  0.4398290000000  0.4481960000000  0.4601140000000 1.0
C      1  0.4403650000000  0.4917490000000  0.5653730000000 1.0
C      1  0.4615370000000  0.5491370000000  0.5610410000000 1.0
C      1  0.4623600000000  0.4233270000000  0.5119150000000 1.0
C      1  0.4610520000000  0.5290190000000  0.4271560000000 1.0
C      1  0.4641490000000  0.5579150000000  0.4414020000000 1.0
C      1  0.4654890000000  0.4212450000000  0.4797360000000 1.0
C      1  0.4657300000000  0.5225030000000  0.5788310000000 1.0
C      1  0.5544210000000  0.5286460000000  0.4790250000000 1.0
C      1  0.5591660000000  0.5033440000000  0.5346340000000 1.0
C      1  0.5554580000000  0.4690860000000  0.4859770000000 1.0
C      1  0.5523440000000  0.5319110000000  0.5267610000000 1.0
C      1  0.5553040000000  0.5088070000000  0.4556820000000 1.0
C      1  0.5559450000000  0.4586470000000  0.5149510000000 1.0
C      1  0.5031740000000  0.5026660000000  0.4450140000000 1.0
C      1  0.5033340000000  0.5472510000000  0.5291650000000 1.0
C      1  0.5037420000000  0.4531630000000  0.5254040000000 1.0
C      1  0.5062620000000  0.5013440000000  0.5540590000000 1.0
C      1  0.5049280000000  0.5480530000000  0.4716980000000 1.0
C      1  0.5058560000000  0.4530450000000  0.4730900000000 1.0
C      1  0.4508960000000  0.5101070000000  0.5415660000000 1.0
C      1  0.4509240000000  0.4598190000000  0.4876180000000 1.0
C      1  0.4502440000000  0.5316030000000  0.4710110000000 1.0
C      1  0.4468030000000  0.5000430000000  0.4539730000000 1.0
C      1  0.4473820000000  0.4608000000000  0.5234640000000 1.0
C      1  0.4467480000000  0.5405460000000  0.5227110000000 1.0
C      1  0.5451850000000  0.4184310000000  0.4696350000000 1.0
C      1  0.5449600000000  0.5685420000000  0.4447910000000 1.0
C      1  0.5444540000000  0.5148160000000  0.5867410000000 1.0
C      1  0.5409270000000  0.4168490000000  0.5330780000000 1.0
C      1  0.5428080000000  0.5701910000000  0.5557500000000 1.0
C      1  0.5428030000000  0.5141230000000  0.4122260000000 1.0
C      1  0.5244210000000  0.5281290000000  0.4865620000000 1.0
C      1  0.5271120000000  0.4984780000000  0.5298370000000 1.0
C      1  0.5256390000000  0.4761110000000  0.4823530000000 1.0
C      1  0.5236590000000  0.5278870000000  0.5155370000000 1.0
C      1  0.5247120000000  0.5012540000000  0.4676860000000 1.0
C      1  0.5256360000000  0.4731390000000  0.5152270000000 1.0
C      1  0.4350750000000  0.4902340000000  0.5237600000000 1.0
C      1  0.4349750000000  0.4850640000000  0.4795810000000 1.0
C      1  0.4347230000000  0.5258240000000  0.4971450000000 1.0
C      1  0.4236970000000  0.5002870000000  0.5002120000000 1.0
END
