TITL C-862507-1800-539 -2.96147714587319e-05 125000 -155.743731721004 0 0 28 (C2) n - 1
REM
REM in /home/nfs/bkarasulu/CARBON/AIRSS/Generating-Clusters/TERSOFF/Higher-Symm/FIRE-HFTN
REM
REM
REM
REM
REM
REM ./C.cell (b20cbc046b6831c77cfcea5457e17084)
REM AIRSS Version 0.9.1 bugfix July 2018 build 013d7b7c2542+ Fri, 06 Jul 2018 19:26:36 +0100
REM compiler GCC version 9.2.1 20190827 (Red Hat 9.2.1-1)
REM options -cpp -mtune=generic -march=x86-64 -g -O0 -fpre-include=/usr/include/finclude/math-vector-fortran.h
REM seed -73015981 -630571808 -1728529870 1318573301 -178655310 -1930289166 1244086833 -1642584984 -191658579 232089130 1922431259 -1516478456 1024458685 -1397547507 -1281818605 -1761289066 -938513458 -1728339681 -482460003 -1007189037 -1366081793 -1461634543 -2001716189 -511401524 1545802176 882787487 -1938300034 1110499767 -391906148 -117653650 -953329690 598142281 63482966
REM
CELL 1.54180   50.00000   50.00000   50.00000   90.00000   90.00000   90.00000
LATT -1
SFAC C  
C      1  0.5255330000000  0.4771120000000  0.4854480000000 1.0
C      1  0.4873140000000  0.4912820000000  0.5266230000000 1.0
C      1  0.4971930000000  0.5437250000000  0.4948960000000 1.0
C      1  0.4710250000000  0.4966040000000  0.5015930000000 1.0
C      1  0.4748420000000  0.5244090000000  0.4854280000000 1.0
C      1  0.5293480000000  0.5049290000000  0.5015930000000 1.0
C      1  0.5148000000000  0.4972090000000  0.4608830000000 1.0
C      1  0.5130570000000  0.5102700000000  0.5266170000000 1.0
C      1  0.4855770000000  0.5042930000000  0.4608780000000 1.0
C      1  0.5040240000000  0.5396890000000  0.5240350000000 1.0
C      1  0.5031810000000  0.4578030000000  0.4949280000000 1.0
C      1  0.4963470000000  0.4618610000000  0.5240640000000 1.0
C      1  0.4524820000000  0.4765870000000  0.4916210000000 1.0
C      1  0.4673770000000  0.4840930000000  0.4501460000000 1.0
C      1  0.4838870000000  0.4463300000000  0.4761730000000 1.0
C      1  0.5492320000000  0.4683350000000  0.5068150000000 1.0
C      1  0.5478920000000  0.5249380000000  0.4916070000000 1.0
C      1  0.4511410000000  0.5332020000000  0.5067860000000 1.0
C      1  0.5351500000000  0.4984730000000  0.5441680000000 1.0
C      1  0.5330010000000  0.5174020000000  0.4501370000000 1.0
C      1  0.4652190000000  0.5030920000000  0.5441630000000 1.0
C      1  0.5187750000000  0.4543470000000  0.5415590000000 1.0
C      1  0.5164880000000  0.5551840000000  0.4761330000000 1.0
C      1  0.4815940000000  0.5472170000000  0.5415220000000 1.0
C      1  0.5431280000000  0.4705290000000  0.5365660000000 1.0
C      1  0.4572420000000  0.5310300000000  0.5365390000000 1.0
C      1  0.5402300000000  0.5399910000000  0.4676410000000 1.0
C      1  0.4601460000000  0.4615160000000  0.4676670000000 1.0
END
