TITL C-862132-7359-363 -1.14896137019444e-05 125000 -165.96847931756 0 0 28 (D4) n - 1
REM
REM in /home/nfs/bkarasulu/CARBON/AIRSS/Generating-Clusters/TERSOFF/Higher-Symm/FIRE-HFTN
REM
REM
REM
REM
REM
REM ./C.cell (b20cbc046b6831c77cfcea5457e17084)
REM AIRSS Version 0.9.1 bugfix July 2018 build 013d7b7c2542+ Fri, 06 Jul 2018 19:26:36 +0100
REM compiler GCC version 9.2.1 20190827 (Red Hat 9.2.1-1)
REM options -cpp -mtune=generic -march=x86-64 -g -O0 -fpre-include=/usr/include/finclude/math-vector-fortran.h
REM seed -1381382329 2055317433 -102527527 1996145287 856005077 -1761828768 -1622900824 -1964071116 -500957011 -1286948212 -1331238608 -387502531 1034152316 2146034210 2066576513 109201788 -122789703 -515581066 -226223547 731725638 -537192484 653672555 -1418598501 -942873767 784454214 1672950800 1196529701 552499615 1284900093 -1756870205 -446207035 -1234266712 68565091
REM
CELL 1.54180   50.00000   50.00000   50.00000   90.00000   90.00000   90.00000
LATT -1
SFAC C  
C      1  0.5364800000000  0.4717560000000  0.5401490000000 1.0
C      1  0.4717560000000  0.4635200000000  0.5401490000000 1.0
C      1  0.4635200000000  0.5282440000000  0.5401490000000 1.0
C      1  0.5282440000000  0.5364800000000  0.5401490000000 1.0
C      1  0.5364800000000  0.5282440000000  0.4641230000000 1.0
C      1  0.4717560000000  0.5364800000000  0.4641230000000 1.0
C      1  0.4635200000000  0.4717560000000  0.4641230000000 1.0
C      1  0.5282440000000  0.4635200000000  0.4641230000000 1.0
C      1  0.5395270000000  0.4762170000000  0.5115670000000 1.0
C      1  0.4762170000000  0.4604730000000  0.5115670000000 1.0
C      1  0.4604730000000  0.5237830000000  0.5115670000000 1.0
C      1  0.5237830000000  0.5395270000000  0.5115670000000 1.0
C      1  0.5395270000000  0.5237830000000  0.4927040000000 1.0
C      1  0.4762170000000  0.5395270000000  0.4927040000000 1.0
C      1  0.4604730000000  0.4762170000000  0.4927040000000 1.0
C      1  0.5237830000000  0.4604730000000  0.4927040000000 1.0
C      1  0.4861240000000  0.5179210000000  0.4469940000000 1.0
C      1  0.5179210000000  0.5138760000000  0.4469940000000 1.0
C      1  0.5138760000000  0.4820790000000  0.4469940000000 1.0
C      1  0.4820790000000  0.4861240000000  0.4469940000000 1.0
C      1  0.4861240000000  0.4820790000000  0.5572770000000 1.0
C      1  0.5179210000000  0.4861240000000  0.5572770000000 1.0
C      1  0.5138760000000  0.5179210000000  0.5572770000000 1.0
C      1  0.4820790000000  0.5138760000000  0.5572770000000 1.0
C      1  0.4469590000000  0.5000000000000  0.5021360000000 1.0
C      1  0.5000000000000  0.5530410000000  0.5021360000000 1.0
C      1  0.5530410000000  0.5000000000000  0.5021360000000 1.0
C      1  0.5000000000000  0.4469590000000  0.5021360000000 1.0
END
