TITL C-862133-5440-734 0.273681478738433 125000 -1025.1918117691 0 0 181 (C3) n - 1
REM
REM in /home/nfs/bkarasulu/CARBON/AIRSS/Generating-Clusters/TERSOFF/Higher-Symm/FIRE-HFTN
REM
REM
REM
REM
REM
REM ./C.cell (b20cbc046b6831c77cfcea5457e17084)
REM AIRSS Version 0.9.1 bugfix July 2018 build 013d7b7c2542+ Fri, 06 Jul 2018 19:26:36 +0100
REM compiler GCC version 9.2.1 20190827 (Red Hat 9.2.1-1)
REM options -cpp -mtune=generic -march=x86-64 -g -O0 -fpre-include=/usr/include/finclude/math-vector-fortran.h
REM seed -1740506788 620161341 -856181696 983820423 -809102219 2039595361 1724008737 -1688092858 299084469 218323834 73502516 -293472593 1285105146 -2051747780 1784836018 1409360579 -1466679658 293943169 -507391187 1487576416 -1017657498 -727909275 599796435 -1535951520 380831614 469279446 -1957327528 900833818 2077349108 2128996442 -803200180 -504439175 1891836817
REM
CELL 1.54180   50.00000   50.00000   50.00000   90.00000   90.00000   90.00000
LATT -1
SFAC C  
C      1  0.5041410000000  0.3765230000000  0.4880620000000 1.0
C      1  0.5041410000000  0.5718980000000  0.3986030000000 1.0
C      1  0.5041420000000  0.5516840000000  0.6125320000000 1.0
C      1  0.4190400000000  0.4405830000000  0.5385840000000 1.0
C      1  0.4190390000000  0.4961150000000  0.4288190000000 1.0
C      1  0.4190400000000  0.5634080000000  0.5317930000000 1.0
C      1  0.4006420000000  0.4934200000000  0.5298580000000 1.0
C      1  0.4006420000000  0.4772530000000  0.4789410000000 1.0
C      1  0.4006420000000  0.5294320000000  0.4903980000000 1.0
C      1  0.5594400000000  0.4683450000000  0.4113760000000 1.0
C      1  0.5594410000000  0.5923980000000  0.5164650000000 1.0
C      1  0.5594410000000  0.4393620000000  0.5713540000000 1.0
C      1  0.4251160000000  0.4648700000000  0.4301310000000 1.0
C      1  0.4251160000000  0.5778940000000  0.5040790000000 1.0
C      1  0.4251160000000  0.4573410000000  0.5649860000000 1.0
C      1  0.4942220000000  0.4288860000000  0.5286400000000 1.0
C      1  0.4942220000000  0.5105740000000  0.4236610000000 1.0
C      1  0.4942230000000  0.5606450000000  0.5468950000000 1.0
C      1  0.4551400000000  0.4968090000000  0.4074350000000 1.0
C      1  0.4551410000000  0.5815800000000  0.5430870000000 1.0
C      1  0.4551410000000  0.4217160000000  0.5486750000000 1.0
C      1  0.5367480000000  0.3980840000000  0.5591130000000 1.0
C      1  0.5367470000000  0.4995850000000  0.3817500000000 1.0
C      1  0.5367480000000  0.6024350000000  0.5583330000000 1.0
C      1  0.5742840000000  0.5484060000000  0.4183420000000 1.0
C      1  0.5742840000000  0.5463350000000  0.5823170000000 1.0
C      1  0.5742840000000  0.4053640000000  0.4985360000000 1.0
C      1  0.4908530000000  0.5211260000000  0.3930930000000 1.0
C      1  0.4908540000000  0.5818420000000  0.5713170000000 1.0
C      1  0.4908530000000  0.3971370000000  0.5347870000000 1.0
C      1  0.4415930000000  0.4848240000000  0.4736700000000 1.0
C      1  0.4415930000000  0.5302110000000  0.4995900000000 1.0
C      1  0.4415930000000  0.4850700000000  0.5259360000000 1.0
C      1  0.4701540000000  0.6022660000000  0.4798810000000 1.0
C      1  0.4701540000000  0.4661110000000  0.5981930000000 1.0
C      1  0.4701530000000  0.4317270000000  0.4211230000000 1.0
C      1  0.5586770000000  0.5573070000000  0.5571880000000 1.0
C      1  0.5586760000000  0.4216400000000  0.5206030000000 1.0
C      1  0.5586760000000  0.5211570000000  0.4214040000000 1.0
C      1  0.5673830000000  0.5517670000000  0.4596330000000 1.0
C      1  0.5673840000000  0.5088950000000  0.5645820000000 1.0
C      1  0.5673830000000  0.4394420000000  0.4749800000000 1.0
C      1  0.4457240000000  0.5561280000000  0.5751370000000 1.0
C      1  0.4457230000000  0.4066850000000  0.5106080000000 1.0
C      1  0.4457230000000  0.5372910000000  0.4134510000000 1.0
C      1  0.4516640000000  0.5244380000000  0.5799500000000 1.0
C      1  0.4516640000000  0.4183630000000  0.4807570000000 1.0
C      1  0.4516640000000  0.5573040000000  0.4384890000000 1.0
C      1  0.4963720000000  0.4659710000000  0.5868980000000 1.0
C      1  0.4963710000000  0.4415790000000  0.4266480000000 1.0
C      1  0.4963710000000  0.5925550000000  0.4856490000000 1.0
C      1  0.4265690000000  0.5058160000000  0.4553020000000 1.0
C      1  0.4265700000000  0.5356220000000  0.5269540000000 1.0
C      1  0.4265690000000  0.4586670000000  0.5169400000000 1.0
C      1  0.5891000000000  0.4517100000000  0.4504010000000 1.0
C      1  0.5891010000000  0.5669180000000  0.4825470000000 1.0
C      1  0.5891010000000  0.4814750000000  0.5662470000000 1.0
C      1  0.4022820000000  0.5208880000000  0.5200600000000 1.0
C      1  0.4022820000000  0.4720050000000  0.5076280000000 1.0
C      1  0.4022820000000  0.5072130000000  0.4715100000000 1.0
C      1  0.6035530000000  0.4584360000000  0.5483130000000 1.0
C      1  0.6035520000000  0.4787610000000  0.4394150000000 1.0
C      1  0.6035530000000  0.5629060000000  0.5114660000000 1.0
C      1  0.5416980000000  0.5522900000000  0.4928450000000 1.0
C      1  0.5416980000000  0.4798710000000  0.5484290000000 1.0
C      1  0.5416980000000  0.4679430000000  0.4579210000000 1.0
C      1  0.5118060000000  0.5442020000000  0.4056650000000 1.0
C      1  0.5118070000000  0.5594150000000  0.5850160000000 1.0
C      1  0.5118060000000  0.3964860000000  0.5085150000000 1.0
C      1  0.4786500000000  0.6009350000000  0.4294710000000 1.0
C      1  0.4786500000000  0.5104330000000  0.6222450000000 1.0
C      1  0.4786490000000  0.3887370000000  0.4474800000000 1.0
C      1  0.4796500000000  0.4045710000000  0.5850580000000 1.0
C      1  0.4796490000000  0.4738720000000  0.3743940000000 1.0
C      1  0.4796510000000  0.6216620000000  0.5397430000000 1.0
C      1  0.4742410000000  0.3733280000000  0.4935980000000 1.0
C      1  0.4742410000000  0.5687010000000  0.3930670000000 1.0
C      1  0.4742420000000  0.5580760000000  0.6125310000000 1.0
C      1  0.5202970000000  0.6087800000000  0.4859270000000 1.0
C      1  0.5202970000000  0.4576170000000  0.6008100000000 1.0
C      1  0.5202960000000  0.4337070000000  0.4124580000000 1.0
C      1  0.5106420000000  0.5725680000000  0.5269030000000 1.0
C      1  0.5106420000000  0.4402370000000  0.5489620000000 1.0
C      1  0.5106410000000  0.4872990000000  0.4233300000000 1.0
C      1  0.4889760000000  0.4639420000000  0.4657540000000 1.0
C      1  0.4889760000000  0.5475070000000  0.4854640000000 1.0
C      1  0.4889770000000  0.4886560000000  0.5479780000000 1.0
C      1  0.4568510000000  0.5199990000000  0.4568640000000 1.0
C      1  0.4568510000000  0.5271780000000  0.5384560000000 1.0
C      1  0.4568510000000  0.4529280000000  0.5038770000000 1.0
C      1  0.5332940000000  0.4009920000000  0.4517160000000 1.0
C      1  0.5332950000000  0.5911390000000  0.4379660000000 1.0
C      1  0.5332950000000  0.5079730000000  0.6095130000000 1.0
C      1  0.5086560000000  0.5923740000000  0.4204480000000 1.0
C      1  0.5086560000000  0.5225270000000  0.6193420000000 1.0
C      1  0.5086550000000  0.3852030000000  0.4594060000000 1.0
C      1  0.4615660000000  0.3892940000000  0.4713850000000 1.0
C      1  0.4615660000000  0.5799540000000  0.4180010000000 1.0
C      1  0.4615670000000  0.5308560000000  0.6098100000000 1.0
C      1  0.6092550000000  0.5496620000000  0.4616730000000 1.0
C      1  0.6092560000000  0.5081810000000  0.5617390000000 1.0
C      1  0.6092550000000  0.4422610000000  0.4757820000000 1.0
C      1  0.4570360000000  0.4723440000000  0.3930890000000 1.0
C      1  0.4570370000000  0.6062360000000  0.5290720000000 1.0
C      1  0.4570370000000  0.4215250000000  0.5770350000000 1.0
C      1  0.3996760000000  0.5272700000000  0.3919360000000 1.0
C      1  0.3996770000000  0.5797720000000  0.5772170000000 1.0
C      1  0.3996770000000  0.3930630000000  0.5300440000000 1.0
C      1  0.5624060000000  0.5717730000000  0.4965800000000 1.0
C      1  0.5624060000000  0.4668950000000  0.5634350000000 1.0
C      1  0.5624050000000  0.4614360000000  0.4391800000000 1.0
C      1  0.5590810000000  0.4985980000000  0.4022800000000 1.0
C      1  0.5590820000000  0.5851490000000  0.5472130000000 1.0
C      1  0.5590810000000  0.4163570000000  0.5497020000000 1.0
C      1  0.5798630000000  0.4840480000000  0.4897950000000 1.0
C      1  0.5798630000000  0.5166330000000  0.4908550000000 1.0
C      1  0.5798630000000  0.4994220000000  0.5185440000000 1.0
C      1  0.5213950000000  0.5999050000000  0.5325720000000 1.0
C      1  0.5213950000000  0.4216600000000  0.5698020000000 1.0
C      1  0.5213940000000  0.4785400000000  0.3968220000000 1.0
C      1  0.4941990000000  0.4994870000000  0.3726440000000 1.0
C      1  0.4942000000000  0.6103700000000  0.5628010000000 1.0
C      1  0.4942000000000  0.3902480000000  0.5637500000000 1.0
C      1  0.6018000000000  0.5387090000000  0.4332160000000 1.0
C      1  0.6018010000000  0.5383010000000  0.5664820000000 1.0
C      1  0.6018000000000  0.4230940000000  0.4994960000000 1.0
C      1  0.5684310000000  0.5200430000000  0.4504910000000 1.0
C      1  0.5684310000000  0.5326740000000  0.5416800000000 1.0
C      1  0.5684310000000  0.4473870000000  0.5070240000000 1.0
C      1  0.4662390000000  0.3866380000000  0.5193310000000 1.0
C      1  0.4662380000000  0.5397600000000  0.3917290000000 1.0
C      1  0.4662390000000  0.5737060000000  0.5881370000000 1.0
C      1  0.4647380000000  0.4788020000000  0.4548560000000 1.0
C      1  0.4647390000000  0.5495150000000  0.5037820000000 1.0
C      1  0.4647390000000  0.4717870000000  0.5405580000000 1.0
C      1  0.4165200000000  0.4550610000000  0.4580500000000 1.0
C      1  0.4165210000000  0.5586190000000  0.4816250000000 1.0
C      1  0.4165210000000  0.4864240000000  0.5595220000000 1.0
C      1  0.6059370000000  0.5003430000000  0.5327260000000 1.0
C      1  0.6059370000000  0.4713060000000  0.4835010000000 1.0
C      1  0.6059370000000  0.5284540000000  0.4829670000000 1.0
C      1  0.4207430000000  0.4126790000000  0.5264960000000 1.0
C      1  0.4207430000000  0.5205350000000  0.4106980000000 1.0
C      1  0.4207440000000  0.5668910000000  0.5620030000000 1.0
C      1  0.5363460000000  0.6116950000000  0.5097260000000 1.0
C      1  0.5363450000000  0.4355500000000  0.5914350000000 1.0
C      1  0.5363450000000  0.4528600000000  0.3980340000000 1.0
C      1  0.5572760000000  0.5198360000000  0.5923910000000 1.0
C      1  0.5572750000000  0.4098890000000  0.4705510000000 1.0
C      1  0.5572750000000  0.5703790000000  0.4362540000000 1.0
C      1  0.4840060000000  0.4341820000000  0.4779790000000 1.0
C      1  0.4840060000000  0.5518000000000  0.4535780000000 1.0
C      1  0.4840070000000  0.5141230000000  0.5676390000000 1.0
C      1  0.5042080000000  0.4266430000000  0.4994850000000 1.0
C      1  0.5042080000000  0.5369440000000  0.4362960000000 1.0
C      1  0.5042080000000  0.5365170000000  0.5634150000000 1.0
C      1  0.5969390000000  0.5070580000000  0.4479720000000 1.0
C      1  0.5969390000000  0.5413480000000  0.5316940000000 1.0
C      1  0.5969390000000  0.4516980000000  0.5195280000000 1.0
C      1  0.4480810000000  0.6012540000000  0.5009030000000 1.0
C      1  0.4480810000000  0.4484110000000  0.5868050000000 1.0
C      1  0.4480800000000  0.4504390000000  0.4114880000000 1.0
C      1  0.5507920000000  0.5257870000000  0.4881550000000 1.0
C      1  0.5507920000000  0.4971840000000  0.5278220000000 1.0
C      1  0.5507910000000  0.4771330000000  0.4832180000000 1.0
C      1  0.4785670000000  0.5058500000000  0.5202750000000 1.0
C      1  0.4785670000000  0.4793370000000  0.4944970000000 1.0
C      1  0.4785670000000  0.5149180000000  0.4844250000000 1.0
C      1  0.4681570000000  0.5566960000000  0.5346630000000 1.0
C      1  0.4681570000000  0.4414530000000  0.5313370000000 1.0
C      1  0.4681570000000  0.5019550000000  0.4331970000000 1.0
C      1  0.5144330000000  0.4722910000000  0.4488500000000 1.0
C      1  0.5144330000000  0.5579710000000  0.5011460000000 1.0
C      1  0.5144330000000  0.4698420000000  0.5491990000000 1.0
C      1  0.4252830000000  0.5081450000000  0.5782610000000 1.0
C      1  0.4252830000000  0.4279720000000  0.4674920000000 1.0
C      1  0.4252830000000  0.5639880000000  0.4534440000000 1.0
C      1  0.4681480000000  0.6140350000000  0.4536340000000 1.0
C      1  0.4681480000000  0.4829570000000  0.6215080000000 1.0
C      1  0.4681470000000  0.4031130000000  0.4240550000000 1.0
C      1  0.4424580000000  0.5000350000000  0.4997320000000 1.0
END
