TITL C-862506-1665-222 0.0419109532633385 125000 -743.175410358966 0 0 128 (C1) n - 1
REM
REM in /home/nfs/bkarasulu/CARBON/AIRSS/Generating-Clusters/TERSOFF/Higher-Symm/FIRE-HFTN
REM
REM
REM
REM
REM
REM ./C.cell (b20cbc046b6831c77cfcea5457e17084)
REM AIRSS Version 0.9.1 bugfix July 2018 build 013d7b7c2542+ Fri, 06 Jul 2018 19:26:36 +0100
REM compiler GCC version 9.2.1 20190827 (Red Hat 9.2.1-1)
REM options -cpp -mtune=generic -march=x86-64 -g -O0 -fpre-include=/usr/include/finclude/math-vector-fortran.h
REM seed -1947974157 -824871037 400280019 1824539748 882253999 1227927594 1277837788 -1016978428 1573953898 1413380714 -1353970331 -1361987352 -437111282 1558421161 -449180844 -1573831554 -1200858418 1996802604 484121002 1446405937 -166232886 -206554896 667028971 1636226219 -2036127003 -803131164 1229723617 2087367033 497113330 977505910 -1782443698 -533760184 -1560782999
REM
CELL 1.54180   50.00000   50.00000   50.00000   90.00000   90.00000   90.00000
LATT -1
SFAC C  
C      1  0.5442410000000  0.5086450000000  0.5423350000000 1.0
C      1  0.5515080000000  0.5363420000000  0.4711210000000 1.0
C      1  0.5473990000000  0.4555330000000  0.4886960000000 1.0
C      1  0.4522050000000  0.5100190000000  0.5427570000000 1.0
C      1  0.4470730000000  0.5339560000000  0.4694080000000 1.0
C      1  0.4545170000000  0.4560320000000  0.4848380000000 1.0
C      1  0.4861610000000  0.4707440000000  0.4494190000000 1.0
C      1  0.4891550000000  0.4916120000000  0.5500750000000 1.0
C      1  0.4849080000000  0.5482000000000  0.4807900000000 1.0
C      1  0.5114900000000  0.4580410000000  0.4671830000000 1.0
C      1  0.5118060000000  0.4759400000000  0.5561280000000 1.0
C      1  0.5135230000000  0.5546350000000  0.4946610000000 1.0
C      1  0.5688040000000  0.4432350000000  0.4521660000000 1.0
C      1  0.5663580000000  0.4850440000000  0.5741340000000 1.0
C      1  0.5722840000000  0.5725330000000  0.4757310000000 1.0
C      1  0.4287720000000  0.4409490000000  0.4510170000000 1.0
C      1  0.4325790000000  0.4851640000000  0.5731100000000 1.0
C      1  0.4278540000000  0.5718900000000  0.4768280000000 1.0
C      1  0.5809810000000  0.4578500000000  0.5326030000000 1.0
C      1  0.5814570000000  0.5481060000000  0.5206940000000 1.0
C      1  0.5795740000000  0.4921280000000  0.4493560000000 1.0
C      1  0.4208360000000  0.4585870000000  0.5316990000000 1.0
C      1  0.4186490000000  0.5480100000000  0.5201720000000 1.0
C      1  0.4138100000000  0.4921870000000  0.4473560000000 1.0
C      1  0.5344200000000  0.4406540000000  0.5587350000000 1.0
C      1  0.5330970000000  0.5819270000000  0.5198750000000 1.0
C      1  0.5297720000000  0.4772240000000  0.4249850000000 1.0
C      1  0.4676050000000  0.4427730000000  0.5566370000000 1.0
C      1  0.4643480000000  0.5806400000000  0.5210280000000 1.0
C      1  0.4607160000000  0.4784740000000  0.4169280000000 1.0
C      1  0.5430350000000  0.4950470000000  0.5923900000000 1.0
C      1  0.5521130000000  0.5852200000000  0.4540270000000 1.0
C      1  0.5503460000000  0.4181750000000  0.4513120000000 1.0
C      1  0.4529550000000  0.4965820000000  0.5938630000000 1.0
C      1  0.4464920000000  0.5846810000000  0.4549650000000 1.0
C      1  0.4502680000000  0.4177050000000  0.4498120000000 1.0
C      1  0.4604680000000  0.5165350000000  0.5717210000000 1.0
C      1  0.4551400000000  0.5554570000000  0.4494650000000 1.0
C      1  0.4605990000000  0.4275960000000  0.4769570000000 1.0
C      1  0.5350540000000  0.5147820000000  0.5706300000000 1.0
C      1  0.5424830000000  0.5559990000000  0.4506910000000 1.0
C      1  0.5413880000000  0.4269370000000  0.4794890000000 1.0
C      1  0.5139620000000  0.5743200000000  0.4200800000000 1.0
C      1  0.5155440000000  0.3895660000000  0.4762670000000 1.0
C      1  0.5149660000000  0.5356280000000  0.6062490000000 1.0
C      1  0.4835670000000  0.5752270000000  0.4200220000000 1.0
C      1  0.4849630000000  0.3894970000000  0.4764150000000 1.0
C      1  0.4843460000000  0.5355250000000  0.6063840000000 1.0
C      1  0.5305020000000  0.3946000000000  0.4511870000000 1.0
C      1  0.5299470000000  0.5112120000000  0.6149620000000 1.0
C      1  0.5300670000000  0.5948460000000  0.4342780000000 1.0
C      1  0.4693440000000  0.3931680000000  0.4512860000000 1.0
C      1  0.4696340000000  0.5112460000000  0.6152140000000 1.0
C      1  0.4687590000000  0.5952020000000  0.4362040000000 1.0
C      1  0.4167940000000  0.5234230000000  0.4423480000000 1.0
C      1  0.4237070000000  0.4394820000000  0.5080730000000 1.0
C      1  0.4213400000000  0.5377400000000  0.5489880000000 1.0
C      1  0.5786680000000  0.5220250000000  0.4425750000000 1.0
C      1  0.5793080000000  0.4379230000000  0.5094590000000 1.0
C      1  0.5761220000000  0.5362340000000  0.5487000000000 1.0
C      1  0.5633880000000  0.5731800000000  0.5072620000000 1.0
C      1  0.5583000000000  0.4697600000000  0.4386380000000 1.0
C      1  0.5595270000000  0.4600780000000  0.5556370000000 1.0
C      1  0.4398940000000  0.5678040000000  0.5054220000000 1.0
C      1  0.4338420000000  0.4671310000000  0.4327770000000 1.0
C      1  0.4422820000000  0.4610860000000  0.5553680000000 1.0
C      1  0.4930190000000  0.5132570000000  0.5301060000000 1.0
C      1  0.4935460000000  0.5226020000000  0.4653400000000 1.0
C      1  0.4891590000000  0.4930540000000  0.4713850000000 1.0
C      1  0.5074670000000  0.5032300000000  0.5077780000000 1.0
C      1  0.5160730000000  0.5209220000000  0.4874040000000 1.0
C      1  0.5007490000000  0.4745110000000  0.4986100000000 1.0
C      1  0.4682110000000  0.5306600000000  0.5247550000000 1.0
C      1  0.4519260000000  0.5063230000000  0.4577010000000 1.0
C      1  0.4727080000000  0.4644330000000  0.5100540000000 1.0
C      1  0.5347250000000  0.5309490000000  0.5236660000000 1.0
C      1  0.5367620000000  0.5077600000000  0.4674890000000 1.0
C      1  0.5287910000000  0.4629280000000  0.5125640000000 1.0
C      1  0.4771280000000  0.4407140000000  0.5295970000000 1.0
C      1  0.4734240000000  0.5578130000000  0.5361330000000 1.0
C      1  0.4665090000000  0.5030960000000  0.4312360000000 1.0
C      1  0.5249940000000  0.4386400000000  0.5313340000000 1.0
C      1  0.5252060000000  0.5578060000000  0.5348600000000 1.0
C      1  0.5228420000000  0.5022900000000  0.4391770000000 1.0
C      1  0.4595320000000  0.5429650000000  0.4968930000000 1.0
C      1  0.4549040000000  0.4730300000000  0.4581600000000 1.0
C      1  0.4622700000000  0.4798520000000  0.5376940000000 1.0
C      1  0.5458250000000  0.5481430000000  0.4984800000000 1.0
C      1  0.5400670000000  0.4745670000000  0.4655760000000 1.0
C      1  0.5366930000000  0.4780710000000  0.5398300000000 1.0
C      1  0.5830030000000  0.5403550000000  0.4692660000000 1.0
C      1  0.5792740000000  0.4531850000000  0.4818600000000 1.0
C      1  0.5754780000000  0.5052120000000  0.5493230000000 1.0
C      1  0.4157880000000  0.5410990000000  0.4701270000000 1.0
C      1  0.4222860000000  0.4538750000000  0.4805880000000 1.0
C      1  0.4209160000000  0.5061010000000  0.5498470000000 1.0
C      1  0.5149240000000  0.4144390000000  0.5207090000000 1.0
C      1  0.5137820000000  0.5590320000000  0.5607700000000 1.0
C      1  0.5112790000000  0.5238270000000  0.4254740000000 1.0
C      1  0.4863090000000  0.4162000000000  0.5194360000000 1.0
C      1  0.4851150000000  0.5600410000000  0.5615530000000 1.0
C      1  0.4826330000000  0.5241890000000  0.4208100000000 1.0
C      1  0.5092950000000  0.4568060000000  0.4172610000000 1.0
C      1  0.5151920000000  0.4425830000000  0.5814500000000 1.0
C      1  0.5126510000000  0.5972730000000  0.5040900000000 1.0
C      1  0.4823480000000  0.4620070000000  0.4049670000000 1.0
C      1  0.4851360000000  0.4391800000000  0.5803530000000 1.0
C      1  0.4832830000000  0.6012780000000  0.5107340000000 1.0
C      1  0.4382270000000  0.4121200000000  0.5092430000000 1.0
C      1  0.4370010000000  0.5522830000000  0.5715690000000 1.0
C      1  0.4337390000000  0.5360970000000  0.4189080000000 1.0
C      1  0.5642080000000  0.4105310000000  0.5106970000000 1.0
C      1  0.5606380000000  0.5506370000000  0.5710540000000 1.0
C      1  0.5607600000000  0.5341900000000  0.4198000000000 1.0
C      1  0.4664600000000  0.5483890000000  0.4215930000000 1.0
C      1  0.4693700000000  0.4064250000000  0.4981130000000 1.0
C      1  0.4685730000000  0.5453980000000  0.5805300000000 1.0
C      1  0.5290600000000  0.5469410000000  0.4239420000000 1.0
C      1  0.5320180000000  0.4049190000000  0.4993370000000 1.0
C      1  0.5298820000000  0.5439840000000  0.5795840000000 1.0
C      1  0.5891420000000  0.4817590000000  0.4772030000000 1.0
C      1  0.5884750000000  0.4880190000000  0.5279860000000 1.0
C      1  0.5906800000000  0.5293550000000  0.4972610000000 1.0
C      1  0.4099300000000  0.4814160000000  0.4766260000000 1.0
C      1  0.4104110000000  0.4878100000000  0.5276210000000 1.0
C      1  0.4077510000000  0.5293900000000  0.4973250000000 1.0
C      1  0.4065170000000  0.4994340000000  0.5004820000000 1.0
C      1  0.5923690000000  0.4996290000000  0.5008130000000 1.0
END
