TITL C-862506-1665-257 0.000340262195631941 125000 -362.030908589638 0 0 71 (Cs) n - 1
REM
REM in /home/nfs/bkarasulu/CARBON/AIRSS/Generating-Clusters/TERSOFF/Higher-Symm/FIRE-HFTN
REM
REM
REM
REM
REM
REM ./C.cell (b20cbc046b6831c77cfcea5457e17084)
REM AIRSS Version 0.9.1 bugfix July 2018 build 013d7b7c2542+ Fri, 06 Jul 2018 19:26:36 +0100
REM compiler GCC version 9.2.1 20190827 (Red Hat 9.2.1-1)
REM options -cpp -mtune=generic -march=x86-64 -g -O0 -fpre-include=/usr/include/finclude/math-vector-fortran.h
REM seed -960744405 -221781668 -535663276 1691341225 396010332 -51978095 679493536 1674472021 -1700323761 945052075 -162103975 709549256 -457558242 1715104630 1291885674 -1970436472 -910418899 -1131532641 1955564006 2020720543 1858326810 -826284018 196377859 1341505419 406252368 -635974637 -288305241 -1692541280 1171824685 -207708188 -1306139573 -347588811 -1266701910
REM
CELL 1.54180   50.00000   50.00000   50.00000   90.00000   90.00000   90.00000
LATT -1
SFAC C  
C      1  0.5103660000000  0.4367770000000  0.4675300000000 1.0
C      1  0.5299260000000  0.5684740000000  0.5332130000000 1.0
C      1  0.4860930000000  0.4293700000000  0.5303390000000 1.0
C      1  0.4893780000000  0.5593210000000  0.4750010000000 1.0
C      1  0.5103660000000  0.4676860000000  0.4366210000000 1.0
C      1  0.5299260000000  0.5333700000000  0.5683180000000 1.0
C      1  0.4860930000000  0.5304950000000  0.4292140000000 1.0
C      1  0.4893780000000  0.4751570000000  0.5591650000000 1.0
C      1  0.4525390000000  0.4377640000000  0.4606560000000 1.0
C      1  0.4403640000000  0.5563430000000  0.5339640000000 1.0
C      1  0.5452890000000  0.4378900000000  0.5373660000000 1.0
C      1  0.5459320000000  0.5584620000000  0.4635280000000 1.0
C      1  0.4525390000000  0.4608120000000  0.4376070000000 1.0
C      1  0.4403640000000  0.5341200000000  0.5561870000000 1.0
C      1  0.5452890000000  0.5375220000000  0.4377340000000 1.0
C      1  0.5459320000000  0.4636850000000  0.5583050000000 1.0
C      1  0.4568410000000  0.5347090000000  0.4425660000000 1.0
C      1  0.4579930000000  0.4653830000000  0.5560010000000 1.0
C      1  0.5590010000000  0.5351250000000  0.5576310000000 1.0
C      1  0.5415700000000  0.4673670000000  0.4457900000000 1.0
C      1  0.4568410000000  0.4427220000000  0.5345530000000 1.0
C      1  0.4579930000000  0.5561580000000  0.4652260000000 1.0
C      1  0.5590010000000  0.5577880000000  0.5349690000000 1.0
C      1  0.5415700000000  0.4459460000000  0.4672100000000 1.0
C      1  0.4768770000000  0.4254430000000  0.4731190000000 1.0
C      1  0.4656900000000  0.5683410000000  0.5252010000000 1.0
C      1  0.5213900000000  0.4244370000000  0.5242890000000 1.0
C      1  0.5219340000000  0.5696210000000  0.4782570000000 1.0
C      1  0.4768770000000  0.4732760000000  0.4252860000000 1.0
C      1  0.4656900000000  0.5253570000000  0.5681840000000 1.0
C      1  0.5213900000000  0.5244450000000  0.4242810000000 1.0
C      1  0.5219340000000  0.4784130000000  0.5694650000000 1.0
C      1  0.4248540000000  0.5373740000000  0.5128020000000 1.0
C      1  0.4330110000000  0.4559470000000  0.4794350000000 1.0
C      1  0.5696900000000  0.5419090000000  0.4798190000000 1.0
C      1  0.5640150000000  0.4576360000000  0.5188920000000 1.0
C      1  0.4248540000000  0.5129590000000  0.5372180000000 1.0
C      1  0.4330110000000  0.4795910000000  0.4557900000000 1.0
C      1  0.5696900000000  0.4799750000000  0.5417530000000 1.0
C      1  0.5640150000000  0.5190480000000  0.4574800000000 1.0
C      1  0.4837830000000  0.5067620000000  0.5536810000000 1.0
C      1  0.4842820000000  0.5004220000000  0.4397410000000 1.0
C      1  0.5145850000000  0.4992950000000  0.4420800000000 1.0
C      1  0.5170720000000  0.5078630000000  0.5573110000000 1.0
C      1  0.4837830000000  0.5538370000000  0.5066050000000 1.0
C      1  0.4842820000000  0.4398970000000  0.5002660000000 1.0
C      1  0.5145850000000  0.4422360000000  0.4991390000000 1.0
C      1  0.5170720000000  0.5574680000000  0.5077070000000 1.0
C      1  0.4385720000000  0.5347530000000  0.4846950000000 1.0
C      1  0.4427330000000  0.4610980000000  0.5090020000000 1.0
C      1  0.5662410000000  0.5366620000000  0.5108610000000 1.0
C      1  0.5502970000000  0.4662520000000  0.4917600000000 1.0
C      1  0.4385720000000  0.4848520000000  0.5345960000000 1.0
C      1  0.4427330000000  0.5091590000000  0.4609420000000 1.0
C      1  0.5662410000000  0.5110170000000  0.5365060000000 1.0
C      1  0.5502970000000  0.4919170000000  0.4660950000000 1.0
C      1  0.4718300000000  0.4681520000000  0.4975610000000 1.0
C      1  0.4658170000000  0.5301720000000  0.4972750000000 1.0
C      1  0.5222710000000  0.4716630000000  0.5093530000000 1.0
C      1  0.5361820000000  0.5335060000000  0.5036830000000 1.0
C      1  0.4718300000000  0.4977170000000  0.4679960000000 1.0
C      1  0.4658170000000  0.4974320000000  0.5300160000000 1.0
C      1  0.5222710000000  0.5095090000000  0.4715070000000 1.0
C      1  0.5361820000000  0.5038390000000  0.5333500000000 1.0
C      1  0.5000520000000  0.4590380000000  0.5347580000000 1.0
C      1  0.5000520000000  0.5349150000000  0.4588820000000 1.0
C      1  0.5176310000000  0.5588050000000  0.5586490000000 1.0
C      1  0.4877400000000  0.4651710000000  0.4650140000000 1.0
C      1  0.4758320000000  0.5018390000000  0.5016830000000 1.0
C      1  0.5256240000000  0.5038840000000  0.5037280000000 1.0
C      1  0.5007920000000  0.5127030000000  0.5125470000000 1.0
END
