TITL C-862501-1041-1149 -0.000261209769841274 125000 -476.017918702435 0 0 88 (C4) n - 1
REM
REM in /home/nfs/bkarasulu/CARBON/AIRSS/Generating-Clusters/TERSOFF/Higher-Symm/FIRE-HFTN
REM
REM
REM
REM
REM
REM ./C.cell (b20cbc046b6831c77cfcea5457e17084)
REM AIRSS Version 0.9.1 bugfix July 2018 build 013d7b7c2542+ Fri, 06 Jul 2018 19:26:36 +0100
REM compiler GCC version 9.2.1 20190827 (Red Hat 9.2.1-1)
REM options -cpp -mtune=generic -march=x86-64 -g -O0 -fpre-include=/usr/include/finclude/math-vector-fortran.h
REM seed 312499646 1895459821 -1365214405 320242705 1000902360 -376814516 -1927915851 -663997536 1354435834 -1151404724 -63455798 200146555 1587395305 269131817 -1161846525 1803955654 267556148 359496174 606224255 -1676935071 -593156955 -1431723138 -605173829 1844003992 774509356 1122070533 1732288848 168121949 -1249910786 415213648 -1729590800 2018827888 -1444678067
REM
CELL 1.54180   50.00000   50.00000   50.00000   90.00000   90.00000   90.00000
LATT -1
SFAC C  
C      1  0.5875860000000  0.5155140000000  0.4797170000000 1.0
C      1  0.4844860000000  0.5875860000000  0.4797170000000 1.0
C      1  0.4124140000000  0.4844860000000  0.4797170000000 1.0
C      1  0.5155140000000  0.4124140000000  0.4797170000000 1.0
C      1  0.4559110000000  0.4525600000000  0.5608480000000 1.0
C      1  0.5474390000000  0.4559110000000  0.5608480000000 1.0
C      1  0.5440890000000  0.5474390000000  0.5608480000000 1.0
C      1  0.4525600000000  0.5440890000000  0.5608480000000 1.0
C      1  0.4645290000000  0.4724180000000  0.5248600000000 1.0
C      1  0.5275820000000  0.4645290000000  0.5248610000000 1.0
C      1  0.5354700000000  0.5275820000000  0.5248610000000 1.0
C      1  0.4724180000000  0.5354700000000  0.5248610000000 1.0
C      1  0.5799940000000  0.5435220000000  0.4606770000000 1.0
C      1  0.4564790000000  0.5799940000000  0.4606770000000 1.0
C      1  0.4200060000000  0.4564790000000  0.4606760000000 1.0
C      1  0.5435220000000  0.4200060000000  0.4606760000000 1.0
C      1  0.5357830000000  0.5135200000000  0.4972780000000 1.0
C      1  0.4864800000000  0.5357830000000  0.4972780000000 1.0
C      1  0.4642170000000  0.4864800000000  0.4972780000000 1.0
C      1  0.5135200000000  0.4642170000000  0.4972780000000 1.0
C      1  0.4430300000000  0.5332350000000  0.4353360000000 1.0
C      1  0.4667660000000  0.4430300000000  0.4353360000000 1.0
C      1  0.5569700000000  0.4667660000000  0.4353360000000 1.0
C      1  0.5332350000000  0.5569700000000  0.4353370000000 1.0
C      1  0.4364630000000  0.4950250000000  0.4615460000000 1.0
C      1  0.5049750000000  0.4364630000000  0.4615460000000 1.0
C      1  0.5635370000000  0.5049750000000  0.4615470000000 1.0
C      1  0.4950250000000  0.5635370000000  0.4615470000000 1.0
C      1  0.5220180000000  0.5073570000000  0.4456950000000 1.0
C      1  0.4926430000000  0.5220180000000  0.4456950000000 1.0
C      1  0.4779820000000  0.4926430000000  0.4456950000000 1.0
C      1  0.5073570000000  0.4779820000000  0.4456950000000 1.0
C      1  0.5504270000000  0.4506810000000  0.4600000000000 1.0
C      1  0.5493190000000  0.5504270000000  0.4600010000000 1.0
C      1  0.4495730000000  0.5493190000000  0.4600000000000 1.0
C      1  0.4506810000000  0.4495730000000  0.4600000000000 1.0
C      1  0.4609860000000  0.4783760000000  0.4670640000000 1.0
C      1  0.5216240000000  0.4609860000000  0.4670640000000 1.0
C      1  0.5390150000000  0.5216240000000  0.4670640000000 1.0
C      1  0.4783760000000  0.5390150000000  0.4670640000000 1.0
C      1  0.5374460000000  0.5073010000000  0.5737630000000 1.0
C      1  0.4926980000000  0.5374460000000  0.5737630000000 1.0
C      1  0.4625530000000  0.4926980000000  0.5737630000000 1.0
C      1  0.5073010000000  0.4625530000000  0.5737630000000 1.0
C      1  0.5473950000000  0.5682250000000  0.4839620000000 1.0
C      1  0.4317760000000  0.5473950000000  0.4839610000000 1.0
C      1  0.4526050000000  0.4317760000000  0.4839610000000 1.0
C      1  0.5682250000000  0.4526050000000  0.4839610000000 1.0
C      1  0.5598410000000  0.4610250000000  0.5309560000000 1.0
C      1  0.5389740000000  0.5598410000000  0.5309560000000 1.0
C      1  0.4401590000000  0.5389740000000  0.5309550000000 1.0
C      1  0.4610250000000  0.4401590000000  0.5309550000000 1.0
C      1  0.4831240000000  0.5530510000000  0.5489260000000 1.0
C      1  0.4469480000000  0.4831240000000  0.5489250000000 1.0
C      1  0.5168750000000  0.4469480000000  0.5489250000000 1.0
C      1  0.5530510000000  0.5168750000000  0.5489260000000 1.0
C      1  0.5125540000000  0.5484990000000  0.4966230000000 1.0
C      1  0.4515010000000  0.5125540000000  0.4966230000000 1.0
C      1  0.4874460000000  0.4515010000000  0.4966220000000 1.0
C      1  0.5484990000000  0.4874460000000  0.4966230000000 1.0
C      1  0.4233230000000  0.4893580000000  0.5317400000000 1.0
C      1  0.5106420000000  0.4233230000000  0.5317400000000 1.0
C      1  0.5766760000000  0.5106420000000  0.5317410000000 1.0
C      1  0.4893580000000  0.5766760000000  0.5317410000000 1.0
C      1  0.5207700000000  0.5331960000000  0.5806240000000 1.0
C      1  0.4668030000000  0.5207700000000  0.5806240000000 1.0
C      1  0.4792290000000  0.4668030000000  0.5806230000000 1.0
C      1  0.5331970000000  0.4792290000000  0.5806240000000 1.0
C      1  0.4384220000000  0.4437260000000  0.5087350000000 1.0
C      1  0.5562740000000  0.4384220000000  0.5087350000000 1.0
C      1  0.5615780000000  0.5562740000000  0.5087360000000 1.0
C      1  0.4437260000000  0.5615780000000  0.5087350000000 1.0
C      1  0.5085080000000  0.5425510000000  0.4271790000000 1.0
C      1  0.4574500000000  0.5085080000000  0.4271790000000 1.0
C      1  0.4914930000000  0.4574500000000  0.4271790000000 1.0
C      1  0.5425510000000  0.4914930000000  0.4271790000000 1.0
C      1  0.5803160000000  0.4823680000000  0.4925570000000 1.0
C      1  0.5176320000000  0.5803160000000  0.4925580000000 1.0
C      1  0.4196840000000  0.5176320000000  0.4925570000000 1.0
C      1  0.4823680000000  0.4196840000000  0.4925570000000 1.0
C      1  0.5176560000000  0.5801460000000  0.5237530000000 1.0
C      1  0.4198540000000  0.5176560000000  0.5237530000000 1.0
C      1  0.4823440000000  0.4198540000000  0.5237530000000 1.0
C      1  0.5801460000000  0.4823440000000  0.5237530000000 1.0
C      1  0.4699980000000  0.5789500000000  0.5081620000000 1.0
C      1  0.4210500000000  0.4699980000000  0.5081610000000 1.0
C      1  0.5300020000000  0.4210500000000  0.5081610000000 1.0
C      1  0.5789500000000  0.5300020000000  0.5081620000000 1.0
END
