TITL C-862127-1500-950 -0.0266608844948982 125000 -763.106671081968 0 0 135 (C1) n - 1
REM
REM in /home/nfs/bkarasulu/CARBON/AIRSS/Generating-Clusters/TERSOFF/Higher-Symm/FIRE-HFTN
REM
REM
REM
REM
REM
REM ./C.cell (b20cbc046b6831c77cfcea5457e17084)
REM AIRSS Version 0.9.1 bugfix July 2018 build 013d7b7c2542+ Fri, 06 Jul 2018 19:26:36 +0100
REM compiler GCC version 9.2.1 20190827 (Red Hat 9.2.1-1)
REM options -cpp -mtune=generic -march=x86-64 -g -O0 -fpre-include=/usr/include/finclude/math-vector-fortran.h
REM seed -360570073 -989290858 1387998553 313827898 -1224798988 -1899794185 1106928821 741598826 -1421398135 534566859 -1846985480 1142691990 -418012498 1489833463 922117292 -1336958634 1584888937 1802423277 -1614359656 1290843017 -928449789 1236185642 1195926078 -210210834 646951567 288523875 -19926136 1985372385 -1049314859 130382862 -423035211 69464595 -55486707
REM
CELL 1.54180   50.00000   50.00000   50.00000   90.00000   90.00000   90.00000
LATT -1
SFAC C  
C      1  0.5119010000000  0.5302830000000  0.4077000000000 1.0
C      1  0.4885850000000  0.4699390000000  0.5926940000000 1.0
C      1  0.4234080000000  0.4584990000000  0.4619720000000 1.0
C      1  0.5760430000000  0.5418910000000  0.5385430000000 1.0
C      1  0.4842900000000  0.4886080000000  0.4802640000000 1.0
C      1  0.5146710000000  0.5139810000000  0.5210770000000 1.0
C      1  0.5106590000000  0.5056890000000  0.5762030000000 1.0
C      1  0.4894670000000  0.4953100000000  0.4262380000000 1.0
C      1  0.6073160000000  0.5293900000000  0.5135340000000 1.0
C      1  0.3919820000000  0.4709100000000  0.4868430000000 1.0
C      1  0.4931560000000  0.4163910000000  0.4678810000000 1.0
C      1  0.5072910000000  0.5821730000000  0.5315510000000 1.0
C      1  0.4031750000000  0.5580980000000  0.5135740000000 1.0
C      1  0.5976810000000  0.4421370000000  0.4876950000000 1.0
C      1  0.4701200000000  0.5667910000000  0.5435450000000 1.0
C      1  0.5297010000000  0.4339990000000  0.4570630000000 1.0
C      1  0.4822440000000  0.5401090000000  0.5854330000000 1.0
C      1  0.5183670000000  0.4605980000000  0.4155790000000 1.0
C      1  0.4091400000000  0.5030140000000  0.4388580000000 1.0
C      1  0.5908210000000  0.4974010000000  0.5616200000000 1.0
C      1  0.4901390000000  0.4681530000000  0.4180860000000 1.0
C      1  0.5108670000000  0.5329140000000  0.5844630000000 1.0
C      1  0.5200930000000  0.4331710000000  0.4281230000000 1.0
C      1  0.4806840000000  0.5673480000000  0.5722330000000 1.0
C      1  0.4550230000000  0.4668240000000  0.5580890000000 1.0
C      1  0.5460150000000  0.5332750000000  0.4414110000000 1.0
C      1  0.5856140000000  0.5142060000000  0.4976370000000 1.0
C      1  0.4137950000000  0.4859040000000  0.5026660000000 1.0
C      1  0.4571870000000  0.4831780000000  0.4685550000000 1.0
C      1  0.5419600000000  0.5173980000000  0.5321550000000 1.0
C      1  0.6065670000000  0.4805660000000  0.5112270000000 1.0
C      1  0.3932260000000  0.5200740000000  0.4898190000000 1.0
C      1  0.5540580000000  0.5056110000000  0.5801880000000 1.0
C      1  0.4459930000000  0.4948960000000  0.4204280000000 1.0
C      1  0.5157100000000  0.4582890000000  0.4668020000000 1.0
C      1  0.4830610000000  0.5415520000000  0.5345050000000 1.0
C      1  0.5994950000000  0.5240120000000  0.5483280000000 1.0
C      1  0.4000540000000  0.4764000000000  0.4521110000000 1.0
C      1  0.4676270000000  0.4461650000000  0.4314120000000 1.0
C      1  0.5327250000000  0.5542480000000  0.5695910000000 1.0
C      1  0.4369020000000  0.5823420000000  0.4748910000000 1.0
C      1  0.5631360000000  0.4185090000000  0.5254410000000 1.0
C      1  0.4455650000000  0.5123600000000  0.4963570000000 1.0
C      1  0.5538210000000  0.4879080000000  0.5047590000000 1.0
C      1  0.5427740000000  0.5000600000000  0.4784370000000 1.0
C      1  0.4594430000000  0.4993460000000  0.5210100000000 1.0
C      1  0.5725450000000  0.4583420000000  0.4790120000000 1.0
C      1  0.4287090000000  0.5418750000000  0.5209930000000 1.0
C      1  0.4622120000000  0.4338790000000  0.5591370000000 1.0
C      1  0.5380990000000  0.5662710000000  0.4408260000000 1.0
C      1  0.5434510000000  0.5518710000000  0.4892820000000 1.0
C      1  0.4560300000000  0.4475580000000  0.5099690000000 1.0
C      1  0.4612510000000  0.5167190000000  0.5795520000000 1.0
C      1  0.5397940000000  0.4834680000000  0.4207450000000 1.0
C      1  0.5141230000000  0.5588890000000  0.4157590000000 1.0
C      1  0.4863090000000  0.4412560000000  0.5845770000000 1.0
C      1  0.4924260000000  0.5959330000000  0.4943380000000 1.0
C      1  0.5080930000000  0.4046230000000  0.5056960000000 1.0
C      1  0.4581450000000  0.5216280000000  0.4168120000000 1.0
C      1  0.5420240000000  0.4789370000000  0.5841420000000 1.0
C      1  0.5730710000000  0.4762150000000  0.5484070000000 1.0
C      1  0.4267270000000  0.5242060000000  0.4523460000000 1.0
C      1  0.4464750000000  0.4228220000000  0.4775480000000 1.0
C      1  0.5516020000000  0.5758700000000  0.5226320000000 1.0
C      1  0.4181790000000  0.4914150000000  0.5316660000000 1.0
C      1  0.5825870000000  0.5088440000000  0.4683070000000 1.0
C      1  0.4938180000000  0.3806280000000  0.5153570000000 1.0
C      1  0.5068680000000  0.6198910000000  0.4847780000000 1.0
C      1  0.5230290000000  0.4860380000000  0.4616890000000 1.0
C      1  0.4759570000000  0.5140490000000  0.5403110000000 1.0
C      1  0.4598840000000  0.5699280000000  0.4254770000000 1.0
C      1  0.5402170000000  0.4302940000000  0.5744340000000 1.0
C      1  0.5145090000000  0.4834960000000  0.5958440000000 1.0
C      1  0.4859300000000  0.5168040000000  0.4060660000000 1.0
C      1  0.4400000000000  0.5889980000000  0.4406660000000 1.0
C      1  0.5598170000000  0.4114690000000  0.5589910000000 1.0
C      1  0.4972690000000  0.5025950000000  0.4539640000000 1.0
C      1  0.5026810000000  0.4989490000000  0.5486330000000 1.0
C      1  0.4942090000000  0.4559320000000  0.4873370000000 1.0
C      1  0.5030210000000  0.5402860000000  0.5121310000000 1.0
C      1  0.5779800000000  0.4727440000000  0.5199190000000 1.0
C      1  0.4216490000000  0.5278420000000  0.4807410000000 1.0
C      1  0.4169570000000  0.5597100000000  0.4848420000000 1.0
C      1  0.5829910000000  0.4411000000000  0.5158430000000 1.0
C      1  0.5184240000000  0.4725530000000  0.5394430000000 1.0
C      1  0.4806400000000  0.5276790000000  0.4634830000000 1.0
C      1  0.4532350000000  0.5820220000000  0.5044230000000 1.0
C      1  0.5472270000000  0.4186550000000  0.4958880000000 1.0
C      1  0.4277560000000  0.5191870000000  0.5401380000000 1.0
C      1  0.5746230000000  0.4805940000000  0.4592670000000 1.0
C      1  0.5089480000000  0.5733430000000  0.5602780000000 1.0
C      1  0.4916380000000  0.4264440000000  0.4396600000000 1.0
C      1  0.5695740000000  0.5634510000000  0.4585990000000 1.0
C      1  0.4306040000000  0.4369500000000  0.5415600000000 1.0
C      1  0.4409400000000  0.4368990000000  0.4506280000000 1.0
C      1  0.5583200000000  0.5633270000000  0.5499340000000 1.0
C      1  0.4921400000000  0.4159310000000  0.5516230000000 1.0
C      1  0.5081240000000  0.5845690000000  0.4484000000000 1.0
C      1  0.5216810000000  0.5641040000000  0.5097110000000 1.0
C      1  0.4763040000000  0.4318310000000  0.4896530000000 1.0
C      1  0.3807230000000  0.5383700000000  0.5092450000000 1.0
C      1  0.6198380000000  0.4620720000000  0.4925300000000 1.0
C      1  0.4792960000000  0.5369810000000  0.4929740000000 1.0
C      1  0.5195120000000  0.4642750000000  0.5081760000000 1.0
C      1  0.3981990000000  0.4423210000000  0.4962620000000 1.0
C      1  0.6007350000000  0.5580160000000  0.5043200000000 1.0
C      1  0.5111060000000  0.4219940000000  0.5777600000000 1.0
C      1  0.4891360000000  0.5781990000000  0.4222000000000 1.0
C      1  0.5726110000000  0.5675510000000  0.4942610000000 1.0
C      1  0.4262240000000  0.4324540000000  0.5060640000000 1.0
C      1  0.5108080000000  0.4247630000000  0.5275850000000 1.0
C      1  0.4893950000000  0.5760520000000  0.4723770000000 1.0
C      1  0.4537370000000  0.5522450000000  0.5064380000000 1.0
C      1  0.5468630000000  0.4482750000000  0.4930260000000 1.0
C      1  0.4623330000000  0.5652540000000  0.4670350000000 1.0
C      1  0.5378140000000  0.4359180000000  0.5329800000000 1.0
C      1  0.5444130000000  0.5250480000000  0.5604470000000 1.0
C      1  0.4552860000000  0.4754360000000  0.4403500000000 1.0
C      1  0.4857930000000  0.3872260000000  0.5430930000000 1.0
C      1  0.5147010000000  0.6132570000000  0.4569380000000 1.0
C      1  0.5437010000000  0.4606640000000  0.5587680000000 1.0
C      1  0.4560810000000  0.5396320000000  0.4423200000000 1.0
C      1  0.4354990000000  0.5240970000000  0.5679090000000 1.0
C      1  0.5659820000000  0.4758570000000  0.4316320000000 1.0
C      1  0.5414890000000  0.5286940000000  0.4712020000000 1.0
C      1  0.4595210000000  0.4707690000000  0.5281040000000 1.0
C      1  0.5227400000000  0.4070380000000  0.4779850000000 1.0
C      1  0.4780330000000  0.5932460000000  0.5221360000000 1.0
C      1  0.5772480000000  0.5320840000000  0.4494640000000 1.0
C      1  0.4239660000000  0.4683380000000  0.5503220000000 1.0
C      1  0.4675430000000  0.4853630000000  0.5781810000000 1.0
C      1  0.5337560000000  0.5148340000000  0.4212970000000 1.0
C      1  0.4349540000000  0.4734230000000  0.4848180000000 1.0
C      1  0.5643670000000  0.5270250000000  0.5156330000000 1.0
C      1  0.5089320000000  0.4923390000000  0.5019610000000 1.0
END
