TITL C-862134-6730-461 -2.60407337757974e-06 125000 -253.903552150172 0 0 52 (D3) n - 1
REM
REM in /home/nfs/bkarasulu/CARBON/AIRSS/Generating-Clusters/TERSOFF/Higher-Symm/FIRE-HFTN
REM
REM
REM
REM
REM
REM ./C.cell (b20cbc046b6831c77cfcea5457e17084)
REM AIRSS Version 0.9.1 bugfix July 2018 build 013d7b7c2542+ Fri, 06 Jul 2018 19:26:36 +0100
REM compiler GCC version 9.2.1 20190827 (Red Hat 9.2.1-1)
REM options -cpp -mtune=generic -march=x86-64 -g -O0 -fpre-include=/usr/include/finclude/math-vector-fortran.h
REM seed 1676097012 569625414 -754820159 1897958234 -930762599 -1324952140 -1107881077 -1503119659 806464267 1662485009 388090736 234771177 1317354542 1530490170 111029710 -679951200 -1182936073 -1527910025 -235225909 -896124228 -840428817 -276690873 692320981 -1025807029 -569216898 1102332394 474121786 449266856 204223256 211190397 1682420582 598251420 -1108029487
REM
CELL 1.54180   50.00000   50.00000   50.00000   90.00000   90.00000   90.00000
LATT -1
SFAC C  
C      1  0.4956980000000  0.4731590000000  0.5200770000000 1.0
C      1  0.4790020000000  0.5174880000000  0.5200770000000 1.0
C      1  0.5257400000000  0.5097830000000  0.5200770000000 1.0
C      1  0.4956980000000  0.5271280000000  0.4790200000000 1.0
C      1  0.4790020000000  0.4827980000000  0.4790200000000 1.0
C      1  0.5257400000000  0.4905040000000  0.4790200000000 1.0
C      1  0.4662740000000  0.5498120000000  0.5532760000000 1.0
C      1  0.5600980000000  0.5046430000000  0.5532760000000 1.0
C      1  0.4740680000000  0.4459740000000  0.5532760000000 1.0
C      1  0.4662740000000  0.4504740000000  0.4458210000000 1.0
C      1  0.5600980000000  0.4956430000000  0.4458210000000 1.0
C      1  0.4740680000000  0.5543120000000  0.4458210000000 1.0
C      1  0.5198050000000  0.5052930000000  0.5743580000000 1.0
C      1  0.4947770000000  0.4805440000000  0.5743580000000 1.0
C      1  0.4858580000000  0.5145930000000  0.5743580000000 1.0
C      1  0.5198050000000  0.4949930000000  0.4247380000000 1.0
C      1  0.4947780000000  0.5197430000000  0.4247380000000 1.0
C      1  0.4858580000000  0.4856940000000  0.4247380000000 1.0
C      1  0.5307430000000  0.4918060000000  0.5450140000000 1.0
C      1  0.4776280000000  0.4778140000000  0.5450140000000 1.0
C      1  0.4920690000000  0.5308100000000  0.5450140000000 1.0
C      1  0.5307430000000  0.5084810000000  0.4540820000000 1.0
C      1  0.4776280000000  0.5224720000000  0.4540820000000 1.0
C      1  0.4920690000000  0.4694770000000  0.4540820000000 1.0
C      1  0.4550440000000  0.5197350000000  0.5614530000000 1.0
C      1  0.5396650000000  0.5294080000000  0.5614530000000 1.0
C      1  0.5057310000000  0.4512870000000  0.5614530000000 1.0
C      1  0.4550440000000  0.4805520000000  0.4376430000000 1.0
C      1  0.5396650000000  0.4708790000000  0.4376430000000 1.0
C      1  0.5057320000000  0.5489990000000  0.4376430000000 1.0
C      1  0.5212330000000  0.5376410000000  0.5371150000000 1.0
C      1  0.5220780000000  0.4631330000000  0.5371150000000 1.0
C      1  0.4571300000000  0.4996550000000  0.5371150000000 1.0
C      1  0.5212320000000  0.4626450000000  0.4619810000000 1.0
C      1  0.5220780000000  0.5371530000000  0.4619810000000 1.0
C      1  0.4571300000000  0.5006310000000  0.4619810000000 1.0
C      1  0.5471190000000  0.5456740000000  0.4760610000000 1.0
C      1  0.5160920000000  0.4366990000000  0.4760610000000 1.0
C      1  0.4372300000000  0.5180570000000  0.4760610000000 1.0
C      1  0.5471190000000  0.4546120000000  0.5230350000000 1.0
C      1  0.5160920000000  0.5635880000000  0.5230350000000 1.0
C      1  0.4372290000000  0.4822300000000  0.5230350000000 1.0
C      1  0.5626160000000  0.5251130000000  0.4900740000000 1.0
C      1  0.4905370000000  0.4335580000000  0.4900740000000 1.0
C      1  0.4472880000000  0.5417580000000  0.4900740000000 1.0
C      1  0.5626160000000  0.4751730000000  0.5090220000000 1.0
C      1  0.4905370000000  0.5667280000000  0.5090220000000 1.0
C      1  0.4472870000000  0.4585280000000  0.5090220000000 1.0
C      1  0.4756840000000  0.5425150000000  0.4995480000000 1.0
C      1  0.4756840000000  0.4577720000000  0.4995480000000 1.0
C      1  0.5490730000000  0.5001430000000  0.4995480000000 1.0
C      1  0.5001470000000  0.5001430000000  0.4995480000000 1.0
END
