TITL C-862505-1648-326 0.000155362021467489 125000 -132.274535054092 0 0 26 (C5) n - 1
REM
REM in /home/nfs/bkarasulu/CARBON/AIRSS/Generating-Clusters/TERSOFF/Higher-Symm/FIRE-HFTN
REM
REM
REM
REM
REM
REM ./C.cell (b20cbc046b6831c77cfcea5457e17084)
REM AIRSS Version 0.9.1 bugfix July 2018 build 013d7b7c2542+ Fri, 06 Jul 2018 19:26:36 +0100
REM compiler GCC version 9.2.1 20190827 (Red Hat 9.2.1-1)
REM options -cpp -mtune=generic -march=x86-64 -g -O0 -fpre-include=/usr/include/finclude/math-vector-fortran.h
REM seed 1417541692 -1716863876 503391034 417772548 868693491 -135080961 -601137226 150841781 1568154697 -1911605186 -1156634471 495534598 -243313328 731434984 -1201202112 -1849184347 328757225 610902247 -282590651 -1577968771 -304253512 1395486954 1771280509 1048727078 28723556 -660890258 -174003354 1819871289 -943796900 330699213 1221266568 1667897075 2026316568
REM
CELL 1.54180   50.00000   50.00000   50.00000   90.00000   90.00000   90.00000
LATT -1
SFAC C  
C      1  0.5398640000000  0.4715710000000  0.4798050000000 1.0
C      1  0.5318810000000  0.4715710000000  0.5314800000000 1.0
C      1  0.4802680000000  0.4715710000000  0.5398570000000 1.0
C      1  0.4563520000000  0.4715710000000  0.4933580000000 1.0
C      1  0.4931840000000  0.4715710000000  0.4562440000000 1.0
C      1  0.5487780000000  0.5215500000000  0.4752200000000 1.0
C      1  0.5389960000000  0.5215500000000  0.5385420000000 1.0
C      1  0.4757510000000  0.5215500000000  0.5488060000000 1.0
C      1  0.4464450000000  0.5215500000000  0.4918280000000 1.0
C      1  0.4915780000000  0.5215500000000  0.4463490000000 1.0
C      1  0.4842400000000  0.4994800000000  0.5319860000000 1.0
C      1  0.4650650000000  0.4994800000000  0.4947040000000 1.0
C      1  0.4945960000000  0.4994800000000  0.4649470000000 1.0
C      1  0.5320230000000  0.4994800000000  0.4838370000000 1.0
C      1  0.5256230000000  0.4994800000000  0.5252700000000 1.0
C      1  0.5184310000000  0.4492330000000  0.5181330000000 1.0
C      1  0.4888060000000  0.4492330000000  0.5229410000000 1.0
C      1  0.4750780000000  0.4492330000000  0.4962510000000 1.0
C      1  0.4962200000000  0.4492330000000  0.4749480000000 1.0
C      1  0.5230140000000  0.4492330000000  0.4884710000000 1.0
C      1  0.5540830000000  0.5453350000000  0.4908370000000 1.0
C      1  0.5257830000000  0.5453350000000  0.5484120000000 1.0
C      1  0.4622800000000  0.5453350000000  0.5392900000000 1.0
C      1  0.4513330000000  0.5453350000000  0.4760760000000 1.0
C      1  0.5080700000000  0.5453350000000  0.4461300000000 1.0
C      1  0.5003100000000  0.5052850000000  0.5001490000000 1.0
END
