TITL C-862503-991-620 407211.367295896 125000 -933.372946061928 0 0 165 (C1) n - 1
REM
REM in /home/nfs/bkarasulu/CARBON/AIRSS/Generating-Clusters/TERSOFF/Higher-Symm/FIRE-HFTN
REM
REM
REM
REM
REM
REM ./C.cell (b20cbc046b6831c77cfcea5457e17084)
REM AIRSS Version 0.9.1 bugfix July 2018 build 013d7b7c2542+ Fri, 06 Jul 2018 19:26:36 +0100
REM compiler GCC version 9.2.1 20190827 (Red Hat 9.2.1-1)
REM options -cpp -mtune=generic -march=x86-64 -g -O0 -fpre-include=/usr/include/finclude/math-vector-fortran.h
REM seed 1285806127 853550071 234069063 -152238748 -1681010804 1861792871 -943433450 -228855851 1897625684 -1366910025 1872904990 278588113 -1389235063 -1856479159 -1719835525 -2062028873 1448846115 546162156 -2121680938 -953602905 1644293869 -833359964 -159582064 962925756 1771928150 -379998085 -1362695707 -707560098 1252417262 1395826424 1264071129 598056014 1925808151
REM
CELL 1.54180   50.00000   50.00000   50.00000   90.00000   90.00000   90.00000
LATT -1
SFAC C  
C      1  0.5356410000000  0.4213860000000  0.5497110000000 1.0
C      1  0.5336170000000  0.4955780000000  0.4068160000000 1.0
C      1  0.5350860000000  0.5833120000000  0.5435540000000 1.0
C      1  0.3837020000000  0.5217760000000  0.4644900000000 1.0
C      1  0.3835550000000  0.5200030000000  0.5364090000000 1.0
C      1  0.3835190000000  0.4587920000000  0.4991210000000 1.0
C      1  0.5299760000000  0.4506890000000  0.4714680000000 1.0
C      1  0.5303390000000  0.5501530000000  0.4716580000000 1.0
C      1  0.5301530000000  0.5002540000000  0.5573420000000 1.0
C      1  0.4731030000000  0.4321870000000  0.5967420000000 1.0
C      1  0.4725640000000  0.4481600000000  0.3944840000000 1.0
C      1  0.4728290000000  0.6178400000000  0.5081980000000 1.0
C      1  0.3984590000000  0.5808190000000  0.5111730000000 1.0
C      1  0.3985620000000  0.4501890000000  0.5643360000000 1.0
C      1  0.3984070000000  0.4695580000000  0.4246270000000 1.0
C      1  0.3947060000000  0.4730120000000  0.4760690000000 1.0
C      1  0.3948350000000  0.5345580000000  0.4883890000000 1.0
C      1  0.3946900000000  0.4929300000000  0.5354780000000 1.0
C      1  0.4805060000000  0.4977940000000  0.5729640000000 1.0
C      1  0.4803410000000  0.4378840000000  0.4614290000000 1.0
C      1  0.4805440000000  0.5650440000000  0.4658300000000 1.0
C      1  0.4382940000000  0.5528000000000  0.4291400000000 1.0
C      1  0.4381390000000  0.5354880000000  0.5813940000000 1.0
C      1  0.4377890000000  0.4122990000000  0.4899570000000 1.0
C      1  0.5458350000000  0.4163640000000  0.4390320000000 1.0
C      1  0.5460910000000  0.5944940000000  0.4586110000000 1.0
C      1  0.5451750000000  0.4875740000000  0.6042810000000 1.0
C      1  0.5869690000000  0.4436030000000  0.4626630000000 1.0
C      1  0.5864110000000  0.5580450000000  0.4689610000000 1.0
C      1  0.5861980000000  0.4968930000000  0.5700070000000 1.0
C      1  0.5541010000000  0.5467630000000  0.5675810000000 1.0
C      1  0.5551290000000  0.4209770000000  0.5063680000000 1.0
C      1  0.5545760000000  0.5338990000000  0.4252290000000 1.0
C      1  0.4837250000000  0.5296200000000  0.4881580000000 1.0
C      1  0.4835920000000  0.4960040000000  0.5311200000000 1.0
C      1  0.4834880000000  0.4751850000000  0.4804600000000 1.0
C      1  0.4075160000000  0.5735190000000  0.4638260000000 1.0
C      1  0.4074310000000  0.4949370000000  0.5814990000000 1.0
C      1  0.4072150000000  0.4321730000000  0.4546280000000 1.0
C      1  0.4326230000000  0.5069130000000  0.5753770000000 1.0
C      1  0.4324350000000  0.4313930000000  0.4679860000000 1.0
C      1  0.4327680000000  0.5623000000000  0.4566370000000 1.0
C      1  0.4957740000000  0.3979680000000  0.4355890000000 1.0
C      1  0.4961870000000  0.6072550000000  0.4442730000000 1.0
C      1  0.4948830000000  0.4935300000000  0.6208220000000 1.0
C      1  0.5316510000000  0.5213480000000  0.4720060000000 1.0
C      1  0.5315230000000  0.5136000000000  0.5319420000000 1.0
C      1  0.5310720000000  0.4658920000000  0.4957970000000 1.0
C      1  0.5520490000000  0.4856460000000  0.4431840000000 1.0
C      1  0.5521530000000  0.5562550000000  0.5163940000000 1.0
C      1  0.5521640000000  0.4588690000000  0.5405800000000 1.0
C      1  0.5253270000000  0.3946390000000  0.4415400000000 1.0
C      1  0.5257250000000  0.6035080000000  0.4385040000000 1.0
C      1  0.5243980000000  0.4999530000000  0.6218600000000 1.0
C      1  0.5088540000000  0.5996890000000  0.4965190000000 1.0
C      1  0.5083220000000  0.4530160000000  0.5872650000000 1.0
C      1  0.5086440000000  0.4469330000000  0.4159450000000 1.0
C      1  0.5761260000000  0.5041880000000  0.4810300000000 1.0
C      1  0.5756730000000  0.5147730000000  0.5114410000000 1.0
C      1  0.5751990000000  0.4835270000000  0.5058090000000 1.0
C      1  0.5957840000000  0.4498360000000  0.4916370000000 1.0
C      1  0.5959970000000  0.5318470000000  0.4564780000000 1.0
C      1  0.5946830000000  0.5190920000000  0.5522370000000 1.0
C      1  0.5076720000000  0.5082160000000  0.5171280000000 1.0
C      1  0.5074080000000  0.4816500000000  0.4979450000000 1.0
C      1  0.5078540000000  0.5114100000000  0.4844230000000 1.0
C      1  0.4867830000000  0.4414630000000  0.6214130000000 1.0
C      1  0.4867810000000  0.4224830000000  0.3897260000000 1.0
C      1  0.4872120000000  0.6347470000000  0.4884130000000 1.0
C      1  0.4837730000000  0.3865090000000  0.5318710000000 1.0
C      1  0.4809490000000  0.5275350000000  0.3875380000000 1.0
C      1  0.4809280000000  0.5842610000000  0.5804720000000 1.0
C      1  0.5240340000000  0.3803570000000  0.4995820000000 1.0
C      1  0.5214760000000  0.5591950000000  0.3948480000000 1.0
C      1  0.5208500000000  0.5609190000000  0.6043070000000 1.0
C      1  0.4701300000000  0.5007100000000  0.3942330000000 1.0
C      1  0.4699280000000  0.5922660000000  0.5540810000000 1.0
C      1  0.4715980000000  0.4044250000000  0.5521440000000 1.0
C      1  0.5049710000000  0.4724250000000  0.4339210000000 1.0
C      1  0.5051110000000  0.5712440000000  0.5095130000000 1.0
C      1  0.5050570000000  0.4567870000000  0.5563300000000 1.0
C      1  0.6003150000000  0.5471960000000  0.5215960000000 1.0
C      1  0.5993460000000  0.4611800000000  0.5318710000000 1.0
C      1  0.5997160000000  0.4915200000000  0.4454750000000 1.0
C      1  0.5038370000000  0.5134680000000  0.5635070000000 1.0
C      1  0.5037690000000  0.4384180000000  0.4796070000000 1.0
C      1  0.5039980000000  0.5491300000000  0.4569790000000 1.0
C      1  0.4246250000000  0.5463590000000  0.5545490000000 1.0
C      1  0.4245290000000  0.4298050000000  0.5129660000000 1.0
C      1  0.4248070000000  0.5241760000000  0.4326010000000 1.0
C      1  0.4241200000000  0.4797830000000  0.4165560000000 1.0
C      1  0.4240810000000  0.5826140000000  0.5242450000000 1.0
C      1  0.4242470000000  0.4380950000000  0.5594020000000 1.0
C      1  0.4427140000000  0.4765070000000  0.5337030000000 1.0
C      1  0.4427580000000  0.4826800000000  0.4625910000000 1.0
C      1  0.4428910000000  0.5413420000000  0.5037620000000 1.0
C      1  0.5939100000000  0.4691760000000  0.5613920000000 1.0
C      1  0.5937210000000  0.4626670000000  0.4404630000000 1.0
C      1  0.5949230000000  0.5661160000000  0.4972770000000 1.0
C      1  0.5334760000000  0.5656760000000  0.4967890000000 1.0
C      1  0.5332540000000  0.4708940000000  0.5585850000000 1.0
C      1  0.5331810000000  0.4640980000000  0.4453870000000 1.0
C      1  0.5048250000000  0.4245770000000  0.5062560000000 1.0
C      1  0.5045580000000  0.5325270000000  0.4319110000000 1.0
C      1  0.5043760000000  0.5435090000000  0.5619490000000 1.0
C      1  0.4201920000000  0.4890000000000  0.4822410000000 1.0
C      1  0.4202860000000  0.5211530000000  0.4991900000000 1.0
C      1  0.4201560000000  0.4903940000000  0.5185130000000 1.0
C      1  0.4779540000000  0.4095630000000  0.4561890000000 1.0
C      1  0.4781700000000  0.5837780000000  0.4439560000000 1.0
C      1  0.4778620000000  0.5065150000000  0.6003880000000 1.0
C      1  0.4977140000000  0.5604380000000  0.5852080000000 1.0
C      1  0.4999570000000  0.3955820000000  0.5089330000000 1.0
C      1  0.4980270000000  0.5437570000000  0.4053680000000 1.0
C      1  0.5830620000000  0.4324550000000  0.5181040000000 1.0
C      1  0.5825310000000  0.5177890000000  0.4276920000000 1.0
C      1  0.5824110000000  0.5510540000000  0.5529020000000 1.0
C      1  0.5303850000000  0.4289950000000  0.5206690000000 1.0
C      1  0.5298330000000  0.5176630000000  0.4275350000000 1.0
C      1  0.5301390000000  0.5543650000000  0.5521020000000 1.0
C      1  0.4608410000000  0.5309100000000  0.6027870000000 1.0
C      1  0.4609340000000  0.3958280000000  0.4765670000000 1.0
C      1  0.4613580000000  0.5728730000000  0.4217410000000 1.0
C      1  0.4393480000000  0.4451510000000  0.5351470000000 1.0
C      1  0.4394040000000  0.4971660000000  0.4347440000000 1.0
C      1  0.4392810000000  0.5581420000000  0.5302270000000 1.0
C      1  0.5658830000000  0.4327000000000  0.5498010000000 1.0
C      1  0.5643000000000  0.4898080000000  0.4150270000000 1.0
C      1  0.5658150000000  0.5772620000000  0.5345750000000 1.0
C      1  0.5543460000000  0.5056070000000  0.4635750000000 1.0
C      1  0.5541750000000  0.5286350000000  0.5223290000000 1.0
C      1  0.5537290000000  0.4672590000000  0.5133860000000 1.0
C      1  0.5381810000000  0.5947210000000  0.4864110000000 1.0
C      1  0.5374260000000  0.4644690000000  0.5888820000000 1.0
C      1  0.5378060000000  0.4405110000000  0.4253950000000 1.0
C      1  0.4844450000000  0.6080190000000  0.5337200000000 1.0
C      1  0.4856270000000  0.4153660000000  0.5757340000000 1.0
C      1  0.4839510000000  0.4750810000000  0.3891490000000 1.0
C      1  0.4867560000000  0.6313090000000  0.4588740000000 1.0
C      1  0.4846390000000  0.4686070000000  0.6332430000000 1.0
C      1  0.4861900000000  0.3986470000000  0.4075030000000 1.0
C      1  0.4832080000000  0.5528910000000  0.5059420000000 1.0
C      1  0.4831030000000  0.4690510000000  0.5424550000000 1.0
C      1  0.4830240000000  0.4785780000000  0.4514000000000 1.0
C      1  0.5506260000000  0.3932950000000  0.4963690000000 1.0
C      1  0.5488650000000  0.5557600000000  0.4058790000000 1.0
C      1  0.5481580000000  0.5523100000000  0.5961960000000 1.0
C      1  0.5703840000000  0.5021020000000  0.5958580000000 1.0
C      1  0.5706740000000  0.4179070000000  0.4566220000000 1.0
C      1  0.5708480000000  0.5783140000000  0.4509630000000 1.0
C      1  0.3957240000000  0.5233680000000  0.4379280000000 1.0
C      1  0.3955520000000  0.5421430000000  0.5511660000000 1.0
C      1  0.3954620000000  0.4349840000000  0.5111090000000 1.0
C      1  0.3939830000000  0.4572290000000  0.4505190000000 1.0
C      1  0.3941510000000  0.5645780000000  0.4875190000000 1.0
C      1  0.3941230000000  0.4787620000000  0.5619750000000 1.0
C      1  0.6059640000000  0.5135570000000  0.5220410000000 1.0
C      1  0.6083210000000  0.4817890000000  0.5038510000000 1.0
C      1  0.6071210000000  0.5026450000000  0.4739370000000 1.0
C      1  0.5818330000000  0.5886980000000  0.5115960000000 1.0
C      1  0.5812090000000  0.4449010000000  0.5726870000000 1.0
C      1  0.5789220000000  0.4632050000000  0.4147900000000 1.0
C      1  0.4528850000000  0.5558730000000  0.4770400000000 1.0
C      1  0.4527800000000  0.4926130000000  0.5594580000000 1.0
C      1  0.4526540000000  0.4522340000000  0.4635360000000 1.0
END
