TITL C-862503-991-1026 6.23203131358755e-05 125000 -396.717702431083 0 0 76 (C1) n - 1
REM
REM in /home/nfs/bkarasulu/CARBON/AIRSS/Generating-Clusters/TERSOFF/Higher-Symm/FIRE-HFTN
REM
REM
REM
REM
REM
REM ./C.cell (b20cbc046b6831c77cfcea5457e17084)
REM AIRSS Version 0.9.1 bugfix July 2018 build 013d7b7c2542+ Fri, 06 Jul 2018 19:26:36 +0100
REM compiler GCC version 9.2.1 20190827 (Red Hat 9.2.1-1)
REM options -cpp -mtune=generic -march=x86-64 -g -O0 -fpre-include=/usr/include/finclude/math-vector-fortran.h
REM seed -1589268371 307684797 786767226 -2069198000 1309953168 -85617523 402660323 1674944541 991203902 -1526120946 155836661 -838297164 704289518 -1812081469 -596249357 -1099972863 -1508157752 -135787904 464201958 -1071557284 388417478 1239426710 397807045 104008291 -361060241 1150950576 1687869245 -173713818 937230064 -2140976837 -866108890 1800430003 -661627154
REM
CELL 1.54180   50.00000   50.00000   50.00000   90.00000   90.00000   90.00000
LATT -1
SFAC C  
C      1  0.4873260000000  0.5202030000000  0.5165460000000 1.0
C      1  0.4895240000000  0.5212620000000  0.4804010000000 1.0
C      1  0.5197480000000  0.5236520000000  0.5005210000000 1.0
C      1  0.4748120000000  0.4289030000000  0.5157670000000 1.0
C      1  0.4977910000000  0.4288700000000  0.4693380000000 1.0
C      1  0.5263910000000  0.4288300000000  0.5125460000000 1.0
C      1  0.5124350000000  0.5360320000000  0.5521510000000 1.0
C      1  0.4433360000000  0.5344030000000  0.4835980000000 1.0
C      1  0.5449370000000  0.5336910000000  0.4596630000000 1.0
C      1  0.5201390000000  0.5692780000000  0.4815730000000 1.0
C      1  0.5042370000000  0.5707350000000  0.5109470000000 1.0
C      1  0.4722610000000  0.5711120000000  0.5000950000000 1.0
C      1  0.4520970000000  0.4430580000000  0.5292650000000 1.0
C      1  0.4973680000000  0.4432510000000  0.4429730000000 1.0
C      1  0.5494450000000  0.4429440000000  0.5255860000000 1.0
C      1  0.5071490000000  0.5672490000000  0.4533280000000 1.0
C      1  0.5366330000000  0.5668520000000  0.5264750000000 1.0
C      1  0.4496860000000  0.5671150000000  0.5215640000000 1.0
C      1  0.5448370000000  0.5535350000000  0.4810760000000 1.0
C      1  0.4941810000000  0.5547220000000  0.5393600000000 1.0
C      1  0.4633630000000  0.5542030000000  0.4765400000000 1.0
C      1  0.5241480000000  0.4314010000000  0.4827940000000 1.0
C      1  0.5016210000000  0.4314910000000  0.5286220000000 1.0
C      1  0.4732560000000  0.4313090000000  0.4861860000000 1.0
C      1  0.5432980000000  0.5256210000000  0.5247940000000 1.0
C      1  0.4550530000000  0.5256160000000  0.5229250000000 1.0
C      1  0.5014570000000  0.5259760000000  0.4497750000000 1.0
C      1  0.4763760000000  0.4972420000000  0.4323370000000 1.0
C      1  0.5697360000000  0.4951800000000  0.5132110000000 1.0
C      1  0.4533270000000  0.4965310000000  0.5531090000000 1.0
C      1  0.4591400000000  0.4536450000000  0.5553460000000 1.0
C      1  0.4712540000000  0.4538620000000  0.4361660000000 1.0
C      1  0.5682260000000  0.4537660000000  0.5063850000000 1.0
C      1  0.5076230000000  0.4555040000000  0.5467910000000 1.0
C      1  0.4547030000000  0.4554110000000  0.4824250000000 1.0
C      1  0.5365030000000  0.4555640000000  0.4687400000000 1.0
C      1  0.5770830000000  0.5224850000000  0.4999980000000 1.0
C      1  0.4626480000000  0.5246880000000  0.5641980000000 1.0
C      1  0.4621010000000  0.5256390000000  0.4352810000000 1.0
C      1  0.4334500000000  0.4626690000000  0.5099890000000 1.0
C      1  0.5232410000000  0.4630310000000  0.4365140000000 1.0
C      1  0.5420980000000  0.4624340000000  0.5515900000000 1.0
C      1  0.4804660000000  0.4759080000000  0.5571510000000 1.0
C      1  0.4593390000000  0.4761740000000  0.4537320000000 1.0
C      1  0.5585440000000  0.4757960000000  0.4870240000000 1.0
C      1  0.4329000000000  0.4905980000000  0.5297790000000 1.0
C      1  0.5067450000000  0.4914740000000  0.4264220000000 1.0
C      1  0.5588630000000  0.4906510000000  0.5420800000000 1.0
C      1  0.5006550000000  0.4924250000000  0.5765820000000 1.0
C      1  0.4317790000000  0.4917080000000  0.4604220000000 1.0
C      1  0.5673390000000  0.4911370000000  0.4604190000000 1.0
C      1  0.4174690000000  0.4869730000000  0.4883440000000 1.0
C      1  0.5492020000000  0.4880840000000  0.4346270000000 1.0
C      1  0.5315030000000  0.4882400000000  0.5744470000000 1.0
C      1  0.5201480000000  0.5074090000000  0.5390570000000 1.0
C      1  0.4536220000000  0.5064230000000  0.4960120000000 1.0
C      1  0.5249310000000  0.5084740000000  0.4619630000000 1.0
C      1  0.5812490000000  0.5158220000000  0.4706220000000 1.0
C      1  0.4871390000000  0.5187250000000  0.5808610000000 1.0
C      1  0.4345200000000  0.5180620000000  0.4459950000000 1.0
C      1  0.5426310000000  0.5445600000000  0.5542170000000 1.0
C      1  0.4269050000000  0.5428820000000  0.5097990000000 1.0
C      1  0.5269380000000  0.5439080000000  0.4342070000000 1.0
C      1  0.5298960000000  0.4923700000000  0.5003750000000 1.0
C      1  0.4843280000000  0.4902140000000  0.5255760000000 1.0
C      1  0.4849730000000  0.4908670000000  0.4728830000000 1.0
C      1  0.5292180000000  0.5139360000000  0.4206300000000 1.0
C      1  0.5531960000000  0.5141320000000  0.5639490000000 1.0
C      1  0.4160640000000  0.5123210000000  0.5137430000000 1.0
C      1  0.5591150000000  0.5483030000000  0.5065080000000 1.0
C      1  0.4650720000000  0.5495240000000  0.5439430000000 1.0
C      1  0.4783700000000  0.5507640000000  0.4513640000000 1.0
C      1  0.4706500000000  0.4781940000000  0.4985310000000 1.0
C      1  0.5158320000000  0.4796690000000  0.4742460000000 1.0
C      1  0.5139540000000  0.4787630000000  0.5251910000000 1.0
C      1  0.5007740000000  0.4622580000000  0.4990710000000 1.0
END
