TITL C-862503-991-1007 0.000324020691778906 125000 -650.132700987478 0 0 113 (C1) n - 1
REM
REM in /home/nfs/bkarasulu/CARBON/AIRSS/Generating-Clusters/TERSOFF/Higher-Symm/FIRE-HFTN
REM
REM
REM
REM
REM
REM ./C.cell (b20cbc046b6831c77cfcea5457e17084)
REM AIRSS Version 0.9.1 bugfix July 2018 build 013d7b7c2542+ Fri, 06 Jul 2018 19:26:36 +0100
REM compiler GCC version 9.2.1 20190827 (Red Hat 9.2.1-1)
REM options -cpp -mtune=generic -march=x86-64 -g -O0 -fpre-include=/usr/include/finclude/math-vector-fortran.h
REM seed -693045596 -307377521 825881179 -862611696 2026146157 10391983 -1717970706 -1597831907 -1068249887 -1414473034 1937742818 -117099355 -1178270379 1786897850 424559292 -984569415 -1633991358 200542643 -390520734 496415562 1830991696 1822827495 -338869862 -2045708385 1126777903 1531750090 -1136837253 -1822942681 578461368 1087976943 -534139824 -1163882131 468934943
REM
CELL 1.54180   50.00000   50.00000   50.00000   90.00000   90.00000   90.00000
LATT -1
SFAC C  
C      1  0.5290030000000  0.5556960000000  0.4828970000000 1.0
C      1  0.4725490000000  0.5539170000000  0.4834070000000 1.0
C      1  0.5000520000000  0.5506050000000  0.5281480000000 1.0
C      1  0.4609600000000  0.5171460000000  0.5174130000000 1.0
C      1  0.5325440000000  0.5154440000000  0.5226640000000 1.0
C      1  0.5031940000000  0.5177300000000  0.4612940000000 1.0
C      1  0.5184360000000  0.5287110000000  0.4853650000000 1.0
C      1  0.4768270000000  0.5268730000000  0.4934310000000 1.0
C      1  0.5026620000000  0.5214720000000  0.5151560000000 1.0
C      1  0.5546040000000  0.5379010000000  0.5185460000000 1.0
C      1  0.4882660000000  0.5378480000000  0.4430520000000 1.0
C      1  0.4548190000000  0.5379590000000  0.5387880000000 1.0
C      1  0.5423310000000  0.5281500000000  0.4127970000000 1.0
C      1  0.4028610000000  0.5278710000000  0.5052690000000 1.0
C      1  0.5523860000000  0.5266450000000  0.5795010000000 1.0
C      1  0.5798430000000  0.4988010000000  0.4366820000000 1.0
C      1  0.4057620000000  0.4959660000000  0.4614120000000 1.0
C      1  0.5127840000000  0.4959690000000  0.5976550000000 1.0
C      1  0.5767360000000  0.4778960000000  0.5470720000000 1.0
C      1  0.5040290000000  0.4784640000000  0.4118680000000 1.0
C      1  0.4177950000000  0.4787400000000  0.5423020000000 1.0
C      1  0.4838950000000  0.4271990000000  0.5478200000000 1.0
C      1  0.5498550000000  0.4281590000000  0.4827800000000 1.0
C      1  0.4667950000000  0.4268330000000  0.4693420000000 1.0
C      1  0.4468300000000  0.5156540000000  0.4265290000000 1.0
C      1  0.4617970000000  0.5155920000000  0.5811700000000 1.0
C      1  0.5905620000000  0.5177120000000  0.4903810000000 1.0
C      1  0.5345390000000  0.4130100000000  0.5228020000000 1.0
C      1  0.5054830000000  0.4136860000000  0.4600660000000 1.0
C      1  0.4516090000000  0.4155270000000  0.5236410000000 1.0
C      1  0.5871040000000  0.5080170000000  0.5438930000000 1.0
C      1  0.4945720000000  0.5074450000000  0.4028960000000 1.0
C      1  0.4159360000000  0.5089520000000  0.5532060000000 1.0
C      1  0.4728420000000  0.4683170000000  0.5783380000000 1.0
C      1  0.5822160000000  0.4701400000000  0.4804520000000 1.0
C      1  0.4448050000000  0.4681780000000  0.4389520000000 1.0
C      1  0.4407800000000  0.5249780000000  0.5610380000000 1.0
C      1  0.5810320000000  0.5245310000000  0.5190370000000 1.0
C      1  0.4759070000000  0.5236680000000  0.4203390000000 1.0
C      1  0.4798400000000  0.4071400000000  0.5222470000000 1.0
C      1  0.5282020000000  0.4093700000000  0.4952670000000 1.0
C      1  0.4926720000000  0.4100870000000  0.4887000000000 1.0
C      1  0.5393420000000  0.4472470000000  0.4623780000000 1.0
C      1  0.4489470000000  0.4458580000000  0.4858220000000 1.0
C      1  0.5085160000000  0.4447720000000  0.5492830000000 1.0
C      1  0.4223280000000  0.4500780000000  0.4748870000000 1.0
C      1  0.5158490000000  0.4507300000000  0.5768100000000 1.0
C      1  0.5592160000000  0.4542800000000  0.4425830000000 1.0
C      1  0.5572890000000  0.5592730000000  0.4894230000000 1.0
C      1  0.4617680000000  0.5576510000000  0.4566200000000 1.0
C      1  0.4825940000000  0.5552720000000  0.5514130000000 1.0
C      1  0.5569490000000  0.5861460000000  0.5040990000000 1.0
C      1  0.4731580000000  0.5849110000000  0.4487780000000 1.0
C      1  0.4714240000000  0.5832690000000  0.5463000000000 1.0
C      1  0.4408640000000  0.5590540000000  0.5194570000000 1.0
C      1  0.5457800000000  0.5582410000000  0.5408080000000 1.0
C      1  0.5113750000000  0.5587930000000  0.4384890000000 1.0
C      1  0.4630890000000  0.4653930000000  0.5271310000000 1.0
C      1  0.5390170000000  0.4635340000000  0.5159990000000 1.0
C      1  0.4954550000000  0.4650830000000  0.4585550000000 1.0
C      1  0.4734130000000  0.4666860000000  0.4808100000000 1.0
C      1  0.4935020000000  0.4659280000000  0.5308660000000 1.0
C      1  0.5314460000000  0.4672260000000  0.4858380000000 1.0
C      1  0.5403520000000  0.4996780000000  0.5836030000000 1.0
C      1  0.5529820000000  0.5015360000000  0.4209470000000 1.0
C      1  0.4041270000000  0.5004320000000  0.4927390000000 1.0
C      1  0.3982720000000  0.5254540000000  0.5349040000000 1.0
C      1  0.5803110000000  0.5240860000000  0.5686890000000 1.0
C      1  0.5184120000000  0.5243560000000  0.3950120000000 1.0
C      1  0.5639750000000  0.5525160000000  0.4571490000000 1.0
C      1  0.4315960000000  0.5501020000000  0.4650730000000 1.0
C      1  0.5036810000000  0.5488730000000  0.5743950000000 1.0
C      1  0.4254150000000  0.5219730000000  0.4511410000000 1.0
C      1  0.4941880000000  0.5211770000000  0.5861240000000 1.0
C      1  0.5793230000000  0.5242590000000  0.4592190000000 1.0
C      1  0.5030770000000  0.5844460000000  0.4515010000000 1.0
C      1  0.4585940000000  0.5838780000000  0.5191310000000 1.0
C      1  0.5375230000000  0.5838500000000  0.5270610000000 1.0
C      1  0.5490030000000  0.5135230000000  0.4609510000000 1.0
C      1  0.4415500000000  0.5111450000000  0.4770340000000 1.0
C      1  0.5077090000000  0.5102330000000  0.5585670000000 1.0
C      1  0.5716190000000  0.4944910000000  0.4907780000000 1.0
C      1  0.4579400000000  0.4930970000000  0.4428450000000 1.0
C      1  0.4699210000000  0.4926730000000  0.5638120000000 1.0
C      1  0.5402220000000  0.4989770000000  0.4849090000000 1.0
C      1  0.4679800000000  0.4982340000000  0.4731340000000 1.0
C      1  0.4907110000000  0.4966550000000  0.5388290000000 1.0
C      1  0.5737700000000  0.4466690000000  0.4972380000000 1.0
C      1  0.4644220000000  0.4452220000000  0.4384750000000 1.0
C      1  0.4608870000000  0.4449740000000  0.5637320000000 1.0
C      1  0.5112990000000  0.5813680000000  0.4808730000000 1.0
C      1  0.4805350000000  0.5789320000000  0.4982120000000 1.0
C      1  0.5101550000000  0.5760410000000  0.5152900000000 1.0
C      1  0.4878180000000  0.4509020000000  0.4179460000000 1.0
C      1  0.4311500000000  0.4512300000000  0.5542730000000 1.0
C      1  0.5794330000000  0.4510540000000  0.5281440000000 1.0
C      1  0.4179650000000  0.4683700000000  0.4533330000000 1.0
C      1  0.4997940000000  0.4685050000000  0.5925010000000 1.0
C      1  0.5813210000000  0.4711030000000  0.4499710000000 1.0
C      1  0.4228550000000  0.5492840000000  0.4961510000000 1.0
C      1  0.5348100000000  0.5483660000000  0.5674090000000 1.0
C      1  0.5403860000000  0.5499780000000  0.4342000000000 1.0
C      1  0.5385720000000  0.4878210000000  0.5327310000000 1.0
C      1  0.5104300000000  0.4898250000000  0.4517740000000 1.0
C      1  0.4496000000000  0.4896660000000  0.5172020000000 1.0
C      1  0.5300490000000  0.4837400000000  0.4288550000000 1.0
C      1  0.4206380000000  0.4830890000000  0.5106930000000 1.0
C      1  0.5479430000000  0.4818490000000  0.5608130000000 1.0
C      1  0.5126320000000  0.4405020000000  0.4529710000000 1.0
C      1  0.4491560000000  0.4422840000000  0.5144420000000 1.0
C      1  0.5311690000000  0.4394150000000  0.5322180000000 1.0
C      1  0.5009250000000  0.4930760000000  0.4982910000000 1.0
C      1  0.4999380000000  0.4636870000000  0.5006190000000 1.0
END
