TITL C-862130-1496-63 0.0188998074833859 125000 -387.049369275435 0 0 69 (D3h) n - 1
REM
REM in /home/nfs/bkarasulu/CARBON/AIRSS/Generating-Clusters/TERSOFF/Higher-Symm/FIRE-HFTN
REM
REM
REM
REM
REM
REM ./C.cell (b20cbc046b6831c77cfcea5457e17084)
REM AIRSS Version 0.9.1 bugfix July 2018 build 013d7b7c2542+ Fri, 06 Jul 2018 19:26:36 +0100
REM compiler GCC version 9.2.1 20190827 (Red Hat 9.2.1-1)
REM options -cpp -mtune=generic -march=x86-64 -g -O0 -fpre-include=/usr/include/finclude/math-vector-fortran.h
REM seed -1183335276 1965385337 -1978937912 -250842848 1813269968 -1585728944 -1060876767 -1608405372 -1004003035 1445937685 733377215 -1247545987 -1176174840 -1699312984 -1781291883 -1969872539 -1143399582 1490967821 -1262273049 218984365 1069468055 -2108095159 1365080502 -1062091257 2020498376 -1667775074 1242604259 896269558 1594414067 -961915265 557899482 1548655680 -27062476
REM
CELL 1.54180   50.00000   50.00000   50.00000   90.00000   90.00000   90.00000
LATT -1
SFAC C  
C      1  0.5644820000000  0.5642440000000  0.4965120000000 1.0
C      1  0.5644820000000  0.4648570000000  0.4461070000000 1.0
C      1  0.5644820000000  0.4708980000000  0.5573810000000 1.0
C      1  0.4370610000000  0.5642440000000  0.4965120000000 1.0
C      1  0.4370610000000  0.4648570000000  0.4461070000000 1.0
C      1  0.4370610000000  0.4708980000000  0.5573810000000 1.0
C      1  0.5644820000000  0.4357560000000  0.4965120000000 1.0
C      1  0.5644820000000  0.5351430000000  0.4461070000000 1.0
C      1  0.5644820000000  0.5291020000000  0.5573810000000 1.0
C      1  0.4370610000000  0.4357560000000  0.4965120000000 1.0
C      1  0.4370610000000  0.5351430000000  0.4461070000000 1.0
C      1  0.4370610000000  0.5291020000000  0.5573810000000 1.0
C      1  0.5435450000000  0.4452740000000  0.4392920000000 1.0
C      1  0.5435450000000  0.4747890000000  0.5777480000000 1.0
C      1  0.5435450000000  0.5799370000000  0.4829600000000 1.0
C      1  0.4579980000000  0.4452740000000  0.4392920000000 1.0
C      1  0.4579980000000  0.4747890000000  0.5777480000000 1.0
C      1  0.4579980000000  0.5799370000000  0.4829600000000 1.0
C      1  0.5435450000000  0.5547260000000  0.4392920000000 1.0
C      1  0.5435450000000  0.5252110000000  0.5777480000000 1.0
C      1  0.5435450000000  0.4200630000000  0.4829600000000 1.0
C      1  0.4579980000000  0.5547260000000  0.4392920000000 1.0
C      1  0.4579980000000  0.5252110000000  0.5777480000000 1.0
C      1  0.4579980000000  0.4200630000000  0.4829600000000 1.0
C      1  0.4865870000000  0.5275710000000  0.5470730000000 1.0
C      1  0.4865870000000  0.5269810000000  0.4525870000000 1.0
C      1  0.4865870000000  0.4454490000000  0.5003410000000 1.0
C      1  0.5149560000000  0.5275710000000  0.5470730000000 1.0
C      1  0.5149560000000  0.5269810000000  0.4525870000000 1.0
C      1  0.5149560000000  0.4454490000000  0.5003410000000 1.0
C      1  0.4865870000000  0.4724290000000  0.5470730000000 1.0
C      1  0.4865870000000  0.4730190000000  0.4525870000000 1.0
C      1  0.4865870000000  0.5545510000000  0.5003410000000 1.0
C      1  0.5149560000000  0.4724290000000  0.5470730000000 1.0
C      1  0.5149560000000  0.4730190000000  0.4525870000000 1.0
C      1  0.5149560000000  0.5545510000000  0.5003410000000 1.0
C      1  0.4379890000000  0.4656190000000  0.4996230000000 1.0
C      1  0.4379890000000  0.5168650000000  0.5299630000000 1.0
C      1  0.4379890000000  0.5175170000000  0.4704130000000 1.0
C      1  0.5635550000000  0.4656190000000  0.4996230000000 1.0
C      1  0.5635550000000  0.5168650000000  0.5299630000000 1.0
C      1  0.5635550000000  0.5175170000000  0.4704130000000 1.0
C      1  0.4379890000000  0.5343810000000  0.4996230000000 1.0
C      1  0.4379890000000  0.4831350000000  0.5299630000000 1.0
C      1  0.4379890000000  0.4824830000000  0.4704130000000 1.0
C      1  0.5635550000000  0.5343810000000  0.4996230000000 1.0
C      1  0.5635550000000  0.4831350000000  0.5299630000000 1.0
C      1  0.5635550000000  0.4824830000000  0.4704130000000 1.0
C      1  0.5312190000000  0.5304880000000  0.5001050000000 1.0
C      1  0.5312190000000  0.4848470000000  0.4735440000000 1.0
C      1  0.5312190000000  0.4846650000000  0.5263510000000 1.0
C      1  0.4703240000000  0.5304880000000  0.5001050000000 1.0
C      1  0.4703240000000  0.4848470000000  0.4735440000000 1.0
C      1  0.4703240000000  0.4846650000000  0.5263510000000 1.0
C      1  0.5312190000000  0.4695120000000  0.5001050000000 1.0
C      1  0.5312190000000  0.5151530000000  0.4735440000000 1.0
C      1  0.5312190000000  0.5153350000000  0.5263510000000 1.0
C      1  0.4703240000000  0.4695120000000  0.5001050000000 1.0
C      1  0.4703240000000  0.5151530000000  0.4735440000000 1.0
C      1  0.4703240000000  0.5153350000000  0.5263510000000 1.0
C      1  0.4730630000000  0.5708940000000  0.4590690000000 1.0
C      1  0.5284800000000  0.4291060000000  0.4590690000000 1.0
C      1  0.5284800000000  0.5708940000000  0.4590690000000 1.0
C      1  0.4730630000000  0.4291060000000  0.4590690000000 1.0
C      1  0.4730630000000  0.5000000000000  0.5818620000000 1.0
C      1  0.5284800000000  0.5000000000000  0.5818620000000 1.0
C      1  0.5007720000000  0.5820850000000  0.4526080000000 1.0
C      1  0.5007720000000  0.4179150000000  0.4526080000000 1.0
C      1  0.5007720000000  0.5000000000000  0.5947840000000 1.0
END
