TITL C-862501-1041-481 3.65236903616444 125000 -638.317004183379 0 0 109 (C1) n - 1
REM
REM in /home/nfs/bkarasulu/CARBON/AIRSS/Generating-Clusters/TERSOFF/Higher-Symm/FIRE-HFTN
REM
REM
REM
REM
REM
REM ./C.cell (b20cbc046b6831c77cfcea5457e17084)
REM AIRSS Version 0.9.1 bugfix July 2018 build 013d7b7c2542+ Fri, 06 Jul 2018 19:26:36 +0100
REM compiler GCC version 9.2.1 20190827 (Red Hat 9.2.1-1)
REM options -cpp -mtune=generic -march=x86-64 -g -O0 -fpre-include=/usr/include/finclude/math-vector-fortran.h
REM seed 963338037 -972954780 -752822743 -1045647161 769811238 -1988836560 967875754 678139861 1124518341 1107695317 1195917440 2143942686 342922761 -38274037 1834276737 1499352785 -1288522706 -2061817081 -240271633 -1909174261 -1949842383 1615391482 -267848238 1395571529 -368613070 1899313943 399518089 -831599143 -2016253129 -473899921 1467994296 -1548337549 1638507474
REM
CELL 1.54180   50.00000   50.00000   50.00000   90.00000   90.00000   90.00000
LATT -1
SFAC C  
C      1  0.4948690000000  0.5210630000000  0.5143740000000 1.0
C      1  0.5487630000000  0.5502300000000  0.5586790000000 1.0
C      1  0.4136040000000  0.4795800000000  0.4600540000000 1.0
C      1  0.4659380000000  0.5776040000000  0.4733630000000 1.0
C      1  0.4880450000000  0.4093090000000  0.5387600000000 1.0
C      1  0.5006210000000  0.5380390000000  0.5375470000000 1.0
C      1  0.4824230000000  0.4235570000000  0.4418370000000 1.0
C      1  0.5882290000000  0.5448960000000  0.5068460000000 1.0
C      1  0.4203590000000  0.5204070000000  0.5743240000000 1.0
C      1  0.4741260000000  0.4410870000000  0.5149450000000 1.0
C      1  0.4979310000000  0.3964880000000  0.4852910000000 1.0
C      1  0.5170350000000  0.5800640000000  0.4539190000000 1.0
C      1  0.4763590000000  0.4512770000000  0.5709150000000 1.0
C      1  0.5474150000000  0.3954080000000  0.4801870000000 1.0
C      1  0.6026450000000  0.5206640000000  0.4998380000000 1.0
C      1  0.5755120000000  0.5500910000000  0.4585810000000 1.0
C      1  0.4538410000000  0.5742880000000  0.5212780000000 1.0
C      1  0.4395010000000  0.4642720000000  0.5337390000000 1.0
C      1  0.4673310000000  0.5188430000000  0.5084900000000 1.0
C      1  0.4990270000000  0.4776740000000  0.4907090000000 1.0
C      1  0.4123560000000  0.4832340000000  0.4894100000000 1.0
C      1  0.4745270000000  0.5851770000000  0.5023980000000 1.0
C      1  0.4848730000000  0.3983240000000  0.4582850000000 1.0
C      1  0.4147580000000  0.5472380000000  0.5567670000000 1.0
C      1  0.5661030000000  0.4709070000000  0.4523730000000 1.0
C      1  0.4815980000000  0.3946300000000  0.5100640000000 1.0
C      1  0.6015430000000  0.4504820000000  0.5648960000000 1.0
C      1  0.5306860000000  0.4408150000000  0.4425090000000 1.0
C      1  0.4857290000000  0.5647620000000  0.5897410000000 1.0
C      1  0.4587560000000  0.5203280000000  0.4808800000000 1.0
C      1  0.5508140000000  0.5795450000000  0.4953930000000 1.0
C      1  0.4430020000000  0.5169790000000  0.4420940000000 1.0
C      1  0.5276340000000  0.5408890000000  0.4773960000000 1.0
C      1  0.4840000000000  0.5757260000000  0.5631180000000 1.0
C      1  0.5023430000000  0.6122320000000  0.5341340000000 1.0
C      1  0.4578630000000  0.4397640000000  0.4434530000000 1.0
C      1  0.5776300000000  0.5500450000000  0.5568320000000 1.0
C      1  0.5346630000000  0.4983600000000  0.4568210000000 1.0
C      1  0.5130310000000  0.5016720000000  0.5008550000000 1.0
C      1  0.4990750000000  0.4516240000000  0.5031840000000 1.0
C      1  0.5639560000000  0.4328010000000  0.4897440000000 1.0
C      1  0.5923970000000  0.5569430000000  0.5330070000000 1.0
C      1  0.5343020000000  0.5252970000000  0.5660620000000 1.0
C      1  0.5001630000000  0.5464650000000  0.4813230000000 1.0
C      1  0.4931480000000  0.5624750000000  0.5036740000000 1.0
C      1  0.5928030000000  0.4713020000000  0.5033360000000 1.0
C      1  0.4612260000000  0.4155480000000  0.5070610000000 1.0
C      1  0.4865090000000  0.6105670000000  0.5101360000000 1.0
C      1  0.4616900000000  0.4767810000000  0.5843830000000 1.0
C      1  0.5770860000000  0.4971290000000  0.4630780000000 1.0
C      1  0.5492260000000  0.4455750000000  0.5162960000000 1.0
C      1  0.4357060000000  0.4724090000000  0.5039730000000 1.0
C      1  0.4441830000000  0.4156660000000  0.4841290000000 1.0
C      1  0.5664480000000  0.4863070000000  0.5666350000000 1.0
C      1  0.4831780000000  0.5264270000000  0.4344790000000 1.0
C      1  0.4464340000000  0.4396300000000  0.4690670000000 1.0
C      1  0.4533830000000  0.4619810000000  0.4849970000000 1.0
C      1  0.5707140000000  0.5575830000000  0.4867480000000 1.0
C      1  0.4754800000000  0.5788260000000  0.4227190000000 1.0
C      1  0.4794280000000  0.5326670000000  0.4640640000000 1.0
C      1  0.5063630000000  0.5281940000000  0.5647490000000 1.0
C      1  0.5506770000000  0.5870850000000  0.5235530000000 1.0
C      1  0.4552640000000  0.4662370000000  0.4300490000000 1.0
C      1  0.5774160000000  0.4469600000000  0.4669730000000 1.0
C      1  0.5534590000000  0.4230310000000  0.4381750000000 1.0
C      1  0.4547460000000  0.5351570000000  0.5525370000000 1.0
C      1  0.4859230000000  0.5788230000000  0.4499320000000 1.0
C      1  0.4529660000000  0.5133830000000  0.5327540000000 1.0
C      1  0.4978920000000  0.4376720000000  0.5494050000000 1.0
C      1  0.4285020000000  0.5384720000000  0.4571940000000 1.0
C      1  0.4032750000000  0.5176060000000  0.5247250000000 1.0
C      1  0.5745440000000  0.5223130000000  0.4476640000000 1.0
C      1  0.4739270000000  0.4728740000000  0.4084500000000 1.0
C      1  0.4621270000000  0.4865870000000  0.5416420000000 1.0
C      1  0.5406940000000  0.5403790000000  0.4306050000000 1.0
C      1  0.5078680000000  0.5885790000000  0.5506130000000 1.0
C      1  0.4117410000000  0.5462470000000  0.5260770000000 1.0
C      1  0.3966600000000  0.5041770000000  0.5006550000000 1.0
C      1  0.5342250000000  0.5557180000000  0.4534530000000 1.0
C      1  0.4068420000000  0.5034120000000  0.5500160000000 1.0
C      1  0.5355850000000  0.4674240000000  0.4571210000000 1.0
C      1  0.5614500000000  0.4020500000000  0.4561160000000 1.0
C      1  0.5228670000000  0.4534730000000  0.5395150000000 1.0
C      1  0.4903800000000  0.4878310000000  0.5558100000000 1.0
C      1  0.4402870000000  0.5578640000000  0.4772380000000 1.0
C      1  0.5311640000000  0.5134210000000  0.4319220000000 1.0
C      1  0.5235430000000  0.4351810000000  0.5017230000000 1.0
C      1  0.5187890000000  0.4812170000000  0.5477790000000 1.0
C      1  0.4607910000000  0.4173790000000  0.5516150000000 1.0
C      1  0.5312900000000  0.5934460000000  0.4766970000000 1.0
C      1  0.5415250000000  0.4981210000000  0.5581470000000 1.0
C      1  0.4192160000000  0.4755170000000  0.5527760000000 1.0
C      1  0.4400020000000  0.4338310000000  0.5383260000000 1.0
C      1  0.5009980000000  0.4831400000000  0.4123960000000 1.0
C      1  0.4364700000000  0.4878160000000  0.4430090000000 1.0
C      1  0.5047980000000  0.5095710000000  0.4228450000000 1.0
C      1  0.5323620000000  0.5128220000000  0.4815850000000 1.0
C      1  0.5260710000000  0.4658340000000  0.4091150000000 1.0
C      1  0.4318180000000  0.5601120000000  0.5076800000000 1.0
C      1  0.4338260000000  0.4869710000000  0.5776600000000 1.0
C      1  0.4631000000000  0.5627240000000  0.5463950000000 1.0
C      1  0.5056160000000  0.4350950000000  0.4291310000000 1.0
C      1  0.5808590000000  0.4662610000000  0.5519560000000 1.0
C      1  0.5233010000000  0.4087290000000  0.4890990000000 1.0
C      1  0.5744350000000  0.4620180000000  0.5240040000000 1.0
C      1  0.5550360000000  0.4715790000000  0.4201380000000 1.0
C      1  0.5345990000000  0.5739320000000  0.5443870000000 1.0
C      1  0.4922750000000  0.5371400000000  0.5883410000000 1.0
C      1  0.5904190000000  0.4966420000000  0.4890660000000 1.0
END
