TITL C-862128-1543-679 0.00263807944148885 125000 -491.666328466825 0 0 91 (C5) n - 1
REM
REM in /home/nfs/bkarasulu/CARBON/AIRSS/Generating-Clusters/TERSOFF/Higher-Symm/FIRE-HFTN
REM
REM
REM
REM
REM
REM ./C.cell (b20cbc046b6831c77cfcea5457e17084)
REM AIRSS Version 0.9.1 bugfix July 2018 build 013d7b7c2542+ Fri, 06 Jul 2018 19:26:36 +0100
REM compiler GCC version 9.2.1 20190827 (Red Hat 9.2.1-1)
REM options -cpp -mtune=generic -march=x86-64 -g -O0 -fpre-include=/usr/include/finclude/math-vector-fortran.h
REM seed -1972088965 -426148860 734241827 1646567481 -1962401865 -1905370118 -603221111 -320987587 -639461649 -532676211 197015664 -1778410254 548286419 920428661 1839775280 119176064 2051334613 -663017499 1263966776 -979458229 -981099531 1812083538 -529202395 -935248900 517415368 -912815919 2016565304 1794517283 -1976906243 -1334221007 -1540373 2058532661 -1822747232
REM
CELL 1.54180   50.00000   50.00000   50.00000   90.00000   90.00000   90.00000
LATT -1
SFAC C  
C      1  0.4976850000000  0.5898940000000  0.5252110000000 1.0
C      1  0.5233360000000  0.5898940000000  0.5097310000000 1.0
C      1  0.5165410000000  0.5898940000000  0.4805520000000 1.0
C      1  0.4866900000000  0.5898940000000  0.4779980000000 1.0
C      1  0.4750360000000  0.5898940000000  0.5055990000000 1.0
C      1  0.5632760000000  0.5449670000000  0.4851020000000 1.0
C      1  0.5054590000000  0.5449670000000  0.4349560000000 1.0
C      1  0.4399010000000  0.5449670000000  0.4744470000000 1.0
C      1  0.4572000000000  0.5449670000000  0.5490000000000 1.0
C      1  0.5334510000000  0.5449670000000  0.5555860000000 1.0
C      1  0.4562100000000  0.5091260000000  0.4888930000000 1.0
C      1  0.4759790000000  0.5091260000000  0.5379530000000 1.0
C      1  0.5287470000000  0.5091260000000  0.5343120000000 1.0
C      1  0.5415900000000  0.5091260000000  0.4830020000000 1.0
C      1  0.4967600000000  0.5091260000000  0.4549310000000 1.0
C      1  0.5039140000000  0.4622810000000  0.4221260000000 1.0
C      1  0.4272220000000  0.4622810000000  0.4719520000000 1.0
C      1  0.4509090000000  0.4622810000000  0.5602880000000 1.0
C      1  0.5422420000000  0.4622810000000  0.5650570000000 1.0
C      1  0.5750000000000  0.4622810000000  0.4796680000000 1.0
C      1  0.4940800000000  0.4490550000000  0.5687150000000 1.0
C      1  0.5635970000000  0.4490550000000  0.5266030000000 1.0
C      1  0.5450280000000  0.4490550000000  0.4474750000000 1.0
C      1  0.4640340000000  0.4490550000000  0.4406830000000 1.0
C      1  0.4325470000000  0.4490540000000  0.5156140000000 1.0
C      1  0.4453710000000  0.5057640000000  0.5385580000000 1.0
C      1  0.5198640000000  0.5057640000000  0.5636090000000 1.0
C      1  0.5667080000000  0.5057640000000  0.5005040000000 1.0
C      1  0.5211670000000  0.5057640000000  0.4364510000000 1.0
C      1  0.4461770000000  0.5057640000000  0.4599700000000 1.0
C      1  0.5070690000000  0.4296110000000  0.4721770000000 1.0
C      1  0.4757970000000  0.4296110000000  0.4844170000000 1.0
C      1  0.4777750000000  0.4296110000000  0.5179410000000 1.0
C      1  0.5102700000000  0.4296110000000  0.5264200000000 1.0
C      1  0.5283750000000  0.4296110000000  0.4981360000000 1.0
C      1  0.5281170000000  0.4801720000000  0.4248970000000 1.0
C      1  0.4373360000000  0.4801710000000  0.4497900000000 1.0
C      1  0.4329580000000  0.4801710000000  0.5438200000000 1.0
C      1  0.5210320000000  0.4801710000000  0.5770410000000 1.0
C      1  0.5798440000000  0.4801720000000  0.5035430000000 1.0
C      1  0.4071840000000  0.5062780000000  0.4909980000000 1.0
C      1  0.4628310000000  0.5062780000000  0.5852300000000 1.0
C      1  0.5696470000000  0.5062780000000  0.5614260000000 1.0
C      1  0.5800160000000  0.5062780000000  0.4524820000000 1.0
C      1  0.4796080000000  0.5062780000000  0.4089550000000 1.0
C      1  0.5239350000000  0.4839230000000  0.5138680000000 1.0
C      1  0.5206600000000  0.4839230000000  0.4812610000000 1.0
C      1  0.4886370000000  0.4839230000000  0.4742990000000 1.0
C      1  0.4721200000000  0.4839230000000  0.5026040000000 1.0
C      1  0.4939350000000  0.4839230000000  0.5270590000000 1.0
C      1  0.5277290000000  0.5666630000000  0.4666000000000 1.0
C      1  0.4768780000000  0.5666630000000  0.4630460000000 1.0
C      1  0.4577840000000  0.5666630000000  0.5103100000000 1.0
C      1  0.4968340000000  0.5666630000000  0.5430740000000 1.0
C      1  0.5400620000000  0.5666630000000  0.5160610000000 1.0
C      1  0.4784210000000  0.5252360000000  0.4317270000000 1.0
C      1  0.4284750000000  0.5252360000000  0.4991640000000 1.0
C      1  0.4771770000000  0.5252360000000  0.5675050000000 1.0
C      1  0.5572230000000  0.5252360000000  0.5423050000000 1.0
C      1  0.5579920000000  0.5252360000000  0.4583900000000 1.0
C      1  0.4951460000000  0.4682480000000  0.5899030000000 1.0
C      1  0.5840770000000  0.4682480000000  0.5321370000000 1.0
C      1  0.5566200000000  0.4682480000000  0.4297070000000 1.0
C      1  0.4507190000000  0.4682480000000  0.4241690000000 1.0
C      1  0.4127260000000  0.4682480000000  0.5231750000000 1.0
C      1  0.4998980000000  0.4560520000000  0.5416550000000 1.0
C      1  0.5396590000000  0.4560520000000  0.5127080000000 1.0
C      1  0.5244150000000  0.4560520000000  0.4659470000000 1.0
C      1  0.4752330000000  0.4560520000000  0.4659960000000 1.0
C      1  0.4600810000000  0.4560520000000  0.5127850000000 1.0
C      1  0.4599920000000  0.4346210000000  0.5488900000000 1.0
C      1  0.5342090000000  0.4346210000000  0.5528960000000 1.0
C      1  0.5609530000000  0.4346210000000  0.4835500000000 1.0
C      1  0.5032650000000  0.4346210000000  0.4366860000000 1.0
C      1  0.4408680000000  0.4346210000000  0.4770680000000 1.0
C      1  0.4105400000000  0.4775700000000  0.4940190000000 1.0
C      1  0.4667420000000  0.4775700000000  0.5829720000000 1.0
C      1  0.5687080000000  0.4775700000000  0.5570090000000 1.0
C      1  0.5755250000000  0.4775700000000  0.4520100000000 1.0
C      1  0.4777720000000  0.4775700000000  0.4130800000000 1.0
C      1  0.5385140000000  0.5306370000000  0.4344620000000 1.0
C      1  0.4496460000000  0.5306370000000  0.4428570000000 1.0
C      1  0.4301680000000  0.5306370000000  0.5299710000000 1.0
C      1  0.5069990000000  0.5306370000000  0.5754140000000 1.0
C      1  0.5739600000000  0.5306370000000  0.5163870000000 1.0
C      1  0.5082990000000  0.5389330000000  0.5342890000000 1.0
C      1  0.5352490000000  0.5389330000000  0.5024420000000 1.0
C      1  0.5132890000000  0.5389330000000  0.4669690000000 1.0
C      1  0.4727670000000  0.5389330000000  0.4768930000000 1.0
C      1  0.4696820000000  0.5389330000000  0.5184980000000 1.0
C      1  0.4998570000000  0.5374650000000  0.4998180000000 1.0
END
