TITL C-862506-1665-763 15.8060376109262 125000 -341.228759992657 0 0 61 (C1) n - 1
REM
REM in /home/nfs/bkarasulu/CARBON/AIRSS/Generating-Clusters/TERSOFF/Higher-Symm/FIRE-HFTN
REM
REM
REM
REM
REM
REM ./C.cell (b20cbc046b6831c77cfcea5457e17084)
REM AIRSS Version 0.9.1 bugfix July 2018 build 013d7b7c2542+ Fri, 06 Jul 2018 19:26:36 +0100
REM compiler GCC version 9.2.1 20190827 (Red Hat 9.2.1-1)
REM options -cpp -mtune=generic -march=x86-64 -g -O0 -fpre-include=/usr/include/finclude/math-vector-fortran.h
REM seed 1085358559 -1903254379 1934585848 1429835697 -1364124939 -975868054 1558971114 446248723 -209788522 -2136111204 -1097799089 -1084916406 -1804472407 1387572142 -498771891 2034300099 1665703530 -1339885990 1500358195 514385210 1581705867 372290073 -1521839687 486581103 -1197583755 -754010887 -632600953 -1802461726 328515313 -1070696977 1413033813 325491499 373665325
REM
CELL 1.54180   50.00000   50.00000   50.00000   90.00000   90.00000   90.00000
LATT -1
SFAC C  
C      1  0.5240440000000  0.4949000000000  0.5315230000000 1.0
C      1  0.5261060000000  0.4758370000000  0.4781990000000 1.0
C      1  0.5261140000000  0.5306530000000  0.4879890000000 1.0
C      1  0.4571930000000  0.5142290000000  0.4648380000000 1.0
C      1  0.4522140000000  0.5205620000000  0.5262160000000 1.0
C      1  0.4422920000000  0.4648170000000  0.5089610000000 1.0
C      1  0.5055590000000  0.5708100000000  0.4581400000000 1.0
C      1  0.5069110000000  0.5024850000000  0.5842860000000 1.0
C      1  0.5046840000000  0.4249720000000  0.4564360000000 1.0
C      1  0.4691000000000  0.4692530000000  0.4994980000000 1.0
C      1  0.4827360000000  0.5102340000000  0.4766620000000 1.0
C      1  0.4798390000000  0.5102810000000  0.5236700000000 1.0
C      1  0.5130020000000  0.5435770000000  0.5111930000000 1.0
C      1  0.5099270000000  0.4686900000000  0.5290980000000 1.0
C      1  0.5131800000000  0.4885820000000  0.4541720000000 1.0
C      1  0.5329580000000  0.4919350000000  0.4321670000000 1.0
C      1  0.5312800000000  0.5624670000000  0.5248870000000 1.0
C      1  0.5283720000000  0.4463390000000  0.5377710000000 1.0
C      1  0.4840890000000  0.5507750000000  0.5119140000000 1.0
C      1  0.4825210000000  0.4638080000000  0.5389170000000 1.0
C      1  0.4851320000000  0.4835300000000  0.4443530000000 1.0
C      1  0.4388470000000  0.5409440000000  0.4915290000000 1.0
C      1  0.4395020000000  0.4882590000000  0.5498530000000 1.0
C      1  0.4408900000000  0.4712780000000  0.4675060000000 1.0
C      1  0.5520090000000  0.4933850000000  0.5186170000000 1.0
C      1  0.5536770000000  0.4880100000000  0.4840140000000 1.0
C      1  0.5534260000000  0.5196950000000  0.4964100000000 1.0
C      1  0.5125130000000  0.5382420000000  0.5562800000000 1.0
C      1  0.5134870000000  0.4317240000000  0.5006890000000 1.0
C      1  0.5143940000000  0.5298200000000  0.4382470000000 1.0
C      1  0.4344940000000  0.4997680000000  0.4750980000000 1.0
C      1  0.4283460000000  0.5125660000000  0.5048740000000 1.0
C      1  0.4284930000000  0.4860570000000  0.5229390000000 1.0
C      1  0.4718400000000  0.5554230000000  0.5389530000000 1.0
C      1  0.4689140000000  0.4387880000000  0.5283940000000 1.0
C      1  0.4731180000000  0.5056580000000  0.4269550000000 1.0
C      1  0.5329870000000  0.4205830000000  0.4652250000000 1.0
C      1  0.5338180000000  0.5651280000000  0.4500450000000 1.0
C      1  0.5347120000000  0.5126830000000  0.5811150000000 1.0
C      1  0.5413880000000  0.4199190000000  0.4955140000000 1.0
C      1  0.5420550000000  0.5409530000000  0.4323540000000 1.0
C      1  0.5408250000000  0.5395850000000  0.5673740000000 1.0
C      1  0.5506210000000  0.4391270000000  0.5200380000000 1.0
C      1  0.5541640000000  0.5118780000000  0.4359580000000 1.0
C      1  0.5530680000000  0.5504930000000  0.5405570000000 1.0
C      1  0.5659020000000  0.4643580000000  0.5164880000000 1.0
C      1  0.5683430000000  0.5034630000000  0.4605170000000 1.0
C      1  0.5677150000000  0.5332590000000  0.5213190000000 1.0
C      1  0.4681260000000  0.4846590000000  0.5547770000000 1.0
C      1  0.4681670000000  0.4627870000000  0.4580580000000 1.0
C      1  0.4677740000000  0.5479360000000  0.4875460000000 1.0
C      1  0.4717590000000  0.4273510000000  0.4992490000000 1.0
C      1  0.4732630000000  0.5363790000000  0.4330430000000 1.0
C      1  0.4710890000000  0.5357650000000  0.5625550000000 1.0
C      1  0.4826060000000  0.5505360000000  0.4593830000000 1.0
C      1  0.4835710000000  0.5078940000000  0.5654320000000 1.0
C      1  0.4826850000000  0.4394750000000  0.4722220000000 1.0
C      1  0.5069050000000  0.5212110000000  0.5325920000000 1.0
C      1  0.5105740000000  0.4604760000000  0.4994220000000 1.0
C      1  0.5090830000000  0.5182460000000  0.4651760000000 1.0
C      1  0.4822810000000  0.4944590000000  0.5002100000000 1.0
END
