TITL C-862501-1041-998 4.43493738732737e-05 125000 -41.3154974675992 0 0 8 (D2d) n - 1
REM
REM in /home/nfs/bkarasulu/CARBON/AIRSS/Generating-Clusters/TERSOFF/Higher-Symm/FIRE-HFTN
REM
REM
REM
REM
REM
REM ./C.cell (b20cbc046b6831c77cfcea5457e17084)
REM AIRSS Version 0.9.1 bugfix July 2018 build 013d7b7c2542+ Fri, 06 Jul 2018 19:26:36 +0100
REM compiler GCC version 9.2.1 20190827 (Red Hat 9.2.1-1)
REM options -cpp -mtune=generic -march=x86-64 -g -O0 -fpre-include=/usr/include/finclude/math-vector-fortran.h
REM seed -1898458462 903797915 -335249529 -481459424 1501087764 969960806 815996007 -208027280 -792653400 -45284454 1543711830 -2051824949 1388515894 -1768433824 -40087941 228528407 -1779374352 1629401162 -1801054743 431437651 -634658889 -1097582924 1574588445 87278714 -1355185635 -1798929668 914170537 607755218 -301331885 -1116258862 -133182123 -1871468620 -762380196
REM
CELL 1.54180   50.00000   50.00000   50.00000   90.00000   90.00000   90.00000
LATT -1
SFAC C  
C      1  0.4691310000000  0.4883750000000  0.4903770000000 1.0
C      1  0.4903770000000  0.5116250000000  0.5308690000000 1.0
C      1  0.5308690000000  0.4883750000000  0.5096230000000 1.0
C      1  0.5096230000000  0.5116250000000  0.4691310000000 1.0
C      1  0.4679610000000  0.4996660000000  0.5170020000000 1.0
C      1  0.5170020000000  0.5003340000000  0.5320390000000 1.0
C      1  0.5320390000000  0.4996660000000  0.4829980000000 1.0
C      1  0.4829980000000  0.5003340000000  0.4679610000000 1.0
END
