TITL C-862129-6180-1473 -0.0322976941669265 125000 -760.651779026392 0 0 141 (C3) n - 1
REM
REM in /home/nfs/bkarasulu/CARBON/AIRSS/Generating-Clusters/TERSOFF/Higher-Symm/FIRE-HFTN
REM
REM
REM
REM
REM
REM ./C.cell (b20cbc046b6831c77cfcea5457e17084)
REM AIRSS Version 0.9.1 bugfix July 2018 build 013d7b7c2542+ Fri, 06 Jul 2018 19:26:36 +0100
REM compiler GCC version 9.2.1 20190827 (Red Hat 9.2.1-1)
REM options -cpp -mtune=generic -march=x86-64 -g -O0 -fpre-include=/usr/include/finclude/math-vector-fortran.h
REM seed 481798632 1663644584 -1972330753 -1962847812 879349164 -928082921 1278425166 2064425580 -1502988800 -771659111 1941358319 1046543688 831929846 451727429 998304063 -2046191140 9787786 1425694163 11969291 -500004965 -32272080 1813347195 -1430461984 -16944492 2011836284 -237983253 1082948337 769860675 -1847292842 1979999419 -119076928 790079118 -750378426
REM
CELL 1.54180   50.00000   50.00000   50.00000   90.00000   90.00000   90.00000
LATT -1
SFAC C  
C      1  0.5661290000000  0.5370490000000  0.4385380000000 1.0
C      1  0.4990210000000  0.4242060000000  0.4385380000000 1.0
C      1  0.4348500000000  0.5387450000000  0.4385380000000 1.0
C      1  0.5026340000000  0.5946240000000  0.5113210000000 1.0
C      1  0.5806300000000  0.4504070000000  0.5113210000000 1.0
C      1  0.4167360000000  0.4549690000000  0.5113220000000 1.0
C      1  0.5100740000000  0.5825280000000  0.4858460000000 1.0
C      1  0.5664340000000  0.4500110000000  0.4858460000000 1.0
C      1  0.4234910000000  0.4674610000000  0.4858460000000 1.0
C      1  0.4714140000000  0.5966800000000  0.5174790000000 1.0
C      1  0.5980200000000  0.4764160000000  0.5174790000000 1.0
C      1  0.4305660000000  0.4269040000000  0.5174790000000 1.0
C      1  0.4250170000000  0.5639230000000  0.5175730000000 1.0
C      1  0.5928500000000  0.5329750000000  0.5175730000000 1.0
C      1  0.4821320000000  0.4031020000000  0.5175740000000 1.0
C      1  0.4937650000000  0.5362900000000  0.3948220000000 1.0
C      1  0.5345450000000  0.4872540000000  0.3948220000000 1.0
C      1  0.4716890000000  0.4764560000000  0.3948220000000 1.0
C      1  0.5272780000000  0.5248730000000  0.4614640000000 1.0
C      1  0.5079020000000  0.4639400000000  0.4614640000000 1.0
C      1  0.4648200000000  0.5111870000000  0.4614640000000 1.0
C      1  0.4370690000000  0.4509710000000  0.4283430000000 1.0
C      1  0.4890050000000  0.5790140000000  0.4283430000000 1.0
C      1  0.5739260000000  0.4700150000000  0.4283430000000 1.0
C      1  0.4894040000000  0.4098070000000  0.5448020000000 1.0
C      1  0.4271880000000  0.5542740000000  0.5448020000000 1.0
C      1  0.5834080000000  0.5359200000000  0.5448020000000 1.0
C      1  0.4123510000000  0.5596950000000  0.4733910000000 1.0
C      1  0.5955220000000  0.5460590000000  0.4733910000000 1.0
C      1  0.4921270000000  0.3942460000000  0.4733910000000 1.0
C      1  0.4617010000000  0.5285440000000  0.5467670000000 1.0
C      1  0.5438700000000  0.5188960000000  0.5467670000000 1.0
C      1  0.4944300000000  0.4525600000000  0.5467670000000 1.0
C      1  0.4801120000000  0.5213250000000  0.5709710000000 1.0
C      1  0.5284120000000  0.5065610000000  0.5709710000000 1.0
C      1  0.4914760000000  0.4721140000000  0.5709710000000 1.0
C      1  0.5278710000000  0.5350720000000  0.5115910000000 1.0
C      1  0.5164380000000  0.4583270000000  0.5115910000000 1.0
C      1  0.4556910000000  0.5066010000000  0.5115910000000 1.0
C      1  0.5164240000000  0.5129710000000  0.6043910000000 1.0
C      1  0.5030220000000  0.4792910000000  0.6043910000000 1.0
C      1  0.4805550000000  0.5077380000000  0.6043910000000 1.0
C      1  0.4584890000000  0.4635480000000  0.4467020000000 1.0
C      1  0.4891870000000  0.5541750000000  0.4467020000000 1.0
C      1  0.5523230000000  0.4822770000000  0.4467020000000 1.0
C      1  0.5751810000000  0.4414600000000  0.4204990000000 1.0
C      1  0.4117130000000  0.4641610000000  0.4204990000000 1.0
C      1  0.5131060000000  0.5943780000000  0.4204990000000 1.0
C      1  0.5396920000000  0.5150890000000  0.4017260000000 1.0
C      1  0.4932220000000  0.4580800000000  0.4017260000000 1.0
C      1  0.4670860000000  0.5268300000000  0.4017260000000 1.0
C      1  0.4697030000000  0.4539980000000  0.5292750000000 1.0
C      1  0.4753090000000  0.5492390000000  0.5292750000000 1.0
C      1  0.5549880000000  0.4967630000000  0.5292750000000 1.0
C      1  0.5206300000000  0.5446670000000  0.4385230000000 1.0
C      1  0.5283680000000  0.4598000000000  0.4385240000000 1.0
C      1  0.4510020000000  0.4955330000000  0.4385240000000 1.0
C      1  0.4567110000000  0.4846220000000  0.5362270000000 1.0
C      1  0.5083260000000  0.5451790000000  0.5362270000000 1.0
C      1  0.5349630000000  0.4702000000000  0.5362270000000 1.0
C      1  0.5437990000000  0.5568560000000  0.5784010000000 1.0
C      1  0.5273390000000  0.4336410000000  0.5784010000000 1.0
C      1  0.4288610000000  0.5095030000000  0.5784010000000 1.0
C      1  0.4542270000000  0.4946200000000  0.5904230000000 1.0
C      1  0.5182270000000  0.5423310000000  0.5904230000000 1.0
C      1  0.5275460000000  0.4630500000000  0.5904230000000 1.0
C      1  0.4147910000000  0.4947000000000  0.4822720000000 1.0
C      1  0.5380150000000  0.5764430000000  0.4822720000000 1.0
C      1  0.5471940000000  0.4288570000000  0.4822720000000 1.0
C      1  0.4442440000000  0.5846730000000  0.5029290000000 1.0
C      1  0.6012070000000  0.5059490000000  0.5029290000000 1.0
C      1  0.4545490000000  0.4093770000000  0.5029290000000 1.0
C      1  0.4690960000000  0.5515710000000  0.4963270000000 1.0
C      1  0.5601130000000  0.5009780000000  0.4963270000000 1.0
C      1  0.4707910000000  0.4474510000000  0.4963280000000 1.0
C      1  0.4902980000000  0.4827630000000  0.5068760000000 1.0
C      1  0.4899230000000  0.5170210000000  0.5068760000000 1.0
C      1  0.5197790000000  0.5002160000000  0.5068760000000 1.0
C      1  0.4575060000000  0.5460610000000  0.4627020000000 1.0
C      1  0.5611370000000  0.5137700000000  0.4627020000000 1.0
C      1  0.4813570000000  0.4401690000000  0.4627020000000 1.0
C      1  0.4110540000000  0.4752760000000  0.5346500000000 1.0
C      1  0.5230610000000  0.5893910000000  0.5346500000000 1.0
C      1  0.5658840000000  0.4353330000000  0.5346500000000 1.0
C      1  0.4738940000000  0.4497110000000  0.5832800000000 1.0
C      1  0.4695020000000  0.5477530000000  0.5832800000000 1.0
C      1  0.5566040000000  0.5025360000000  0.5832800000000 1.0
C      1  0.5187720000000  0.4686830000000  0.4110600000000 1.0
C      1  0.4634930000000  0.4994010000000  0.4110600000000 1.0
C      1  0.5177350000000  0.5319150000000  0.4110600000000 1.0
C      1  0.5297490000000  0.4299560000000  0.4400440000000 1.0
C      1  0.4244660000000  0.5092590000000  0.4400440000000 1.0
C      1  0.5457850000000  0.5607850000000  0.4400440000000 1.0
C      1  0.4516640000000  0.4655100000000  0.4781560000000 1.0
C      1  0.4942990000000  0.5591050000000  0.4781550000000 1.0
C      1  0.5540370000000  0.4753850000000  0.4781560000000 1.0
C      1  0.5218070000000  0.4795080000000  0.5636540000000 1.0
C      1  0.4713500000000  0.4913610000000  0.5636540000000 1.0
C      1  0.5068430000000  0.5291320000000  0.5636540000000 1.0
C      1  0.5542310000000  0.4217960000000  0.4261510000000 1.0
C      1  0.4051580000000  0.4921370000000  0.4261510000000 1.0
C      1  0.5406110000000  0.5860670000000  0.4261510000000 1.0
C      1  0.4876380000000  0.4314890000000  0.4122860000000 1.0
C      1  0.4468490000000  0.5449620000000  0.4122860000000 1.0
C      1  0.5655140000000  0.5235490000000  0.4122860000000 1.0
C      1  0.5096720000000  0.5343590000000  0.4849080000000 1.0
C      1  0.5249200000000  0.4744440000000  0.4849080000000 1.0
C      1  0.4654080000000  0.4911970000000  0.4849080000000 1.0
C      1  0.4316550000000  0.4785980000000  0.5589430000000 1.0
C      1  0.5156380000000  0.5698890000000  0.5589430000000 1.0
C      1  0.5527070000000  0.4515130000000  0.5589430000000 1.0
C      1  0.4107150000000  0.5075210000000  0.5321570000000 1.0
C      1  0.5511560000000  0.5735630000000  0.5321570000000 1.0
C      1  0.5381290000000  0.4189160000000  0.5321570000000 1.0
C      1  0.4901360000000  0.4813310000000  0.4424210000000 1.0
C      1  0.4887640000000  0.5178770000000  0.4424210000000 1.0
C      1  0.5211000000000  0.5007920000000  0.4424210000000 1.0
C      1  0.4306000000000  0.5241960000000  0.5495940000000 1.0
C      1  0.5556540000000  0.5480040000000  0.5495940000000 1.0
C      1  0.5137460000000  0.4278000000000  0.5495940000000 1.0
C      1  0.5815640000000  0.5539830000000  0.4990100000000 1.0
C      1  0.5059690000000  0.4023720000000  0.4990100000000 1.0
C      1  0.4124670000000  0.5436450000000  0.4990100000000 1.0
C      1  0.5684410000000  0.4743310000000  0.5758740000000 1.0
C      1  0.4435490000000  0.4535630000000  0.5758740000000 1.0
C      1  0.4880100000000  0.5721070000000  0.5758740000000 1.0
C      1  0.4295760000000  0.5165750000000  0.4946080000000 1.0
C      1  0.5495670000000  0.5527010000000  0.4946080000000 1.0
C      1  0.5208570000000  0.4307230000000  0.4946080000000 1.0
C      1  0.4668680000000  0.4117080000000  0.4731080000000 1.0
C      1  0.4401030000000  0.5728390000000  0.4731070000000 1.0
C      1  0.5930290000000  0.5154530000000  0.4731070000000 1.0
C      1  0.5738720000000  0.5808460000000  0.5140290000000 1.0
C      1  0.5330790000000  0.3956020000000  0.5140290000000 1.0
C      1  0.3930490000000  0.5235520000000  0.5140290000000 1.0
C      1  0.5816850000000  0.4886310000000  0.5386720000000 1.0
C      1  0.4493120000000  0.4349440000000  0.5386720000000 1.0
C      1  0.4690040000000  0.5764260000000  0.5386720000000 1.0
C      1  0.4950790000000  0.4279940000000  0.5872140000000 1.0
C      1  0.4401020000000  0.5402650000000  0.5872140000000 1.0
C      1  0.5648200000000  0.5317410000000  0.5872140000000 1.0
END
