TITL C-862503-991-661 38239.5630727162 125000 -912.69869167187 0 0 160 (C1) n - 1
REM
REM in /home/nfs/bkarasulu/CARBON/AIRSS/Generating-Clusters/TERSOFF/Higher-Symm/FIRE-HFTN
REM
REM
REM
REM
REM
REM ./C.cell (b20cbc046b6831c77cfcea5457e17084)
REM AIRSS Version 0.9.1 bugfix July 2018 build 013d7b7c2542+ Fri, 06 Jul 2018 19:26:36 +0100
REM compiler GCC version 9.2.1 20190827 (Red Hat 9.2.1-1)
REM options -cpp -mtune=generic -march=x86-64 -g -O0 -fpre-include=/usr/include/finclude/math-vector-fortran.h
REM seed -1514932104 305138067 1585109659 -1890031881 362716995 233804230 392990044 104954909 1383204568 -1876320076 1830588466 -1483016091 -165043153 99796370 -690605960 -76155109 1731061910 -1186796405 1047280861 1481015462 -1984505700 -1524874166 214501799 -1673580284 7457877 -1717195836 792806609 -258454696 1447256950 -100258844 1227031689 1110802054 826933244
REM
CELL 1.54180   50.00000   50.00000   50.00000   90.00000   90.00000   90.00000
LATT -1
SFAC C  
C      1  0.6061150000000  0.5665110000000  0.4920460000000 1.0
C      1  0.4944260000000  0.5557100000000  0.5145320000000 1.0
C      1  0.4830410000000  0.4799380000000  0.4159600000000 1.0
C      1  0.4088790000000  0.5182650000000  0.5551510000000 1.0
C      1  0.5729790000000  0.4187430000000  0.5576630000000 1.0
C      1  0.5581350000000  0.5269420000000  0.4480000000000 1.0
C      1  0.4473320000000  0.4378170000000  0.5025760000000 1.0
C      1  0.5031110000000  0.5753210000000  0.3936410000000 1.0
C      1  0.5747590000000  0.5676300000000  0.5856820000000 1.0
C      1  0.4345780000000  0.4596270000000  0.5634440000000 1.0
C      1  0.4551380000000  0.5206490000000  0.5781570000000 1.0
C      1  0.3966860000000  0.5622030000000  0.4559960000000 1.0
C      1  0.4059940000000  0.4687340000000  0.5462680000000 1.0
C      1  0.6129790000000  0.5227190000000  0.5188000000000 1.0
C      1  0.5337490000000  0.4124650000000  0.5072680000000 1.0
C      1  0.4891210000000  0.5249500000000  0.5155400000000 1.0
C      1  0.5858880000000  0.5128590000000  0.5293390000000 1.0
C      1  0.5970170000000  0.5013390000000  0.4381560000000 1.0
C      1  0.4162700000000  0.5785750000000  0.5116620000000 1.0
C      1  0.5864470000000  0.4816600000000  0.4860450000000 1.0
C      1  0.5628130000000  0.4510790000000  0.4332980000000 1.0
C      1  0.4138040000000  0.5962380000000  0.4736450000000 1.0
C      1  0.5054900000000  0.5191060000000  0.5398790000000 1.0
C      1  0.4968630000000  0.4801600000000  0.4434470000000 1.0
C      1  0.4192130000000  0.5696420000000  0.4380860000000 1.0
C      1  0.4611950000000  0.4948000000000  0.5916320000000 1.0
C      1  0.4940830000000  0.6185850000000  0.4934430000000 1.0
C      1  0.4318110000000  0.5952860000000  0.4480240000000 1.0
C      1  0.4698050000000  0.5458790000000  0.5894420000000 1.0
C      1  0.5237220000000  0.4343330000000  0.5251990000000 1.0
C      1  0.4802130000000  0.4747200000000  0.5038450000000 1.0
C      1  0.5117190000000  0.4404100000000  0.4719050000000 1.0
C      1  0.6108460000000  0.4583940000000  0.5110720000000 1.0
C      1  0.4991250000000  0.5074240000000  0.4526350000000 1.0
C      1  0.5321790000000  0.4684010000000  0.3980530000000 1.0
C      1  0.5322810000000  0.5862710000000  0.5161180000000 1.0
C      1  0.4329040000000  0.5048070000000  0.4966020000000 1.0
C      1  0.5434890000000  0.4023450000000  0.4592810000000 1.0
C      1  0.5172670000000  0.5231900000000  0.4998290000000 1.0
C      1  0.5269490000000  0.5241890000000  0.4522210000000 1.0
C      1  0.4989190000000  0.5036000000000  0.4038990000000 1.0
C      1  0.4515350000000  0.5020690000000  0.4560220000000 1.0
C      1  0.5774920000000  0.4894660000000  0.5128860000000 1.0
C      1  0.4566460000000  0.5434460000000  0.4607180000000 1.0
C      1  0.4371740000000  0.5458000000000  0.4337840000000 1.0
C      1  0.4445410000000  0.3771470000000  0.5431580000000 1.0
C      1  0.5527240000000  0.4765170000000  0.5955670000000 1.0
C      1  0.5149760000000  0.6098980000000  0.4755780000000 1.0
C      1  0.4375940000000  0.5208070000000  0.5540520000000 1.0
C      1  0.4504870000000  0.5409270000000  0.5195230000000 1.0
C      1  0.4806230000000  0.4205900000000  0.4403020000000 1.0
C      1  0.4851350000000  0.4446130000000  0.5952650000000 1.0
C      1  0.5559460000000  0.4772750000000  0.4186510000000 1.0
C      1  0.5042530000000  0.4578670000000  0.4067810000000 1.0
C      1  0.4876810000000  0.5212570000000  0.3838400000000 1.0
C      1  0.5387600000000  0.4839120000000  0.5281110000000 1.0
C      1  0.5688140000000  0.5397790000000  0.5924060000000 1.0
C      1  0.5725710000000  0.5602170000000  0.5171080000000 1.0
C      1  0.4837040000000  0.5989430000000  0.4352850000000 1.0
C      1  0.5278790000000  0.4868360000000  0.5544010000000 1.0
C      1  0.4041300000000  0.5209910000000  0.4587270000000 1.0
C      1  0.4314740000000  0.4661260000000  0.4256910000000 1.0
C      1  0.5021060000000  0.4666680000000  0.6056560000000 1.0
C      1  0.5059780000000  0.4330590000000  0.4234040000000 1.0
C      1  0.5493570000000  0.5215810000000  0.4011240000000 1.0
C      1  0.4839370000000  0.5412010000000  0.6148200000000 1.0
C      1  0.5372850000000  0.4909770000000  0.4420910000000 1.0
C      1  0.5239280000000  0.5411130000000  0.5703960000000 1.0
C      1  0.4777940000000  0.3766200000000  0.4831620000000 1.0
C      1  0.6053650000000  0.4538780000000  0.5416650000000 1.0
C      1  0.5643080000000  0.5351590000000  0.5282550000000 1.0
C      1  0.5311950000000  0.4640820000000  0.6115550000000 1.0
C      1  0.5394790000000  0.5069010000000  0.5095840000000 1.0
C      1  0.4540810000000  0.3832850000000  0.4679680000000 1.0
C      1  0.4551830000000  0.4236830000000  0.5268870000000 1.0
C      1  0.4313820000000  0.5224950000000  0.4721980000000 1.0
C      1  0.5221590000000  0.4625480000000  0.4525970000000 1.0
C      1  0.5714690000000  0.4317190000000  0.5831420000000 1.0
C      1  0.4842540000000  0.4365560000000  0.4675800000000 1.0
C      1  0.4885340000000  0.3920300000000  0.4455960000000 1.0
C      1  0.5286790000000  0.5676060000000  0.4052530000000 1.0
C      1  0.4977320000000  0.5222050000000  0.5689000000000 1.0
C      1  0.5445860000000  0.5259200000000  0.5844750000000 1.0
C      1  0.5352230000000  0.4370560000000  0.4373000000000 1.0
C      1  0.5479760000000  0.5495010000000  0.3926960000000 1.0
C      1  0.4100210000000  0.4580780000000  0.4469970000000 1.0
C      1  0.3965790000000  0.4988750000000  0.5369700000000 1.0
C      1  0.3983900000000  0.5667320000000  0.4878500000000 1.0
C      1  0.5706920000000  0.4463700000000  0.5137170000000 1.0
C      1  0.4606200000000  0.3950440000000  0.5268330000000 1.0
C      1  0.6012040000000  0.4996060000000  0.4674900000000 1.0
C      1  0.4316370000000  0.5608930000000  0.5288870000000 1.0
C      1  0.4301770000000  0.4109100000000  0.4439150000000 1.0
C      1  0.5344940000000  0.5374800000000  0.5379350000000 1.0
C      1  0.5090620000000  0.3815970000000  0.5223190000000 1.0
C      1  0.4763470000000  0.5146390000000  0.4684000000000 1.0
C      1  0.5753400000000  0.4605130000000  0.5850340000000 1.0
C      1  0.5660540000000  0.5594480000000  0.3722140000000 1.0
C      1  0.4856770000000  0.4386890000000  0.5658230000000 1.0
C      1  0.5878320000000  0.4493540000000  0.4847910000000 1.0
C      1  0.5269050000000  0.4163790000000  0.4790350000000 1.0
C      1  0.5867260000000  0.4474620000000  0.4515950000000 1.0
C      1  0.4276770000000  0.3725740000000  0.4730270000000 1.0
C      1  0.3815060000000  0.5433840000000  0.5042590000000 1.0
C      1  0.5626970000000  0.4054700000000  0.5089200000000 1.0
C      1  0.4524100000000  0.4861650000000  0.4306110000000 1.0
C      1  0.5705140000000  0.5096720000000  0.4246170000000 1.0
C      1  0.5854370000000  0.4325280000000  0.5356460000000 1.0
C      1  0.5286220000000  0.6036180000000  0.5389120000000 1.0
C      1  0.5753570000000  0.5356120000000  0.4710020000000 1.0
C      1  0.5722080000000  0.4034160000000  0.4620360000000 1.0
C      1  0.4079390000000  0.4286450000000  0.4499340000000 1.0
C      1  0.5622890000000  0.5826070000000  0.5635830000000 1.0
C      1  0.4167450000000  0.6073200000000  0.5161230000000 1.0
C      1  0.5114480000000  0.4290550000000  0.5524960000000 1.0
C      1  0.4630190000000  0.5701740000000  0.4719210000000 1.0
C      1  0.5433150000000  0.4968320000000  0.5777750000000 1.0
C      1  0.4245730000000  0.4780870000000  0.4910710000000 1.0
C      1  0.4858920000000  0.4658320000000  0.5327680000000 1.0
C      1  0.4529060000000  0.4210420000000  0.4284990000000 1.0
C      1  0.5218540000000  0.5597410000000  0.5199750000000 1.0
C      1  0.4756040000000  0.5782370000000  0.5209550000000 1.0
C      1  0.5813650000000  0.4155900000000  0.4872090000000 1.0
C      1  0.4440940000000  0.4433590000000  0.4123820000000 1.0
C      1  0.4169890000000  0.5234930000000  0.4313870000000 1.0
C      1  0.4562780000000  0.5770810000000  0.4989750000000 1.0
C      1  0.4572850000000  0.4487130000000  0.6043560000000 1.0
C      1  0.5767700000000  0.5628800000000  0.4858650000000 1.0
C      1  0.4780830000000  0.5046800000000  0.4966390000000 1.0
C      1  0.3869020000000  0.5126530000000  0.5050630000000 1.0
C      1  0.4463790000000  0.4792550000000  0.5282880000000 1.0
C      1  0.5263670000000  0.5067280000000  0.4141960000000 1.0
C      1  0.4818820000000  0.5667820000000  0.5717850000000 1.0
C      1  0.4995150000000  0.4803040000000  0.5547720000000 1.0
C      1  0.4611140000000  0.5919690000000  0.4531880000000 1.0
C      1  0.5434700000000  0.4564960000000  0.5190910000000 1.0
C      1  0.4429390000000  0.4705140000000  0.5901250000000 1.0
C      1  0.5749060000000  0.5825360000000  0.5362850000000 1.0
C      1  0.5135820000000  0.5689450000000  0.5736130000000 1.0
C      1  0.4677920000000  0.4516040000000  0.4867220000000 1.0
C      1  0.4828800000000  0.5913840000000  0.4071370000000 1.0
C      1  0.4294790000000  0.4587000000000  0.5109170000000 1.0
C      1  0.5211150000000  0.5382490000000  0.4767310000000 1.0
C      1  0.5932560000000  0.4729380000000  0.5630900000000 1.0
C      1  0.6197700000000  0.5505250000000  0.5120560000000 1.0
C      1  0.4586470000000  0.4398550000000  0.5513560000000 1.0
C      1  0.5603850000000  0.5850680000000  0.4748990000000 1.0
C      1  0.4472150000000  0.5110820000000  0.5243640000000 1.0
C      1  0.3894050000000  0.5000780000000  0.4746070000000 1.0
C      1  0.4042000000000  0.4742880000000  0.4715900000000 1.0
C      1  0.4958710000000  0.5156830000000  0.6209470000000 1.0
C      1  0.4659850000000  0.5767240000000  0.5490560000000 1.0
C      1  0.5095770000000  0.6074770000000  0.4469540000000 1.0
C      1  0.5373680000000  0.5960460000000  0.4890030000000 1.0
C      1  0.4825320000000  0.3843950000000  0.5107440000000 1.0
C      1  0.5905470000000  0.5016060000000  0.5569530000000 1.0
C      1  0.4869900000000  0.4922800000000  0.6066140000000 1.0
C      1  0.4047900000000  0.4497890000000  0.5241460000000 1.0
C      1  0.5330520000000  0.5907830000000  0.5648920000000 1.0
C      1  0.4879860000000  0.6055480000000  0.5184290000000 1.0
END
