TITL C-862501-1041-335 0.000843932558844432 125000 -17.5390536990111 0 0 5 (Td) n - 1
REM
REM in /home/nfs/bkarasulu/CARBON/AIRSS/Generating-Clusters/TERSOFF/Higher-Symm/FIRE-HFTN
REM
REM
REM
REM
REM
REM ./C.cell (b20cbc046b6831c77cfcea5457e17084)
REM AIRSS Version 0.9.1 bugfix July 2018 build 013d7b7c2542+ Fri, 06 Jul 2018 19:26:36 +0100
REM compiler GCC version 9.2.1 20190827 (Red Hat 9.2.1-1)
REM options -cpp -mtune=generic -march=x86-64 -g -O0 -fpre-include=/usr/include/finclude/math-vector-fortran.h
REM seed -1545518807 -504842574 -1662099281 1452490840 1650392307 -1117090855 591428327 358410795 -1526693132 1025397351 -853074386 1739692750 -864036776 1598766359 -883435445 1162716779 1602649417 -1784361752 126282368 1351780096 -186964302 -385320179 -1412530116 -1593163013 -352943316 274489451 -1934488807 -183599142 -731708257 -1106838926 -1462431896 -83204335 1948645139
REM
CELL 1.54180   50.00000   50.00000   50.00000   90.00000   90.00000   90.00000
LATT -1
SFAC C  
C      1  0.4833450000000  0.5185060000000  0.5179140000000 1.0
C      1  0.5178500000000  0.4840000000000  0.5179140000000 1.0
C      1  0.5178500000000  0.5185060000000  0.4834090000000 1.0
C      1  0.4833450000000  0.4840000000000  0.4834090000000 1.0
C      1  0.5005970000000  0.5012530000000  0.5006620000000 1.0
END
