TITL C-862128-1543-653 -0.00448959556926537 125000 -764.264174649874 0 0 128 (C1) n - 1
REM
REM in /home/nfs/bkarasulu/CARBON/AIRSS/Generating-Clusters/TERSOFF/Higher-Symm/FIRE-HFTN
REM
REM
REM
REM
REM
REM ./C.cell (b20cbc046b6831c77cfcea5457e17084)
REM AIRSS Version 0.9.1 bugfix July 2018 build 013d7b7c2542+ Fri, 06 Jul 2018 19:26:36 +0100
REM compiler GCC version 9.2.1 20190827 (Red Hat 9.2.1-1)
REM options -cpp -mtune=generic -march=x86-64 -g -O0 -fpre-include=/usr/include/finclude/math-vector-fortran.h
REM seed -72832445 -301346905 1250001342 354462910 -50108250 2070091882 -766681524 -1369860473 1634098435 -875206788 -1929385959 2045810969 -802582933 -1276394072 1321384504 1087637792 970483503 -21501550 1938346430 -1475818131 1690266983 -124841657 1170974153 -181008549 -495186231 859904872 201140400 1098940125 1998651696 424128440 542701431 -1684648663 1073010529
REM
CELL 1.54180   50.00000   50.00000   50.00000   90.00000   90.00000   90.00000
LATT -1
SFAC C  
C      1  0.4671250000000  0.5730320000000  0.4432010000000 1.0
C      1  0.5746460000000  0.4430420000000  0.4662610000000 1.0
C      1  0.4436040000000  0.4678510000000  0.5745360000000 1.0
C      1  0.5319570000000  0.5728240000000  0.5570400000000 1.0
C      1  0.5330310000000  0.4246950000000  0.4431780000000 1.0
C      1  0.4692470000000  0.4280810000000  0.5558880000000 1.0
C      1  0.4283300000000  0.4449390000000  0.5316600000000 1.0
C      1  0.4244800000000  0.5569370000000  0.4664980000000 1.0
C      1  0.5722650000000  0.5549810000000  0.5319120000000 1.0
C      1  0.5561090000000  0.4663120000000  0.4248880000000 1.0
C      1  0.5555900000000  0.5308330000000  0.5733650000000 1.0
C      1  0.4436340000000  0.5312690000000  0.4273020000000 1.0
C      1  0.4685190000000  0.4280120000000  0.4440260000000 1.0
C      1  0.5751210000000  0.5563400000000  0.4669450000000 1.0
C      1  0.4433190000000  0.5331470000000  0.5732480000000 1.0
C      1  0.5334810000000  0.4235160000000  0.5564100000000 1.0
C      1  0.5325720000000  0.5730280000000  0.4441630000000 1.0
C      1  0.4666130000000  0.5748590000000  0.5560520000000 1.0
C      1  0.4261320000000  0.5566670000000  0.5315790000000 1.0
C      1  0.4257070000000  0.4436860000000  0.4665070000000 1.0
C      1  0.5722280000000  0.4432880000000  0.5308630000000 1.0
C      1  0.5555750000000  0.5308410000000  0.4279140000000 1.0
C      1  0.5565580000000  0.4656150000000  0.5737800000000 1.0
C      1  0.4429560000000  0.4668280000000  0.4243780000000 1.0
C      1  0.4191830000000  0.5796610000000  0.5143460000000 1.0
C      1  0.5786320000000  0.5141070000000  0.4202210000000 1.0
C      1  0.5156690000000  0.4204920000000  0.5798780000000 1.0
C      1  0.5772330000000  0.5796310000000  0.4852920000000 1.0
C      1  0.5798110000000  0.4203220000000  0.5139510000000 1.0
C      1  0.4233180000000  0.4204180000000  0.4849110000000 1.0
C      1  0.4204290000000  0.5155860000000  0.5798010000000 1.0
C      1  0.4195080000000  0.4847040000000  0.4216420000000 1.0
C      1  0.5799130000000  0.4838230000000  0.5766050000000 1.0
C      1  0.4851200000000  0.4201060000000  0.4209420000000 1.0
C      1  0.4841150000000  0.5801990000000  0.5794010000000 1.0
C      1  0.5152570000000  0.5789660000000  0.4208060000000 1.0
C      1  0.4210370000000  0.4217250000000  0.5148420000000 1.0
C      1  0.5794830000000  0.4842070000000  0.4212330000000 1.0
C      1  0.5139050000000  0.5759470000000  0.5804500000000 1.0
C      1  0.5784390000000  0.4195890000000  0.4840500000000 1.0
C      1  0.5794620000000  0.5782900000000  0.5152000000000 1.0
C      1  0.4220980000000  0.5805240000000  0.4844680000000 1.0
C      1  0.4198650000000  0.4856900000000  0.5766740000000 1.0
C      1  0.4205410000000  0.5145110000000  0.4198010000000 1.0
C      1  0.5787140000000  0.5136390000000  0.5800550000000 1.0
C      1  0.4852570000000  0.5762690000000  0.4198390000000 1.0
C      1  0.4857660000000  0.4206750000000  0.5791870000000 1.0
C      1  0.5150000000000  0.4212510000000  0.4198800000000 1.0
C      1  0.3962230000000  0.5146450000000  0.4716660000000 1.0
C      1  0.5142030000000  0.4716300000000  0.3961700000000 1.0
C      1  0.4868260000000  0.4053960000000  0.5142440000000 1.0
C      1  0.5944640000000  0.5136930000000  0.5129070000000 1.0
C      1  0.6033960000000  0.4849740000000  0.4714650000000 1.0
C      1  0.4054560000000  0.4858280000000  0.5125370000000 1.0
C      1  0.4856150000000  0.4728160000000  0.6031170000000 1.0
C      1  0.4853230000000  0.5131070000000  0.4052330000000 1.0
C      1  0.5137210000000  0.5128050000000  0.5958140000000 1.0
C      1  0.5276940000000  0.3957580000000  0.4849540000000 1.0
C      1  0.5205630000000  0.5992550000000  0.5150890000000 1.0
C      1  0.4787820000000  0.5998960000000  0.4847230000000 1.0
C      1  0.3966230000000  0.4854430000000  0.4714790000000 1.0
C      1  0.5142170000000  0.5125630000000  0.4055660000000 1.0
C      1  0.4786020000000  0.6003640000000  0.5137770000000 1.0
C      1  0.5943500000000  0.4847690000000  0.5124760000000 1.0
C      1  0.6036080000000  0.5141800000000  0.4719190000000 1.0
C      1  0.4047610000000  0.5147850000000  0.5127860000000 1.0
C      1  0.4847010000000  0.5141840000000  0.5959170000000 1.0
C      1  0.4850130000000  0.4721530000000  0.3959270000000 1.0
C      1  0.5147570000000  0.4713750000000  0.6026220000000 1.0
C      1  0.5207540000000  0.5992550000000  0.4860200000000 1.0
C      1  0.5276200000000  0.3954140000000  0.5141570000000 1.0
C      1  0.4868580000000  0.4055610000000  0.4853250000000 1.0
C      1  0.5229820000000  0.4205080000000  0.4699600000000 1.0
C      1  0.4294720000000  0.4712680000000  0.5202930000000 1.0
C      1  0.4700210000000  0.5200880000000  0.4290190000000 1.0
C      1  0.4805910000000  0.4294090000000  0.5295220000000 1.0
C      1  0.4777230000000  0.5747380000000  0.4699380000000 1.0
C      1  0.5212620000000  0.5743140000000  0.5302620000000 1.0
C      1  0.5788150000000  0.4697860000000  0.4764470000000 1.0
C      1  0.5706730000000  0.5287480000000  0.5203200000000 1.0
C      1  0.4204640000000  0.5302480000000  0.4770330000000 1.0
C      1  0.5290500000000  0.5198000000000  0.5719770000000 1.0
C      1  0.5293570000000  0.4764660000000  0.4207880000000 1.0
C      1  0.4701480000000  0.4786500000000  0.5789040000000 1.0
C      1  0.5217960000000  0.5743320000000  0.4708100000000 1.0
C      1  0.4282000000000  0.5303430000000  0.5203270000000 1.0
C      1  0.4696200000000  0.4772100000000  0.4203460000000 1.0
C      1  0.4774610000000  0.5756920000000  0.5293710000000 1.0
C      1  0.4799090000000  0.4294930000000  0.4702900000000 1.0
C      1  0.5231000000000  0.4198500000000  0.5297010000000 1.0
C      1  0.5792050000000  0.5295600000000  0.4771410000000 1.0
C      1  0.5705480000000  0.4696150000000  0.5196740000000 1.0
C      1  0.4212720000000  0.4704510000000  0.4766370000000 1.0
C      1  0.5298400000000  0.4759590000000  0.5779510000000 1.0
C      1  0.5292360000000  0.5196120000000  0.4294710000000 1.0
C      1  0.4699590000000  0.5224360000000  0.5721330000000 1.0
C      1  0.4442380000000  0.4863030000000  0.4839630000000 1.0
C      1  0.4851680000000  0.4837930000000  0.4437570000000 1.0
C      1  0.4759310000000  0.4537990000000  0.4856620000000 1.0
C      1  0.5463230000000  0.4848990000000  0.5243120000000 1.0
C      1  0.5558010000000  0.5139840000000  0.4836350000000 1.0
C      1  0.4526530000000  0.5155490000000  0.5249610000000 1.0
C      1  0.5142660000000  0.4838970000000  0.5549830000000 1.0
C      1  0.5137690000000  0.5242590000000  0.4536450000000 1.0
C      1  0.4854980000000  0.5273560000000  0.5482820000000 1.0
C      1  0.5171170000000  0.4435110000000  0.5143230000000 1.0
C      1  0.5205720000000  0.5499050000000  0.4862030000000 1.0
C      1  0.4783980000000  0.5509970000000  0.5143020000000 1.0
C      1  0.4439100000000  0.5148460000000  0.4839010000000 1.0
C      1  0.4852280000000  0.5246590000000  0.4533960000000 1.0
C      1  0.4785910000000  0.5505420000000  0.4857980000000 1.0
C      1  0.5464210000000  0.5133950000000  0.5245570000000 1.0
C      1  0.5556260000000  0.4854640000000  0.4833710000000 1.0
C      1  0.4532940000000  0.4871230000000  0.5249560000000 1.0
C      1  0.5137410000000  0.5253080000000  0.5480570000000 1.0
C      1  0.5136880000000  0.4833970000000  0.4439850000000 1.0
C      1  0.4857690000000  0.4860280000000  0.5557010000000 1.0
C      1  0.5203700000000  0.5499060000000  0.5146800000000 1.0
C      1  0.5166960000000  0.4437400000000  0.4858280000000 1.0
C      1  0.4764000000000  0.4537600000000  0.5141870000000 1.0
C      1  0.5581760000000  0.4404020000000  0.5572790000000 1.0
C      1  0.5582820000000  0.5572420000000  0.4419740000000 1.0
C      1  0.4411090000000  0.5576590000000  0.4413670000000 1.0
C      1  0.4429710000000  0.4425160000000  0.5580360000000 1.0
C      1  0.4421760000000  0.4421390000000  0.4412820000000 1.0
C      1  0.4406720000000  0.5593030000000  0.5580400000000 1.0
C      1  0.5579460000000  0.5572060000000  0.5584720000000 1.0
C      1  0.5578500000000  0.4414230000000  0.4414830000000 1.0
END
