TITL C-862130-1496-104 0.0287768238542663 125000 -640.118261349694 0 0 108 (C1) n - 1
REM
REM in /home/nfs/bkarasulu/CARBON/AIRSS/Generating-Clusters/TERSOFF/Higher-Symm/FIRE-HFTN
REM
REM
REM
REM
REM
REM ./C.cell (b20cbc046b6831c77cfcea5457e17084)
REM AIRSS Version 0.9.1 bugfix July 2018 build 013d7b7c2542+ Fri, 06 Jul 2018 19:26:36 +0100
REM compiler GCC version 9.2.1 20190827 (Red Hat 9.2.1-1)
REM options -cpp -mtune=generic -march=x86-64 -g -O0 -fpre-include=/usr/include/finclude/math-vector-fortran.h
REM seed 1572293476 1627494009 -366016931 1792368819 1183101477 -641557177 -338025466 -1368080249 -1724483234 -625080421 -1235495398 -504547804 1148568182 -896375330 759489206 1838681652 1803972092 -205922152 1699256161 -1728938715 1535875863 793030044 241065852 97296916 -1648650479 1243318002 -268227381 1675499298 1100228238 763183639 1777486913 131413009 2102009226
REM
CELL 1.54180   50.00000   50.00000   50.00000   90.00000   90.00000   90.00000
LATT -1
SFAC C  
C      1  0.4780400000000  0.5396800000000  0.5176950000000 1.0
C      1  0.4662230000000  0.4274390000000  0.5347760000000 1.0
C      1  0.5759160000000  0.4845480000000  0.4561300000000 1.0
C      1  0.4514050000000  0.4665680000000  0.5311320000000 1.0
C      1  0.5247640000000  0.5337880000000  0.5243910000000 1.0
C      1  0.5115330000000  0.5678060000000  0.5528210000000 1.0
C      1  0.4844630000000  0.5682390000000  0.5668490000000 1.0
C      1  0.4437530000000  0.4986610000000  0.4766930000000 1.0
C      1  0.5839040000000  0.5242280000000  0.4793930000000 1.0
C      1  0.4315030000000  0.4795710000000  0.5917600000000 1.0
C      1  0.5837070000000  0.5529280000000  0.4885980000000 1.0
C      1  0.4286530000000  0.4461520000000  0.5020710000000 1.0
C      1  0.4113880000000  0.4649670000000  0.5490090000000 1.0
C      1  0.4643880000000  0.5168870000000  0.4088260000000 1.0
C      1  0.4240960000000  0.5154830000000  0.5601370000000 1.0
C      1  0.4555710000000  0.5547990000000  0.5278450000000 1.0
C      1  0.4563560000000  0.4361960000000  0.4607870000000 1.0
C      1  0.5846320000000  0.4438570000000  0.5203100000000 1.0
C      1  0.4025040000000  0.5059860000000  0.4794170000000 1.0
C      1  0.4634670000000  0.5627570000000  0.4545330000000 1.0
C      1  0.5185870000000  0.5139050000000  0.4378170000000 1.0
C      1  0.4704680000000  0.4145310000000  0.4740720000000 1.0
C      1  0.5479870000000  0.5624830000000  0.4114330000000 1.0
C      1  0.4113020000000  0.4670720000000  0.5186870000000 1.0
C      1  0.5494830000000  0.4766010000000  0.4683470000000 1.0
C      1  0.4533790000000  0.5760310000000  0.5063150000000 1.0
C      1  0.4871160000000  0.5547330000000  0.4350910000000 1.0
C      1  0.4571650000000  0.5167520000000  0.4583460000000 1.0
C      1  0.4011400000000  0.5350560000000  0.5273180000000 1.0
C      1  0.5214030000000  0.4884270000000  0.5297120000000 1.0
C      1  0.5887860000000  0.4986350000000  0.4955670000000 1.0
C      1  0.4236430000000  0.5356150000000  0.5086790000000 1.0
C      1  0.5227320000000  0.5503760000000  0.4742330000000 1.0
C      1  0.5573080000000  0.4659790000000  0.5662660000000 1.0
C      1  0.4156510000000  0.4882420000000  0.5683360000000 1.0
C      1  0.4673040000000  0.4531220000000  0.4369400000000 1.0
C      1  0.5720620000000  0.5151400000000  0.4531710000000 1.0
C      1  0.3857050000000  0.5107090000000  0.5258320000000 1.0
C      1  0.5442400000000  0.4492450000000  0.4744930000000 1.0
C      1  0.5169710000000  0.4064360000000  0.4602630000000 1.0
C      1  0.5244200000000  0.5776680000000  0.4830770000000 1.0
C      1  0.4609220000000  0.4823390000000  0.5912580000000 1.0
C      1  0.5729820000000  0.4914710000000  0.5191830000000 1.0
C      1  0.4857900000000  0.5365090000000  0.4093240000000 1.0
C      1  0.4953840000000  0.4638420000000  0.4357280000000 1.0
C      1  0.5449540000000  0.5414070000000  0.5446900000000 1.0
C      1  0.4451370000000  0.4236940000000  0.5143350000000 1.0
C      1  0.5698190000000  0.4356190000000  0.4676670000000 1.0
C      1  0.5955550000000  0.4754130000000  0.4782470000000 1.0
C      1  0.5324740000000  0.4477050000000  0.5004410000000 1.0
C      1  0.4842020000000  0.5453530000000  0.4901560000000 1.0
C      1  0.4314160000000  0.4758390000000  0.4619310000000 1.0
C      1  0.5179900000000  0.4959380000000  0.3954620000000 1.0
C      1  0.5053320000000  0.4898330000000  0.4772380000000 1.0
C      1  0.4823920000000  0.5243280000000  0.4706130000000 1.0
C      1  0.5425610000000  0.5164130000000  0.4571580000000 1.0
C      1  0.4751270000000  0.4591150000000  0.5755380000000 1.0
C      1  0.5445160000000  0.4594350000000  0.4243760000000 1.0
C      1  0.5121040000000  0.5261600000000  0.3981930000000 1.0
C      1  0.4570630000000  0.4475450000000  0.5544530000000 1.0
C      1  0.4368190000000  0.5082290000000  0.5035290000000 1.0
C      1  0.5420600000000  0.5797800000000  0.5078460000000 1.0
C      1  0.4595210000000  0.5541330000000  0.5570760000000 1.0
C      1  0.5706820000000  0.5500000000000  0.5368550000000 1.0
C      1  0.4734410000000  0.5737200000000  0.4824410000000 1.0
C      1  0.5296410000000  0.5291670000000  0.4950130000000 1.0
C      1  0.3958260000000  0.4911380000000  0.5060820000000 1.0
C      1  0.5179860000000  0.4182240000000  0.4341500000000 1.0
C      1  0.5721990000000  0.4921200000000  0.5692730000000 1.0
C      1  0.5592310000000  0.5137120000000  0.5843530000000 1.0
C      1  0.5085350000000  0.4293380000000  0.5045980000000 1.0
C      1  0.4280990000000  0.4436060000000  0.5599960000000 1.0
C      1  0.5680670000000  0.5635560000000  0.5114930000000 1.0
C      1  0.5693140000000  0.4473210000000  0.4378460000000 1.0
C      1  0.4983070000000  0.5281910000000  0.5368640000000 1.0
C      1  0.4675200000000  0.4885530000000  0.5243300000000 1.0
C      1  0.5326000000000  0.5001040000000  0.4834790000000 1.0
C      1  0.5440950000000  0.4846030000000  0.4075400000000 1.0
C      1  0.4489700000000  0.5286170000000  0.5704460000000 1.0
C      1  0.5271700000000  0.4711150000000  0.5747780000000 1.0
C      1  0.5395960000000  0.5316230000000  0.5718880000000 1.0
C      1  0.5189670000000  0.4930730000000  0.5577640000000 1.0
C      1  0.5569720000000  0.5111840000000  0.4143580000000 1.0
C      1  0.5121030000000  0.5203960000000  0.5682940000000 1.0
C      1  0.5056080000000  0.4504890000000  0.5746520000000 1.0
C      1  0.5835590000000  0.5021520000000  0.5442610000000 1.0
C      1  0.4976320000000  0.5915620000000  0.4869660000000 1.0
C      1  0.4402780000000  0.5413650000000  0.4573540000000 1.0
C      1  0.4173190000000  0.5351570000000  0.4778660000000 1.0
C      1  0.4338570000000  0.4499890000000  0.4740550000000 1.0
C      1  0.4674650000000  0.5115880000000  0.5869900000000 1.0
C      1  0.5888670000000  0.4481030000000  0.4891900000000 1.0
C      1  0.5607080000000  0.4553990000000  0.5368430000000 1.0
C      1  0.4956270000000  0.4250590000000  0.5310620000000 1.0
C      1  0.4986010000000  0.4148150000000  0.4807780000000 1.0
C      1  0.4461460000000  0.4753090000000  0.4341850000000 1.0
C      1  0.5207810000000  0.5871600000000  0.5314670000000 1.0
C      1  0.5106600000000  0.4283410000000  0.5558880000000 1.0
C      1  0.5003630000000  0.6017530000000  0.5149320000000 1.0
C      1  0.5186480000000  0.4467050000000  0.4291930000000 1.0
C      1  0.4566730000000  0.5030100000000  0.4325960000000 1.0
C      1  0.5426280000000  0.4719110000000  0.5183960000000 1.0
C      1  0.5396970000000  0.5349320000000  0.4082530000000 1.0
C      1  0.5116710000000  0.5429400000000  0.4470180000000 1.0
C      1  0.5002860000000  0.4903390000000  0.4484880000000 1.0
C      1  0.4811240000000  0.5041990000000  0.5433640000000 1.0
C      1  0.4940270000000  0.5206350000000  0.5902310000000 1.0
C      1  0.5912180000000  0.5303280000000  0.5425210000000 1.0
END
