TITL C-862503-991-237 0.141683948319346 125000 -1105.40177919457 0 0 192 (C1) n - 1
REM
REM in /home/nfs/bkarasulu/CARBON/AIRSS/Generating-Clusters/TERSOFF/Higher-Symm/FIRE-HFTN
REM
REM
REM
REM
REM
REM ./C.cell (b20cbc046b6831c77cfcea5457e17084)
REM AIRSS Version 0.9.1 bugfix July 2018 build 013d7b7c2542+ Fri, 06 Jul 2018 19:26:36 +0100
REM compiler GCC version 9.2.1 20190827 (Red Hat 9.2.1-1)
REM options -cpp -mtune=generic -march=x86-64 -g -O0 -fpre-include=/usr/include/finclude/math-vector-fortran.h
REM seed 269016901 -1489806888 -93756004 1243746703 -470581251 1650398607 -1007436138 -397199025 -2086316318 -1303130399 1565996605 -222978121 -1254111224 521710336 2023725491 2069383623 -1105187346 138059852 -141195334 -1359261093 659575375 -1925094951 -41373167 -490178841 2069929042 489654696 -1599672975 -1464239608 1497996948 1043793167 2034226601 -276263165 827122610
REM
CELL 1.54180   50.00000   50.00000   50.00000   90.00000   90.00000   90.00000
LATT -1
SFAC C  
C      1  0.4963330000000  0.5525440000000  0.4711520000000 1.0
C      1  0.4965400000000  0.4454950000000  0.4692630000000 1.0
C      1  0.4395930000000  0.5420410000000  0.4934440000000 1.0
C      1  0.4386060000000  0.4543640000000  0.4913520000000 1.0
C      1  0.5806160000000  0.5899060000000  0.4636700000000 1.0
C      1  0.5804700000000  0.4064430000000  0.4637220000000 1.0
C      1  0.6026070000000  0.5331220000000  0.4724700000000 1.0
C      1  0.6027270000000  0.4621180000000  0.4716640000000 1.0
C      1  0.5368100000000  0.4056390000000  0.4365270000000 1.0
C      1  0.5372370000000  0.5913750000000  0.4361610000000 1.0
C      1  0.4281070000000  0.6241620000000  0.4990670000000 1.0
C      1  0.4288180000000  0.3721890000000  0.5017660000000 1.0
C      1  0.5019020000000  0.5455300000000  0.5016390000000 1.0
C      1  0.5017610000000  0.4531330000000  0.4989440000000 1.0
C      1  0.5647550000000  0.4170680000000  0.4405710000000 1.0
C      1  0.5648190000000  0.5790010000000  0.4407390000000 1.0
C      1  0.4429430000000  0.5481620000000  0.4392490000000 1.0
C      1  0.4415280000000  0.4453470000000  0.4378160000000 1.0
C      1  0.5588890000000  0.4725960000000  0.5720040000000 1.0
C      1  0.5593380000000  0.5228500000000  0.5728020000000 1.0
C      1  0.5836930000000  0.5292290000000  0.4475580000000 1.0
C      1  0.5835280000000  0.4664700000000  0.4472630000000 1.0
C      1  0.6038680000000  0.4662860000000  0.5459750000000 1.0
C      1  0.6040280000000  0.5295220000000  0.5472440000000 1.0
C      1  0.4808610000000  0.4696460000000  0.5143900000000 1.0
C      1  0.4815510000000  0.5280820000000  0.5167810000000 1.0
C      1  0.5198260000000  0.4409080000000  0.5240630000000 1.0
C      1  0.5205190000000  0.5562100000000  0.5271620000000 1.0
C      1  0.4760030000000  0.4010260000000  0.4371090000000 1.0
C      1  0.4755590000000  0.5949540000000  0.4363560000000 1.0
C      1  0.4888970000000  0.5239170000000  0.5449490000000 1.0
C      1  0.4886160000000  0.4722390000000  0.5426480000000 1.0
C      1  0.4979770000000  0.5681440000000  0.5768260000000 1.0
C      1  0.4967580000000  0.4327440000000  0.5784030000000 1.0
C      1  0.5179210000000  0.4487550000000  0.4457890000000 1.0
C      1  0.5177810000000  0.5491410000000  0.4472870000000 1.0
C      1  0.5207190000000  0.4764950000000  0.5900540000000 1.0
C      1  0.5209070000000  0.5265600000000  0.5963630000000 1.0
C      1  0.5318670000000  0.4424790000000  0.3904330000000 1.0
C      1  0.5312190000000  0.5533850000000  0.3917470000000 1.0
C      1  0.4398810000000  0.5226820000000  0.5371920000000 1.0
C      1  0.4385470000000  0.4740690000000  0.5345600000000 1.0
C      1  0.4930850000000  0.4059820000000  0.5662940000000 1.0
C      1  0.4937640000000  0.5946340000000  0.5642690000000 1.0
C      1  0.6097040000000  0.5448060000000  0.5229550000000 1.0
C      1  0.6096640000000  0.4512460000000  0.5217100000000 1.0
C      1  0.5510670000000  0.5391040000000  0.4087900000000 1.0
C      1  0.5502520000000  0.4564630000000  0.4092390000000 1.0
C      1  0.5233640000000  0.5570270000000  0.5873150000000 1.0
C      1  0.5223370000000  0.4448680000000  0.5870050000000 1.0
C      1  0.5495910000000  0.4380170000000  0.5227050000000 1.0
C      1  0.5502480000000  0.5599610000000  0.5245200000000 1.0
C      1  0.5385380000000  0.4400390000000  0.4665970000000 1.0
C      1  0.5383670000000  0.5584300000000  0.4674610000000 1.0
C      1  0.4221090000000  0.4163500000000  0.5327620000000 1.0
C      1  0.4228100000000  0.5818290000000  0.5317070000000 1.0
C      1  0.4858760000000  0.4649770000000  0.4054470000000 1.0
C      1  0.4852130000000  0.5277610000000  0.4061140000000 1.0
C      1  0.4758290000000  0.5784670000000  0.5133290000000 1.0
C      1  0.4753430000000  0.4199400000000  0.5142040000000 1.0
C      1  0.4252010000000  0.4547100000000  0.5737280000000 1.0
C      1  0.4267240000000  0.5443890000000  0.5719350000000 1.0
C      1  0.5376400000000  0.5864620000000  0.4786600000000 1.0
C      1  0.5376070000000  0.4121570000000  0.4789020000000 1.0
C      1  0.5463930000000  0.5369640000000  0.4839840000000 1.0
C      1  0.5468050000000  0.4619410000000  0.4827420000000 1.0
C      1  0.4112650000000  0.5776080000000  0.5050310000000 1.0
C      1  0.4112130000000  0.4186590000000  0.5056940000000 1.0
C      1  0.3990990000000  0.4539220000000  0.4684010000000 1.0
C      1  0.4004560000000  0.5394540000000  0.4695660000000 1.0
C      1  0.5720480000000  0.3972760000000  0.5156310000000 1.0
C      1  0.5723350000000  0.6011400000000  0.5149350000000 1.0
C      1  0.3892680000000  0.5245250000000  0.5390630000000 1.0
C      1  0.3880510000000  0.4744890000000  0.5409590000000 1.0
C      1  0.4475690000000  0.4099190000000  0.4406220000000 1.0
C      1  0.4478990000000  0.5838800000000  0.4404730000000 1.0
C      1  0.4515950000000  0.5767300000000  0.5388790000000 1.0
C      1  0.4505470000000  0.4223060000000  0.5402080000000 1.0
C      1  0.5639180000000  0.5981050000000  0.4867910000000 1.0
C      1  0.5637110000000  0.4001980000000  0.4873240000000 1.0
C      1  0.5831110000000  0.4570640000000  0.5648890000000 1.0
C      1  0.5834830000000  0.5383530000000  0.5662490000000 1.0
C      1  0.4012180000000  0.5468080000000  0.5551750000000 1.0
C      1  0.3995300000000  0.4524310000000  0.5574840000000 1.0
C      1  0.4541210000000  0.3637860000000  0.5143620000000 1.0
C      1  0.4534460000000  0.6337790000000  0.5108110000000 1.0
C      1  0.5143230000000  0.5386660000000  0.5507060000000 1.0
C      1  0.5137770000000  0.4575790000000  0.5479800000000 1.0
C      1  0.4728660000000  0.5940780000000  0.4864460000000 1.0
C      1  0.4731260000000  0.4031040000000  0.4875750000000 1.0
C      1  0.4630330000000  0.3713770000000  0.5414670000000 1.0
C      1  0.4630230000000  0.6277680000000  0.5381320000000 1.0
C      1  0.5927630000000  0.4523410000000  0.4982400000000 1.0
C      1  0.5928380000000  0.5436290000000  0.4993480000000 1.0
C      1  0.5623370000000  0.5831100000000  0.5355660000000 1.0
C      1  0.5619900000000  0.4160600000000  0.5356380000000 1.0
C      1  0.4471530000000  0.5864480000000  0.4728670000000 1.0
C      1  0.4470110000000  0.4089090000000  0.4735140000000 1.0
C      1  0.5227920000000  0.4738180000000  0.4931370000000 1.0
C      1  0.5226790000000  0.5250460000000  0.4945170000000 1.0
C      1  0.4903660000000  0.6020650000000  0.4619020000000 1.0
C      1  0.4907470000000  0.3954080000000  0.4628180000000 1.0
C      1  0.4921650000000  0.4143610000000  0.4178640000000 1.0
C      1  0.4924720000000  0.5821310000000  0.4176100000000 1.0
C      1  0.4242970000000  0.3983670000000  0.4889910000000 1.0
C      1  0.4240650000000  0.5973230000000  0.4874270000000 1.0
C      1  0.5173610000000  0.5715250000000  0.4269650000000 1.0
C      1  0.5174090000000  0.4255590000000  0.4260350000000 1.0
C      1  0.3783070000000  0.4733670000000  0.5125380000000 1.0
C      1  0.3810210000000  0.5239670000000  0.5097000000000 1.0
C      1  0.4174820000000  0.4651300000000  0.4482340000000 1.0
C      1  0.4191770000000  0.5283850000000  0.4495160000000 1.0
C      1  0.4504890000000  0.4443290000000  0.5621350000000 1.0
C      1  0.4519300000000  0.5552080000000  0.5609240000000 1.0
C      1  0.5681530000000  0.4454750000000  0.4312270000000 1.0
C      1  0.5681060000000  0.5502370000000  0.4315780000000 1.0
C      1  0.4541770000000  0.5361520000000  0.5172550000000 1.0
C      1  0.4532970000000  0.4616370000000  0.5145800000000 1.0
C      1  0.4112580000000  0.5492230000000  0.4952210000000 1.0
C      1  0.4104750000000  0.4463220000000  0.4943570000000 1.0
C      1  0.5553160000000  0.4098930000000  0.5637590000000 1.0
C      1  0.5568570000000  0.5905150000000  0.5634940000000 1.0
C      1  0.4265050000000  0.4719050000000  0.6009590000000 1.0
C      1  0.4275210000000  0.5281400000000  0.5997110000000 1.0
C      1  0.4566890000000  0.5295670000000  0.4185930000000 1.0
C      1  0.4563290000000  0.4632700000000  0.4171760000000 1.0
C      1  0.5641930000000  0.4534170000000  0.5028400000000 1.0
C      1  0.5641990000000  0.5447430000000  0.5038120000000 1.0
C      1  0.5494100000000  0.5713030000000  0.5850390000000 1.0
C      1  0.5484160000000  0.4303240000000  0.5845920000000 1.0
C      1  0.5292220000000  0.5203760000000  0.4393610000000 1.0
C      1  0.5292360000000  0.4784650000000  0.4381530000000 1.0
C      1  0.4760290000000  0.5500200000000  0.5752240000000 1.0
C      1  0.4746880000000  0.4505970000000  0.5758360000000 1.0
C      1  0.5017530000000  0.4447130000000  0.3904940000000 1.0
C      1  0.5008210000000  0.5495750000000  0.3924880000000 1.0
C      1  0.5206110000000  0.3943810000000  0.4620430000000 1.0
C      1  0.5204360000000  0.6037120000000  0.4612940000000 1.0
C      1  0.4514350000000  0.5552320000000  0.4708780000000 1.0
C      1  0.4503840000000  0.4400890000000  0.4695800000000 1.0
C      1  0.5370530000000  0.4747770000000  0.5514020000000 1.0
C      1  0.5375340000000  0.5214140000000  0.5524470000000 1.0
C      1  0.4688410000000  0.3988080000000  0.5501450000000 1.0
C      1  0.4691750000000  0.6008980000000  0.5482070000000 1.0
C      1  0.6392000000000  0.5162330000000  0.5076950000000 1.0
C      1  0.4776380000000  0.4960000000000  0.4324750000000 1.0
C      1  0.4190870000000  0.4994980000000  0.5702470000000 1.0
C      1  0.4785210000000  0.4973500000000  0.5554720000000 1.0
C      1  0.4981100000000  0.5020780000000  0.5919570000000 1.0
C      1  0.6068550000000  0.4975310000000  0.4646070000000 1.0
C      1  0.4503270000000  0.4963130000000  0.5681590000000 1.0
C      1  0.6299660000000  0.4981880000000  0.5659040000000 1.0
C      1  0.4929030000000  0.4949110000000  0.6386560000000 1.0
C      1  0.4947680000000  0.5149680000000  0.3654160000000 1.0
C      1  0.4717420000000  0.5010830000000  0.4808750000000 1.0
C      1  0.3794220000000  0.4976630000000  0.4940520000000 1.0
C      1  0.4728090000000  0.4992100000000  0.3779210000000 1.0
C      1  0.4281110000000  0.5021780000000  0.4045250000000 1.0
C      1  0.5227290000000  0.4946620000000  0.6363440000000 1.0
C      1  0.5212470000000  0.4990730000000  0.5085510000000 1.0
C      1  0.5875070000000  0.4970540000000  0.6068010000000 1.0
C      1  0.5643620000000  0.4994590000000  0.4892860000000 1.0
C      1  0.4069880000000  0.5005710000000  0.5988160000000 1.0
C      1  0.4287480000000  0.4960430000000  0.4514960000000 1.0
C      1  0.5352530000000  0.4984370000000  0.5357920000000 1.0
C      1  0.4018840000000  0.4993340000000  0.5461460000000 1.0
C      1  0.4862530000000  0.4992150000000  0.5061600000000 1.0
C      1  0.6079020000000  0.4978090000000  0.5442050000000 1.0
C      1  0.5624900000000  0.4975540000000  0.5911400000000 1.0
C      1  0.4433600000000  0.5055740000000  0.3793750000000 1.0
C      1  0.4474550000000  0.4998580000000  0.6098120000000 1.0
C      1  0.5942380000000  0.4973670000000  0.4928300000000 1.0
C      1  0.5764790000000  0.4980330000000  0.5436290000000 1.0
C      1  0.5791830000000  0.4978790000000  0.4412990000000 1.0
C      1  0.5365550000000  0.4991770000000  0.6085460000000 1.0
C      1  0.5780310000000  0.4972970000000  0.4115560000000 1.0
C      1  0.6583930000000  0.4991140000000  0.5605370000000 1.0
C      1  0.4414760000000  0.4975350000000  0.4786730000000 1.0
C      1  0.4213580000000  0.5021480000000  0.5000670000000 1.0
C      1  0.5253920000000  0.5011590000000  0.4100850000000 1.0
C      1  0.6137890000000  0.5038340000000  0.5146760000000 1.0
C      1  0.5536410000000  0.4964880000000  0.3970230000000 1.0
C      1  0.3980520000000  0.5034470000000  0.4098130000000 1.0
C      1  0.5203120000000  0.5148180000000  0.3792260000000 1.0
C      1  0.4777710000000  0.4993310000000  0.6134740000000 1.0
C      1  0.4944130000000  0.4958440000000  0.4063020000000 1.0
C      1  0.3888460000000  0.4944120000000  0.4642390000000 1.0
C      1  0.4875260000000  0.5029700000000  0.4574550000000 1.0
C      1  0.4257670000000  0.4989940000000  0.5288130000000 1.0
C      1  0.5501930000000  0.4992760000000  0.4587600000000 1.0
C      1  0.4468220000000  0.4959470000000  0.4271870000000 1.0
C      1  0.3839980000000  0.5089590000000  0.4373790000000 1.0
END
