TITL C-862501-1041-456 0.000140365817544614 125000 -463.117867238966 0 0 87 (C2) n - 1
REM
REM in /home/nfs/bkarasulu/CARBON/AIRSS/Generating-Clusters/TERSOFF/Higher-Symm/FIRE-HFTN
REM
REM
REM
REM
REM
REM ./C.cell (b20cbc046b6831c77cfcea5457e17084)
REM AIRSS Version 0.9.1 bugfix July 2018 build 013d7b7c2542+ Fri, 06 Jul 2018 19:26:36 +0100
REM compiler GCC version 9.2.1 20190827 (Red Hat 9.2.1-1)
REM options -cpp -mtune=generic -march=x86-64 -g -O0 -fpre-include=/usr/include/finclude/math-vector-fortran.h
REM seed 1168352741 1122445886 1474617554 -981841059 154487393 1546445070 1746971436 1755178640 86163863 -586358089 -1226913068 2095276667 1618338368 -1173193070 -508346752 1323690410 -203032742 -696251012 55670049 57203385 -1143024616 1470239179 -1242987386 191084378 -2093614160 -1493517712 -1381197847 -846574082 124823572 935350857 -2111776289 -1199043570 -818729813
REM
CELL 1.54180   50.00000   50.00000   50.00000   90.00000   90.00000   90.00000
LATT -1
SFAC C  
C      1  0.4626820000000  0.4713940000000  0.4280980000000 1.0
C      1  0.5714080000000  0.5287060000000  0.4618520000000 1.0
C      1  0.5381260000000  0.4713940000000  0.5709220000000 1.0
C      1  0.4294010000000  0.5287060000000  0.5371680000000 1.0
C      1  0.5298260000000  0.4524400000000  0.4260180000000 1.0
C      1  0.5733070000000  0.5475620000000  0.5288180000000 1.0
C      1  0.4709830000000  0.4524400000000  0.5730030000000 1.0
C      1  0.4275020000000  0.5475620000000  0.4702020000000 1.0
C      1  0.4763490000000  0.5570430000000  0.5070080000000 1.0
C      1  0.4929520000000  0.4430630000000  0.4753020000000 1.0
C      1  0.5244590000000  0.5570430000000  0.4920120000000 1.0
C      1  0.5078570000000  0.4430630000000  0.5237180000000 1.0
C      1  0.5835680000000  0.4752850000000  0.5338080000000 1.0
C      1  0.4659400000000  0.5253730000000  0.5827610000000 1.0
C      1  0.4172410000000  0.4752850000000  0.4652130000000 1.0
C      1  0.5348690000000  0.5253730000000  0.4162590000000 1.0
C      1  0.4352920000000  0.5573770000000  0.4982170000000 1.0
C      1  0.5019670000000  0.4423730000000  0.4342900000000 1.0
C      1  0.5655170000000  0.5573770000000  0.5008030000000 1.0
C      1  0.4988420000000  0.4423730000000  0.5647300000000 1.0
C      1  0.5499220000000  0.5091800000000  0.4939300000000 1.0
C      1  0.5057660000000  0.4906260000000  0.5502270000000 1.0
C      1  0.4508870000000  0.5091800000000  0.5050900000000 1.0
C      1  0.4950420000000  0.4906260000000  0.4487940000000 1.0
C      1  0.5296250000000  0.5291120000000  0.4576780000000 1.0
C      1  0.5422500000000  0.4701060000000  0.5291560000000 1.0
C      1  0.4711830000000  0.5291120000000  0.5413420000000 1.0
C      1  0.4585580000000  0.4701060000000  0.4698650000000 1.0
C      1  0.5426400000000  0.4451620000000  0.4574080000000 1.0
C      1  0.5421740000000  0.5557400000000  0.5419690000000 1.0
C      1  0.4581690000000  0.4451620000000  0.5416120000000 1.0
C      1  0.4586340000000  0.5557400000000  0.4570510000000 1.0
C      1  0.4372660000000  0.4845340000000  0.4366680000000 1.0
C      1  0.5632450000000  0.5157690000000  0.4363390000000 1.0
C      1  0.5635420000000  0.4845340000000  0.5623530000000 1.0
C      1  0.4375630000000  0.5157690000000  0.5626810000000 1.0
C      1  0.4475400000000  0.4488680000000  0.4863410000000 1.0
C      1  0.5133900000000  0.5506370000000  0.4467100000000 1.0
C      1  0.5532680000000  0.4488680000000  0.5126790000000 1.0
C      1  0.4874180000000  0.5506370000000  0.5523110000000 1.0
C      1  0.4410370000000  0.5155980000000  0.4304490000000 1.0
C      1  0.5695640000000  0.4846350000000  0.4395070000000 1.0
C      1  0.5597720000000  0.5155990000000  0.5685710000000 1.0
C      1  0.4312440000000  0.4846350000000  0.5595130000000 1.0
C      1  0.5231430000000  0.4333850000000  0.4766380000000 1.0
C      1  0.5230000000000  0.5671480000000  0.5222900000000 1.0
C      1  0.4776650000000  0.4333850000000  0.5223820000000 1.0
C      1  0.4778090000000  0.5671480000000  0.4767300000000 1.0
C      1  0.4830130000000  0.4600830000000  0.4508300000000 1.0
C      1  0.5485160000000  0.5395430000000  0.4822280000000 1.0
C      1  0.5177960000000  0.4600830000000  0.5481900000000 1.0
C      1  0.4522920000000  0.5395430000000  0.5167920000000 1.0
C      1  0.4333040000000  0.4652450000000  0.5321700000000 1.0
C      1  0.4682570000000  0.5352560000000  0.4320860000000 1.0
C      1  0.5675040000000  0.4652450000000  0.4668510000000 1.0
C      1  0.5325510000000  0.5352560000000  0.5669340000000 1.0
C      1  0.4772530000000  0.4975820000000  0.5469110000000 1.0
C      1  0.4541070000000  0.5024410000000  0.4766700000000 1.0
C      1  0.5235560000000  0.4975820000000  0.4521090000000 1.0
C      1  0.5467010000000  0.5024410000000  0.5223510000000 1.0
C      1  0.4889610000000  0.4714470000000  0.5933740000000 1.0
C      1  0.4072820000000  0.5279270000000  0.4876700000000 1.0
C      1  0.5118470000000  0.4714470000000  0.4056460000000 1.0
C      1  0.5935270000000  0.5279270000000  0.5113500000000 1.0
C      1  0.4902180000000  0.4898330000000  0.4162510000000 1.0
C      1  0.5826600000000  0.5101160000000  0.4894700000000 1.0
C      1  0.5105910000000  0.4898330000000  0.5827700000000 1.0
C      1  0.4181490000000  0.5101170000000  0.5095500000000 1.0
C      1  0.5273740000000  0.4946350000000  0.4815550000000 1.0
C      1  0.5164620000000  0.5029840000000  0.5251300000000 1.0
C      1  0.4734350000000  0.4946350000000  0.5174650000000 1.0
C      1  0.4843470000000  0.5029840000000  0.4738900000000 1.0
C      1  0.5787330000000  0.4789600000000  0.4982180000000 1.0
C      1  0.5015470000000  0.5211700000000  0.5786810000000 1.0
C      1  0.4220760000000  0.4789600000000  0.5008020000000 1.0
C      1  0.4992620000000  0.5211700000000  0.4203390000000 1.0
C      1  0.5060380000000  0.5690410000000  0.4685930000000 1.0
C      1  0.5311840000000  0.4309880000000  0.5048590000000 1.0
C      1  0.4947710000000  0.5690410000000  0.5304270000000 1.0
C      1  0.4696250000000  0.4309880000000  0.4941620000000 1.0
C      1  0.5633140000000  0.5195930000000  0.5392950000000 1.0
C      1  0.4604570000000  0.4806280000000  0.5639380000000 1.0
C      1  0.4374940000000  0.5195930000000  0.4597250000000 1.0
C      1  0.5403510000000  0.4806280000000  0.4350820000000 1.0
C      1  0.5004040000000  0.5400540000000  0.4995100000000 1.0
C      1  0.5004040000000  0.4602820000000  0.4995100000000 1.0
C      1  0.5004040000000  0.4909510000000  0.4995100000000 1.0
END
