TITL C-862507-1800-424 8.54043424559382 125000 -1008.64135013788 0 0 192 (C2) n - 1
REM
REM in /home/nfs/bkarasulu/CARBON/AIRSS/Generating-Clusters/TERSOFF/Higher-Symm/FIRE-HFTN
REM
REM
REM
REM
REM
REM ./C.cell (b20cbc046b6831c77cfcea5457e17084)
REM AIRSS Version 0.9.1 bugfix July 2018 build 013d7b7c2542+ Fri, 06 Jul 2018 19:26:36 +0100
REM compiler GCC version 9.2.1 20190827 (Red Hat 9.2.1-1)
REM options -cpp -mtune=generic -march=x86-64 -g -O0 -fpre-include=/usr/include/finclude/math-vector-fortran.h
REM seed -779875439 -291213303 -1951822057 128712816 -1836643591 -182008945 -1561208564 -825928548 986991223 558880818 1758460700 -2108274082 -558819020 -1847373559 -1213197752 -746906707 567548320 -1735700705 1001368423 -337360706 1657245993 -550598843 1839107542 -871585814 2074930955 445995865 52512955 -1761959041 2134413219 -52338028 1959595921 1145961213 -1344923079
REM
CELL 1.54180   50.00000   50.00000   50.00000   90.00000   90.00000   90.00000
LATT -1
SFAC C  
C      1  0.3930810000000  0.5061930000000  0.5253640000000 1.0
C      1  0.4327100000000  0.5738830000000  0.5309860000000 1.0
C      1  0.5055610000000  0.6076460000000  0.5252910000000 1.0
C      1  0.5808340000000  0.5726870000000  0.5244510000000 1.0
C      1  0.6069190000000  0.4938070000000  0.5253640000000 1.0
C      1  0.5672900000000  0.4261170000000  0.5309860000000 1.0
C      1  0.4944390000000  0.3923540000000  0.5252910000000 1.0
C      1  0.4191660000000  0.4273130000000  0.5244510000000 1.0
C      1  0.4557740000000  0.5642320000000  0.4748560000000 1.0
C      1  0.5186000000000  0.5801020000000  0.4727040000000 1.0
C      1  0.5713650000000  0.5443520000000  0.4717430000000 1.0
C      1  0.5813260000000  0.4823060000000  0.4714520000000 1.0
C      1  0.5442260000000  0.4357680000000  0.4748560000000 1.0
C      1  0.4814000000000  0.4198980000000  0.4727040000000 1.0
C      1  0.4286350000000  0.4556480000000  0.4717430000000 1.0
C      1  0.4186740000000  0.5176940000000  0.4714520000000 1.0
C      1  0.4774480000000  0.5342210000000  0.3461840000000 1.0
C      1  0.5082600000000  0.5402060000000  0.3461980000000 1.0
C      1  0.5342610000000  0.5226350000000  0.3460940000000 1.0
C      1  0.5401690000000  0.4917890000000  0.3460860000000 1.0
C      1  0.5225520000000  0.4657790000000  0.3461840000000 1.0
C      1  0.4917400000000  0.4597940000000  0.3461980000000 1.0
C      1  0.4657390000000  0.4773650000000  0.3460940000000 1.0
C      1  0.4598310000000  0.5082110000000  0.3460860000000 1.0
C      1  0.4339070000000  0.4506470000000  0.5048320000000 1.0
C      1  0.4201680000000  0.5117820000000  0.5046110000000 1.0
C      1  0.4568610000000  0.5599100000000  0.5106000000000 1.0
C      1  0.5115190000000  0.5806490000000  0.5061170000000 1.0
C      1  0.5660930000000  0.5493530000000  0.5048320000000 1.0
C      1  0.5798320000000  0.4882180000000  0.5046110000000 1.0
C      1  0.5431390000000  0.4400900000000  0.5106000000000 1.0
C      1  0.4884810000000  0.4193510000000  0.5061170000000 1.0
C      1  0.4500380000000  0.4644610000000  0.5260260000000 1.0
C      1  0.4410290000000  0.5103850000000  0.5256650000000 1.0
C      1  0.4687800000000  0.5444760000000  0.5340250000000 1.0
C      1  0.5095820000000  0.5592020000000  0.5263340000000 1.0
C      1  0.5499620000000  0.5355390000000  0.5260260000000 1.0
C      1  0.5589710000000  0.4896150000000  0.5256650000000 1.0
C      1  0.5312200000000  0.4555240000000  0.5340250000000 1.0
C      1  0.4904180000000  0.4407980000000  0.5263340000000 1.0
C      1  0.4659160000000  0.5516630000000  0.3694140000000 1.0
C      1  0.5124740000000  0.5606940000000  0.3694140000000 1.0
C      1  0.5518520000000  0.5342190000000  0.3691970000000 1.0
C      1  0.5607880000000  0.4875780000000  0.3692060000000 1.0
C      1  0.5340840000000  0.4483370000000  0.3694140000000 1.0
C      1  0.4875260000000  0.4393060000000  0.3694140000000 1.0
C      1  0.4481480000000  0.4657810000000  0.3691970000000 1.0
C      1  0.4392120000000  0.5124220000000  0.3692060000000 1.0
C      1  0.5517250000000  0.5762180000000  0.5885590000000 1.0
C      1  0.5908070000000  0.5177870000000  0.5899740000000 1.0
C      1  0.5791280000000  0.4505220000000  0.5902160000000 1.0
C      1  0.5163940000000  0.4090480000000  0.5900560000000 1.0
C      1  0.4482750000000  0.4237820000000  0.5885590000000 1.0
C      1  0.4091930000000  0.4822130000000  0.5899740000000 1.0
C      1  0.4208720000000  0.5494790000000  0.5902160000000 1.0
C      1  0.4836060000000  0.5909520000000  0.5900560000000 1.0
C      1  0.5592330000000  0.5939240000000  0.5374310000000 1.0
C      1  0.6080230000000  0.5243960000000  0.5377820000000 1.0
C      1  0.5937680000000  0.4413890000000  0.5388450000000 1.0
C      1  0.5247130000000  0.3931940000000  0.5382710000000 1.0
C      1  0.4407670000000  0.4060760000000  0.5374310000000 1.0
C      1  0.3919770000000  0.4756040000000  0.5377810000000 1.0
C      1  0.4062320000000  0.5586110000000  0.5388450000000 1.0
C      1  0.4752870000000  0.6068060000000  0.5382710000000 1.0
C      1  0.4922440000000  0.5417170000000  0.4444260000000 1.0
C      1  0.5252080000000  0.5359870000000  0.4440440000000 1.0
C      1  0.5436700000000  0.5086690000000  0.4436020000000 1.0
C      1  0.5362580000000  0.4765010000000  0.4438150000000 1.0
C      1  0.5077560000000  0.4582830000000  0.4444260000000 1.0
C      1  0.4747920000000  0.4640130000000  0.4440440000000 1.0
C      1  0.4563300000000  0.4913310000000  0.4436020000000 1.0
C      1  0.4637420000000  0.5234990000000  0.4438150000000 1.0
C      1  0.4419300000000  0.4027200000000  0.5677270000000 1.0
C      1  0.3905640000000  0.4716960000000  0.5682280000000 1.0
C      1  0.4005760000000  0.5557030000000  0.5685870000000 1.0
C      1  0.4723420000000  0.6093180000000  0.5686310000000 1.0
C      1  0.5580700000000  0.5972800000000  0.5677270000000 1.0
C      1  0.6094360000000  0.5283040000000  0.5682280000000 1.0
C      1  0.5994240000000  0.4442970000000  0.5685870000000 1.0
C      1  0.5276580000000  0.3906820000000  0.5686310000000 1.0
C      1  0.4405540000000  0.5365790000000  0.5486660000000 1.0
C      1  0.4848670000000  0.5677730000000  0.5504270000000 1.0
C      1  0.5372960000000  0.5593720000000  0.5468170000000 1.0
C      1  0.5677990000000  0.5159030000000  0.5462580000000 1.0
C      1  0.5594460000000  0.4634210000000  0.5486660000000 1.0
C      1  0.5151330000000  0.4322270000000  0.5504270000000 1.0
C      1  0.4627040000000  0.4406280000000  0.5468170000000 1.0
C      1  0.4322010000000  0.4840970000000  0.5462580000000 1.0
C      1  0.4939080000000  0.4659930000000  0.5129140000000 1.0
C      1  0.4697320000000  0.4784940000000  0.5113730000000 1.0
C      1  0.4662420000000  0.5055960000000  0.5126800000000 1.0
C      1  0.4842120000000  0.5224770000000  0.5250110000000 1.0
C      1  0.5060920000000  0.5340070000000  0.5129140000000 1.0
C      1  0.5302680000000  0.5215060000000  0.5113730000000 1.0
C      1  0.5337580000000  0.4944040000000  0.5126800000000 1.0
C      1  0.5157880000000  0.4775230000000  0.5250110000000 1.0
C      1  0.4881780000000  0.5614520000000  0.3860740000000 1.0
C      1  0.5353010000000  0.5520380000000  0.3858940000000 1.0
C      1  0.5618390000000  0.5119610000000  0.3857310000000 1.0
C      1  0.5519810000000  0.4649220000000  0.3858990000000 1.0
C      1  0.5118220000000  0.4385480000000  0.3860740000000 1.0
C      1  0.4646990000000  0.4479620000000  0.3858940000000 1.0
C      1  0.4381610000000  0.4880390000000  0.3857310000000 1.0
C      1  0.4480190000000  0.5350780000000  0.3858990000000 1.0
C      1  0.3729720000000  0.4443800000000  0.4696710000000 1.0
C      1  0.3732070000000  0.5517060000000  0.4698930000000 1.0
C      1  0.4332120000000  0.6156180000000  0.4709030000000 1.0
C      1  0.5486560000000  0.6281200000000  0.4692940000000 1.0
C      1  0.6270280000000  0.5556200000000  0.4696710000000 1.0
C      1  0.6267930000000  0.4482940000000  0.4698930000000 1.0
C      1  0.5667880000000  0.3843810000000  0.4709030000000 1.0
C      1  0.4513440000000  0.3718800000000  0.4692940000000 1.0
C      1  0.5554450000000  0.4048280000000  0.4881070000000 1.0
C      1  0.4636470000000  0.3917560000000  0.4865060000000 1.0
C      1  0.3962850000000  0.4492560000000  0.4862490000000 1.0
C      1  0.3924360000000  0.5374450000000  0.4863020000000 1.0
C      1  0.4445550000000  0.5951720000000  0.4881070000000 1.0
C      1  0.5363530000000  0.6082440000000  0.4865060000000 1.0
C      1  0.6037150000000  0.5507440000000  0.4862490000000 1.0
C      1  0.6075640000000  0.4625550000000  0.4863020000000 1.0
C      1  0.5380500000000  0.6104630000000  0.5190140000000 1.0
C      1  0.6055320000000  0.5507550000000  0.5189620000000 1.0
C      1  0.6087170000000  0.4614170000000  0.5188060000000 1.0
C      1  0.5525100000000  0.4002910000000  0.5201860000000 1.0
C      1  0.4619500000000  0.3895370000000  0.5190140000000 1.0
C      1  0.3944680000000  0.4492450000000  0.5189620000000 1.0
C      1  0.3912830000000  0.5385830000000  0.5188060000000 1.0
C      1  0.4474900000000  0.5997090000000  0.5201860000000 1.0
C      1  0.4845300000000  0.4608570000000  0.6147020000000 1.0
C      1  0.4621080000000  0.4832120000000  0.6196710000000 1.0
C      1  0.4605450000000  0.5151880000000  0.6158030000000 1.0
C      1  0.4834710000000  0.5376870000000  0.6196400000000 1.0
C      1  0.5154700000000  0.5391430000000  0.6147020000000 1.0
C      1  0.5378920000000  0.5167880000000  0.6196710000000 1.0
C      1  0.5394550000000  0.4848120000000  0.6158030000000 1.0
C      1  0.5165290000000  0.4623130000000  0.6196400000000 1.0
C      1  0.5347600000000  0.5133890000000  0.5780140000000 1.0
C      1  0.5339350000000  0.4844550000000  0.5742120000000 1.0
C      1  0.5139750000000  0.4639920000000  0.5778190000000 1.0
C      1  0.4851030000000  0.4660350000000  0.5730500000000 1.0
C      1  0.4652400000000  0.4866110000000  0.5780140000000 1.0
C      1  0.4660650000000  0.5155450000000  0.5742120000000 1.0
C      1  0.4860250000000  0.5360080000000  0.5778190000000 1.0
C      1  0.5148970000000  0.5339650000000  0.5730500000000 1.0
C      1  0.5187540000000  0.4184420000000  0.5031760000000 1.0
C      1  0.4563230000000  0.4286570000000  0.5050270000000 1.0
C      1  0.4181580000000  0.4803940000000  0.5038420000000 1.0
C      1  0.4308680000000  0.5438220000000  0.5018140000000 1.0
C      1  0.4812460000000  0.5815580000000  0.5031760000000 1.0
C      1  0.5436770000000  0.5713430000000  0.5050270000000 1.0
C      1  0.5818420000000  0.5196060000000  0.5038420000000 1.0
C      1  0.5691320000000  0.4561780000000  0.5018140000000 1.0
C      1  0.5755860000000  0.6264950000000  0.4588130000000 1.0
C      1  0.6435970000000  0.5349640000000  0.4579870000000 1.0
C      1  0.6229940000000  0.4215640000000  0.4594600000000 1.0
C      1  0.5518580000000  0.3625600000000  0.4591270000000 1.0
C      1  0.4244140000000  0.3735050000000  0.4588130000000 1.0
C      1  0.3564030000000  0.4650360000000  0.4579860000000 1.0
C      1  0.3770060000000  0.5784360000000  0.4594610000000 1.0
C      1  0.4481420000000  0.6374410000000  0.4591270000000 1.0
C      1  0.5129060000000  0.4336620000000  0.4619660000000 1.0
C      1  0.4602730000000  0.4428270000000  0.4605230000000 1.0
C      1  0.4307520000000  0.4869480000000  0.4596880000000 1.0
C      1  0.4428290000000  0.5377780000000  0.4607490000000 1.0
C      1  0.4870940000000  0.5663380000000  0.4619660000000 1.0
C      1  0.5397270000000  0.5571730000000  0.4605230000000 1.0
C      1  0.5692480000000  0.5130520000000  0.4596880000000 1.0
C      1  0.5571710000000  0.4622220000000  0.4607490000000 1.0
C      1  0.5427040000000  0.5082920000000  0.4102280000000 1.0
C      1  0.5357330000000  0.4759480000000  0.4103750000000 1.0
C      1  0.5080850000000  0.4578690000000  0.4106710000000 1.0
C      1  0.4755910000000  0.4641530000000  0.4104760000000 1.0
C      1  0.4572960000000  0.4917080000000  0.4102280000000 1.0
C      1  0.4642670000000  0.5240520000000  0.4103750000000 1.0
C      1  0.4919150000000  0.5421310000000  0.4106710000000 1.0
C      1  0.5244090000000  0.5358470000000  0.4104760000000 1.0
C      1  0.5608980000000  0.5262130000000  0.5935720000000 1.0
C      1  0.5618720000000  0.4762850000000  0.5914680000000 1.0
C      1  0.5251750000000  0.4385010000000  0.5945890000000 1.0
C      1  0.4752410000000  0.4388190000000  0.5908660000000 1.0
C      1  0.4391020000000  0.4737870000000  0.5935720000000 1.0
C      1  0.4381280000000  0.5237150000000  0.5914680000000 1.0
C      1  0.4748250000000  0.5614990000000  0.5945890000000 1.0
C      1  0.5247590000000  0.5611810000000  0.5908660000000 1.0
C      1  0.5453070000000  0.4374620000000  0.5690250000000 1.0
C      1  0.4867440000000  0.4249520000000  0.5649280000000 1.0
C      1  0.4379770000000  0.4573270000000  0.5654920000000 1.0
C      1  0.4254770000000  0.5113910000000  0.5645450000000 1.0
C      1  0.4546930000000  0.5625380000000  0.5690250000000 1.0
C      1  0.5132560000000  0.5750480000000  0.5649280000000 1.0
C      1  0.5620230000000  0.5426730000000  0.5654920000000 1.0
C      1  0.5745230000000  0.4886090000000  0.5645450000000 1.0
END
