TITL C-862130-1496-282 2.97512450254122e-05 125000 -726.925750383779 0 0 126 (D6) n - 1
REM
REM in /home/nfs/bkarasulu/CARBON/AIRSS/Generating-Clusters/TERSOFF/Higher-Symm/FIRE-HFTN
REM
REM
REM
REM
REM
REM ./C.cell (b20cbc046b6831c77cfcea5457e17084)
REM AIRSS Version 0.9.1 bugfix July 2018 build 013d7b7c2542+ Fri, 06 Jul 2018 19:26:36 +0100
REM compiler GCC version 9.2.1 20190827 (Red Hat 9.2.1-1)
REM options -cpp -mtune=generic -march=x86-64 -g -O0 -fpre-include=/usr/include/finclude/math-vector-fortran.h
REM seed 1165322241 -653108416 -1391952456 432254940 -1748318430 2029275153 564993266 -800629832 -1298324253 -1946439497 -1665409231 928737418 -1473225760 -567699992 -80236143 -1544619127 -1880290911 762783910 -1725843103 -248212032 -1240401438 90813176 150479706 1501027019 -1028777618 -1201654878 1009590663 1046955857 448699542 -750641165 -1481819929 -288594515 300596134
REM
CELL 1.54180   50.00000   50.00000   50.00000   90.00000   90.00000   90.00000
LATT -1
SFAC C  
C      1  0.5568640000000  0.5556220000000  0.4892160000000 1.0
C      1  0.5190930000000  0.5556220000000  0.4453630000000 1.0
C      1  0.4622290000000  0.5556220000000  0.4561460000000 1.0
C      1  0.4431360000000  0.5556220000000  0.5107840000000 1.0
C      1  0.4809070000000  0.5556220000000  0.5546370000000 1.0
C      1  0.5377710000000  0.5556220000000  0.5438540000000 1.0
C      1  0.5568640000000  0.4448550000000  0.5107840000000 1.0
C      1  0.5190930000000  0.4448550000000  0.5546370000000 1.0
C      1  0.4622290000000  0.4448550000000  0.5438540000000 1.0
C      1  0.4431360000000  0.4448550000000  0.4892160000000 1.0
C      1  0.4809070000000  0.4448550000000  0.4453630000000 1.0
C      1  0.5377710000000  0.4448550000000  0.4561460000000 1.0
C      1  0.4903800000000  0.4351610000000  0.4718470000000 1.0
C      1  0.4708090000000  0.4351610000000  0.4942540000000 1.0
C      1  0.4804280000000  0.4351610000000  0.5224080000000 1.0
C      1  0.5096200000000  0.4351610000000  0.5281530000000 1.0
C      1  0.5291910000000  0.4351610000000  0.5057460000000 1.0
C      1  0.5195720000000  0.4351610000000  0.4775930000000 1.0
C      1  0.4903800000000  0.5653170000000  0.5281530000000 1.0
C      1  0.4708090000000  0.5653170000000  0.5057460000000 1.0
C      1  0.4804280000000  0.5653170000000  0.4775920000000 1.0
C      1  0.5096200000000  0.5653170000000  0.4718470000000 1.0
C      1  0.5291910000000  0.5653170000000  0.4942540000000 1.0
C      1  0.5195720000000  0.5653170000000  0.5224070000000 1.0
C      1  0.3972260000000  0.5224170000000  0.4785960000000 1.0
C      1  0.4300770000000  0.5224170000000  0.5783030000000 1.0
C      1  0.5328510000000  0.5224170000000  0.5997070000000 1.0
C      1  0.6027740000000  0.5224170000000  0.5214040000000 1.0
C      1  0.5699230000000  0.5224170000000  0.4216970000000 1.0
C      1  0.4671490000000  0.5224170000000  0.4002930000000 1.0
C      1  0.3972260000000  0.4780600000000  0.5214040000000 1.0
C      1  0.4300770000000  0.4780600000000  0.4216970000000 1.0
C      1  0.5328510000000  0.4780600000000  0.4002930000000 1.0
C      1  0.6027740000000  0.4780600000000  0.4785960000000 1.0
C      1  0.5699230000000  0.4780600000000  0.5783030000000 1.0
C      1  0.4671490000000  0.4780600000000  0.5997070000000 1.0
C      1  0.4930890000000  0.5257670000000  0.4122630000000 1.0
C      1  0.4205620000000  0.5257670000000  0.4621170000000 1.0
C      1  0.4274740000000  0.5257670000000  0.5498540000000 1.0
C      1  0.5069110000000  0.5257670000000  0.5877370000000 1.0
C      1  0.5794380000000  0.5257670000000  0.5378830000000 1.0
C      1  0.5725260000000  0.5257670000000  0.4501460000000 1.0
C      1  0.4930890000000  0.4747100000000  0.5877370000000 1.0
C      1  0.4205620000000  0.4747100000000  0.5378830000000 1.0
C      1  0.4274740000000  0.4747100000000  0.4501460000000 1.0
C      1  0.5069110000000  0.4747100000000  0.4122630000000 1.0
C      1  0.5794380000000  0.4747100000000  0.4621170000000 1.0
C      1  0.5725260000000  0.4747100000000  0.5498540000000 1.0
C      1  0.4976950000000  0.5525220000000  0.5786910000000 1.0
C      1  0.5669960000000  0.5525220000000  0.5413420000000 1.0
C      1  0.5693010000000  0.5525210000000  0.4626510000000 1.0
C      1  0.5023050000000  0.5525210000000  0.4213090000000 1.0
C      1  0.4330040000000  0.5525210000000  0.4586580000000 1.0
C      1  0.4306990000000  0.5525220000000  0.5373490000000 1.0
C      1  0.4976950000000  0.4479560000000  0.4213090000000 1.0
C      1  0.5669960000000  0.4479560000000  0.4586580000000 1.0
C      1  0.5693010000000  0.4479560000000  0.5373490000000 1.0
C      1  0.5023050000000  0.4479560000000  0.5786910000000 1.0
C      1  0.4330040000000  0.4479560000000  0.5413420000000 1.0
C      1  0.4306990000000  0.4479560000000  0.4626510000000 1.0
C      1  0.3906160000000  0.4932780000000  0.4762810000000 1.0
C      1  0.4247670000000  0.4932780000000  0.5828690000000 1.0
C      1  0.5341500000000  0.4932780000000  0.6065890000000 1.0
C      1  0.6093840000000  0.4932780000000  0.5237190000000 1.0
C      1  0.5752330000000  0.4932780000000  0.4171310000000 1.0
C      1  0.4658500000000  0.4932780000000  0.3934110000000 1.0
C      1  0.3906160000000  0.5071990000000  0.5237190000000 1.0
C      1  0.4247670000000  0.5071990000000  0.4171310000000 1.0
C      1  0.5341500000000  0.5071990000000  0.3934110000000 1.0
C      1  0.6093840000000  0.5071990000000  0.4762810000000 1.0
C      1  0.5752330000000  0.5071990000000  0.5828690000000 1.0
C      1  0.4658500000000  0.5071990000000  0.6065890000000 1.0
C      1  0.4160050000000  0.5761280000000  0.4577310000000 1.0
C      1  0.4213970000000  0.5761280000000  0.5516070000000 1.0
C      1  0.5053920000000  0.5761280000000  0.5938760000000 1.0
C      1  0.5839950000000  0.5761280000000  0.5422680000000 1.0
C      1  0.5786030000000  0.5761280000000  0.4483930000000 1.0
C      1  0.4946080000000  0.5761280000000  0.4061240000000 1.0
C      1  0.4160050000000  0.4243490000000  0.5422680000000 1.0
C      1  0.4213970000000  0.4243490000000  0.4483930000000 1.0
C      1  0.5053920000000  0.4243490000000  0.4061240000000 1.0
C      1  0.5839950000000  0.4243490000000  0.4577320000000 1.0
C      1  0.5786030000000  0.4243490000000  0.5516070000000 1.0
C      1  0.4946080000000  0.4243490000000  0.5938760000000 1.0
C      1  0.5603330000000  0.4880480000000  0.5088850000000 1.0
C      1  0.5378610000000  0.4880470000000  0.4521930000000 1.0
C      1  0.4775280000000  0.4880470000000  0.4433080000000 1.0
C      1  0.4396670000000  0.4880480000000  0.4911150000000 1.0
C      1  0.4621390000000  0.4880480000000  0.5478070000000 1.0
C      1  0.5224720000000  0.4880480000000  0.5566920000000 1.0
C      1  0.5603330000000  0.5124300000000  0.4911150000000 1.0
C      1  0.5378610000000  0.5124300000000  0.5478070000000 1.0
C      1  0.4775280000000  0.5124300000000  0.5566920000000 1.0
C      1  0.4396670000000  0.5124300000000  0.5088850000000 1.0
C      1  0.4621390000000  0.5124300000000  0.4521930000000 1.0
C      1  0.5224720000000  0.5124300000000  0.4433080000000 1.0
C      1  0.4481700000000  0.4758180000000  0.5761240000000 1.0
C      1  0.5400100000000  0.4758180000000  0.5829480000000 1.0
C      1  0.5918400000000  0.4758180000000  0.5068240000000 1.0
C      1  0.5518300000000  0.4758180000000  0.4238760000000 1.0
C      1  0.4599900000000  0.4758180000000  0.4170520000000 1.0
C      1  0.4081600000000  0.4758180000000  0.4931760000000 1.0
C      1  0.4481710000000  0.5246590000000  0.4238760000000 1.0
C      1  0.5400100000000  0.5246590000000  0.4170520000000 1.0
C      1  0.5918400000000  0.5246600000000  0.4931760000000 1.0
C      1  0.5518290000000  0.5246600000000  0.5761240000000 1.0
C      1  0.4599900000000  0.5246600000000  0.5829480000000 1.0
C      1  0.4081600000000  0.5246600000000  0.5068240000000 1.0
C      1  0.5114580000000  0.5233860000000  0.4711880000000 1.0
C      1  0.4807760000000  0.5233860000000  0.4756710000000 1.0
C      1  0.4693190000000  0.5233860000000  0.5044840000000 1.0
C      1  0.4885420000000  0.5233860000000  0.5288120000000 1.0
C      1  0.5192240000000  0.5233860000000  0.5243290000000 1.0
C      1  0.5306810000000  0.5233860000000  0.4955160000000 1.0
C      1  0.5114580000000  0.4770910000000  0.5288120000000 1.0
C      1  0.4807760000000  0.4770910000000  0.5243290000000 1.0
C      1  0.4693190000000  0.4770910000000  0.4955160000000 1.0
C      1  0.4885420000000  0.4770910000000  0.4711880000000 1.0
C      1  0.5192240000000  0.4770910000000  0.4756710000000 1.0
C      1  0.5306810000000  0.4770910000000  0.5044840000000 1.0
C      1  0.4370690000000  0.5002390000000  0.5363330000000 1.0
C      1  0.4370690000000  0.5002390000000  0.4636670000000 1.0
C      1  0.5000000000000  0.5002390000000  0.4273330000000 1.0
C      1  0.5629310000000  0.5002390000000  0.4636670000000 1.0
C      1  0.5000000000000  0.5002390000000  0.5726670000000 1.0
C      1  0.5629310000000  0.5002390000000  0.5363330000000 1.0
END
