TITL C-862128-1543-839 6.4090557996939 125000 -738.917025865301 0 0 136 (C1) n - 1
REM
REM in /home/nfs/bkarasulu/CARBON/AIRSS/Generating-Clusters/TERSOFF/Higher-Symm/FIRE-HFTN
REM
REM
REM
REM
REM
REM ./C.cell (b20cbc046b6831c77cfcea5457e17084)
REM AIRSS Version 0.9.1 bugfix July 2018 build 013d7b7c2542+ Fri, 06 Jul 2018 19:26:36 +0100
REM compiler GCC version 9.2.1 20190827 (Red Hat 9.2.1-1)
REM options -cpp -mtune=generic -march=x86-64 -g -O0 -fpre-include=/usr/include/finclude/math-vector-fortran.h
REM seed 981091747 1848763008 -567442181 -1664796373 1415231835 -1278537451 -1313614243 -1055762996 49825394 411372172 388280808 -1166037717 -1009319142 -1184196008 503431983 -1085002021 1713253365 908249445 18446646 -2139332356 -1217474718 659920670 -841320322 1188629915 -994376210 1211519502 -1397131113 -816874369 -1197795833 1520157019 -1192394726 1573605259 135977144
REM
CELL 1.54180   50.00000   50.00000   50.00000   90.00000   90.00000   90.00000
LATT -1
SFAC C  
C      1  0.5328480000000  0.5895000000000  0.4725790000000 1.0
C      1  0.5952120000000  0.4966300000000  0.4722270000000 1.0
C      1  0.5262910000000  0.4067740000000  0.4726580000000 1.0
C      1  0.4198830000000  0.4478920000000  0.4737630000000 1.0
C      1  0.4254220000000  0.5585360000000  0.4736040000000 1.0
C      1  0.5324110000000  0.5892140000000  0.5279930000000 1.0
C      1  0.5944110000000  0.4969250000000  0.5279030000000 1.0
C      1  0.5250390000000  0.4094190000000  0.5270320000000 1.0
C      1  0.4176060000000  0.4465000000000  0.5281980000000 1.0
C      1  0.4253290000000  0.5588620000000  0.5269110000000 1.0
C      1  0.5641090000000  0.4382570000000  0.4655900000000 1.0
C      1  0.4603090000000  0.4205770000000  0.4659280000000 1.0
C      1  0.4105870000000  0.5128390000000  0.4664870000000 1.0
C      1  0.4844150000000  0.5878870000000  0.4656310000000 1.0
C      1  0.5786430000000  0.5422310000000  0.4651260000000 1.0
C      1  0.5636210000000  0.4387780000000  0.5344250000000 1.0
C      1  0.4607440000000  0.4217180000000  0.5334910000000 1.0
C      1  0.4098330000000  0.5134280000000  0.5350180000000 1.0
C      1  0.4841260000000  0.5885050000000  0.5350420000000 1.0
C      1  0.5785810000000  0.5426520000000  0.5350860000000 1.0
C      1  0.4294450000000  0.4758530000000  0.4308810000000 1.0
C      1  0.4542420000000  0.5594850000000  0.4301840000000 1.0
C      1  0.5419340000000  0.5616050000000  0.4291040000000 1.0
C      1  0.5711240000000  0.4789380000000  0.4289590000000 1.0
C      1  0.5008050000000  0.4269480000000  0.4309890000000 1.0
C      1  0.4288500000000  0.4764830000000  0.5706440000000 1.0
C      1  0.4537960000000  0.5601020000000  0.5705740000000 1.0
C      1  0.5414610000000  0.5618810000000  0.5717150000000 1.0
C      1  0.5700000000000  0.4794370000000  0.5708940000000 1.0
C      1  0.5004050000000  0.4260380000000  0.5702660000000 1.0
C      1  0.4323230000000  0.4709130000000  0.5172400000000 1.0
C      1  0.4529510000000  0.5508680000000  0.5170910000000 1.0
C      1  0.5327940000000  0.5604880000000  0.5179850000000 1.0
C      1  0.5670620000000  0.4880480000000  0.5175210000000 1.0
C      1  0.5087460000000  0.4325790000000  0.5157640000000 1.0
C      1  0.4350490000000  0.4713340000000  0.4852820000000 1.0
C      1  0.4531370000000  0.5499400000000  0.4832020000000 1.0
C      1  0.5330910000000  0.5605640000000  0.4819750000000 1.0
C      1  0.5677150000000  0.4875090000000  0.4816530000000 1.0
C      1  0.5092570000000  0.4309380000000  0.4818390000000 1.0
C      1  0.5488030000000  0.4520530000000  0.5608320000000 1.0
C      1  0.4667270000000  0.4366260000000  0.5629290000000 1.0
C      1  0.4305650000000  0.5109900000000  0.5603910000000 1.0
C      1  0.4875180000000  0.5695220000000  0.5619950000000 1.0
C      1  0.5617010000000  0.5333810000000  0.5628810000000 1.0
C      1  0.5500060000000  0.4512460000000  0.4383680000000 1.0
C      1  0.4686590000000  0.4400290000000  0.4408960000000 1.0
C      1  0.4305680000000  0.5105760000000  0.4403700000000 1.0
C      1  0.4879420000000  0.5687560000000  0.4390170000000 1.0
C      1  0.5616920000000  0.5327640000000  0.4379430000000 1.0
C      1  0.5299830000000  0.5023890000000  0.4027240000000 1.0
C      1  0.5107510000000  0.4718800000000  0.4045590000000 1.0
C      1  0.4760190000000  0.4812270000000  0.4067080000000 1.0
C      1  0.4729610000000  0.5170110000000  0.4039200000000 1.0
C      1  0.5067140000000  0.5301380000000  0.4026740000000 1.0
C      1  0.5290120000000  0.5024570000000  0.5962980000000 1.0
C      1  0.5097620000000  0.4727090000000  0.5934260000000 1.0
C      1  0.4760260000000  0.4821420000000  0.5931740000000 1.0
C      1  0.4722320000000  0.5173590000000  0.5970060000000 1.0
C      1  0.5060350000000  0.5302860000000  0.5976460000000 1.0
C      1  0.4069340000000  0.5376900000000  0.4832330000000 1.0
C      1  0.5067690000000  0.5994170000000  0.4825700000000 1.0
C      1  0.5964770000000  0.5245600000000  0.4821490000000 1.0
C      1  0.5528090000000  0.4159930000000  0.4828750000000 1.0
C      1  0.4358230000000  0.4247220000000  0.4834760000000 1.0
C      1  0.4068470000000  0.5379450000000  0.5175870000000 1.0
C      1  0.5066350000000  0.5996260000000  0.5180160000000 1.0
C      1  0.5964100000000  0.5247840000000  0.5181480000000 1.0
C      1  0.5524020000000  0.4163070000000  0.5176480000000 1.0
C      1  0.4356530000000  0.4249840000000  0.5174810000000 1.0
C      1  0.5027810000000  0.5250800000000  0.4763610000000 1.0
C      1  0.5272570000000  0.5066260000000  0.4765590000000 1.0
C      1  0.5184780000000  0.4768140000000  0.4781480000000 1.0
C      1  0.4869140000000  0.4773210000000  0.4825020000000 1.0
C      1  0.4765830000000  0.5086150000000  0.4771890000000 1.0
C      1  0.5053770000000  0.5276850000000  0.5238230000000 1.0
C      1  0.5298450000000  0.5094850000000  0.5226030000000 1.0
C      1  0.5214070000000  0.4801950000000  0.5205270000000 1.0
C      1  0.4776940000000  0.4600400000000  0.5221150000000 1.0
C      1  0.4801920000000  0.5105740000000  0.5236580000000 1.0
C      1  0.4310250000000  0.5691720000000  0.4464100000000 1.0
C      1  0.5441450000000  0.5869130000000  0.4450570000000 1.0
C      1  0.5960030000000  0.4849720000000  0.4446930000000 1.0
C      1  0.5131930000000  0.4039610000000  0.4455740000000 1.0
C      1  0.4127180000000  0.4565750000000  0.4463320000000 1.0
C      1  0.4306350000000  0.5695780000000  0.5541030000000 1.0
C      1  0.5433170000000  0.5871060000000  0.5555880000000 1.0
C      1  0.5949710000000  0.4855080000000  0.5554190000000 1.0
C      1  0.5136300000000  0.4045300000000  0.5541310000000 1.0
C      1  0.4114500000000  0.4568250000000  0.5559510000000 1.0
C      1  0.5596820000000  0.5051310000000  0.5852420000000 1.0
C      1  0.5215260000000  0.4445680000000  0.5826800000000 1.0
C      1  0.4524830000000  0.4621740000000  0.5839260000000 1.0
C      1  0.4465280000000  0.5333320000000  0.5837260000000 1.0
C      1  0.5134540000000  0.5599830000000  0.5851780000000 1.0
C      1  0.5609760000000  0.5049640000000  0.4149470000000 1.0
C      1  0.5226230000000  0.4434060000000  0.4163030000000 1.0
C      1  0.4532280000000  0.4615180000000  0.4183620000000 1.0
C      1  0.4469770000000  0.5326720000000  0.4170830000000 1.0
C      1  0.5140370000000  0.5600760000000  0.4157270000000 1.0
C      1  0.4579510000000  0.5248080000000  0.4574580000000 1.0
C      1  0.5109510000000  0.5475170000000  0.4561930000000 1.0
C      1  0.5492860000000  0.5046060000000  0.4552610000000 1.0
C      1  0.5203210000000  0.4547410000000  0.4568210000000 1.0
C      1  0.4623780000000  0.4690060000000  0.4617590000000 1.0
C      1  0.4582840000000  0.5256400000000  0.5425780000000 1.0
C      1  0.5108360000000  0.5488070000000  0.5448130000000 1.0
C      1  0.5500040000000  0.5060300000000  0.5444340000000 1.0
C      1  0.5202480000000  0.4564910000000  0.5404040000000 1.0
C      1  0.4575980000000  0.4649210000000  0.5423360000000 1.0
C      1  0.5062390000000  0.5237230000000  0.5655210000000 1.0
C      1  0.5243540000000  0.5005380000000  0.5632160000000 1.0
C      1  0.5069320000000  0.4763970000000  0.5597150000000 1.0
C      1  0.4780500000000  0.4835950000000  0.5586010000000 1.0
C      1  0.4783710000000  0.5134430000000  0.5652680000000 1.0
C      1  0.5070000000000  0.5234810000000  0.4347370000000 1.0
C      1  0.5247100000000  0.5000850000000  0.4352510000000 1.0
C      1  0.5077640000000  0.4761850000000  0.4376290000000 1.0
C      1  0.4800160000000  0.4844910000000  0.4409200000000 1.0
C      1  0.4793160000000  0.5138080000000  0.4357670000000 1.0
C      1  0.5773920000000  0.4592040000000  0.5207510000000 1.0
C      1  0.4840670000000  0.4145090000000  0.5193390000000 1.0
C      1  0.4084980000000  0.4883320000000  0.5222580000000 1.0
C      1  0.4610710000000  0.5801880000000  0.5213130000000 1.0
C      1  0.5632480000000  0.5615870000000  0.5209550000000 1.0
C      1  0.5780050000000  0.4588830000000  0.4787670000000 1.0
C      1  0.4849070000000  0.4120680000000  0.4774210000000 1.0
C      1  0.4104100000000  0.4882830000000  0.4803030000000 1.0
C      1  0.4613870000000  0.5794490000000  0.4793300000000 1.0
C      1  0.5634550000000  0.5614620000000  0.4789630000000 1.0
C      1  0.5357560000000  0.4667150000000  0.4992400000000 1.0
C      1  0.5005750000000  0.5408730000000  0.4996180000000 1.0
C      1  0.5425230000000  0.5163880000000  0.4986440000000 1.0
C      1  0.4719320000000  0.4473460000000  0.4961330000000 1.0
C      1  0.4623420000000  0.5131740000000  0.5012760000000 1.0
C      1  0.4923700000000  0.4836560000000  0.5147260000000 1.0
END
