TITL C-862505-1648-495 0.485153381845525 125000 -863.965662796725 0 0 150 (C1) n - 1
REM
REM in /home/nfs/bkarasulu/CARBON/AIRSS/Generating-Clusters/TERSOFF/Higher-Symm/FIRE-HFTN
REM
REM
REM
REM
REM
REM ./C.cell (b20cbc046b6831c77cfcea5457e17084)
REM AIRSS Version 0.9.1 bugfix July 2018 build 013d7b7c2542+ Fri, 06 Jul 2018 19:26:36 +0100
REM compiler GCC version 9.2.1 20190827 (Red Hat 9.2.1-1)
REM options -cpp -mtune=generic -march=x86-64 -g -O0 -fpre-include=/usr/include/finclude/math-vector-fortran.h
REM seed 682995133 -1151439719 -283895355 2119437427 -1503766164 -1993434151 -1519315338 -1889747675 2014555539 -773510210 1171091203 -218342014 -2039460903 -77517045 466175357 -1012007011 823710622 -848150106 -660185081 1157228532 -357464891 610781868 -671322397 1692866514 838733458 -1337848477 -252542649 902271023 -1178590456 -398297327 -1481741931 -1057527165 -903112272
REM
CELL 1.54180   50.00000   50.00000   50.00000   90.00000   90.00000   90.00000
LATT -1
SFAC C  
C      1  0.5508270000000  0.5213660000000  0.4282940000000 1.0
C      1  0.5172810000000  0.4405660000000  0.5029300000000 1.0
C      1  0.4171300000000  0.5582140000000  0.5722100000000 1.0
C      1  0.5141950000000  0.4396970000000  0.5974420000000 1.0
C      1  0.4737890000000  0.6093830000000  0.4733110000000 1.0
C      1  0.5832800000000  0.4641350000000  0.5450000000000 1.0
C      1  0.5671850000000  0.5763920000000  0.4899790000000 1.0
C      1  0.5696140000000  0.5055110000000  0.5736340000000 1.0
C      1  0.4465290000000  0.4861090000000  0.4291230000000 1.0
C      1  0.4762560000000  0.4394000000000  0.5325960000000 1.0
C      1  0.4745920000000  0.3956890000000  0.5298860000000 1.0
C      1  0.5646220000000  0.4895360000000  0.4998480000000 1.0
C      1  0.4015600000000  0.4497320000000  0.4936350000000 1.0
C      1  0.5202260000000  0.4671650000000  0.4097490000000 1.0
C      1  0.4901010000000  0.4667950000000  0.4130250000000 1.0
C      1  0.4912000000000  0.4664020000000  0.5294390000000 1.0
C      1  0.5042100000000  0.6072190000000  0.5201760000000 1.0
C      1  0.5357110000000  0.5195330000000  0.4545590000000 1.0
C      1  0.4428530000000  0.4536320000000  0.4749450000000 1.0
C      1  0.5318280000000  0.4033150000000  0.4878570000000 1.0
C      1  0.4743680000000  0.5030600000000  0.4803110000000 1.0
C      1  0.4867510000000  0.5440460000000  0.4223210000000 1.0
C      1  0.5389690000000  0.4485540000000  0.4233720000000 1.0
C      1  0.5143920000000  0.3790830000000  0.4868000000000 1.0
C      1  0.3905820000000  0.4977180000000  0.5322090000000 1.0
C      1  0.4769510000000  0.4343790000000  0.5621650000000 1.0
C      1  0.4372520000000  0.5043570000000  0.5620890000000 1.0
C      1  0.5791380000000  0.5343060000000  0.5653970000000 1.0
C      1  0.4187920000000  0.4437400000000  0.4419890000000 1.0
C      1  0.6028160000000  0.4810710000000  0.4647190000000 1.0
C      1  0.4355470000000  0.5430200000000  0.4061020000000 1.0
C      1  0.4347030000000  0.4265880000000  0.4826760000000 1.0
C      1  0.4849090000000  0.4692890000000  0.4732890000000 1.0
C      1  0.4996430000000  0.4022850000000  0.5473680000000 1.0
C      1  0.4247730000000  0.5487160000000  0.4561480000000 1.0
C      1  0.4721170000000  0.4152900000000  0.4674300000000 1.0
C      1  0.4834990000000  0.5965060000000  0.5372510000000 1.0
C      1  0.4495040000000  0.5154180000000  0.4627320000000 1.0
C      1  0.6010010000000  0.5267060000000  0.4262770000000 1.0
C      1  0.5270270000000  0.4148000000000  0.5386510000000 1.0
C      1  0.5884490000000  0.5310720000000  0.5003640000000 1.0
C      1  0.4443230000000  0.4731200000000  0.5788010000000 1.0
C      1  0.4793610000000  0.4420110000000  0.4577410000000 1.0
C      1  0.6064420000000  0.4858520000000  0.5176590000000 1.0
C      1  0.5708080000000  0.4251520000000  0.5143920000000 1.0
C      1  0.5447280000000  0.5960700000000  0.4443970000000 1.0
C      1  0.4762500000000  0.4437200000000  0.4270180000000 1.0
C      1  0.5358050000000  0.4242490000000  0.4651750000000 1.0
C      1  0.4840610000000  0.4078000000000  0.4909120000000 1.0
C      1  0.4113060000000  0.5466020000000  0.5223330000000 1.0
C      1  0.4217270000000  0.5022370000000  0.4341640000000 1.0
C      1  0.5065700000000  0.5664320000000  0.4392880000000 1.0
C      1  0.5109560000000  0.5128730000000  0.5060340000000 1.0
C      1  0.3998530000000  0.5093580000000  0.4784360000000 1.0
C      1  0.5249990000000  0.5380800000000  0.5001570000000 1.0
C      1  0.6092750000000  0.5597100000000  0.4659510000000 1.0
C      1  0.4077110000000  0.5127840000000  0.5544110000000 1.0
C      1  0.5820970000000  0.4818550000000  0.4433750000000 1.0
C      1  0.5173410000000  0.5179090000000  0.5664090000000 1.0
C      1  0.5025590000000  0.5509160000000  0.4861740000000 1.0
C      1  0.5994700000000  0.4678520000000  0.4911320000000 1.0
C      1  0.5466880000000  0.5768830000000  0.5143700000000 1.0
C      1  0.5211580000000  0.6163320000000  0.4484550000000 1.0
C      1  0.5439900000000  0.4098650000000  0.5133110000000 1.0
C      1  0.5667030000000  0.5165820000000  0.4924840000000 1.0
C      1  0.5007740000000  0.4615890000000  0.6124820000000 1.0
C      1  0.5108200000000  0.4763080000000  0.4626110000000 1.0
C      1  0.4872000000000  0.5317150000000  0.4709640000000 1.0
C      1  0.5823700000000  0.4393870000000  0.4898170000000 1.0
C      1  0.4031120000000  0.4597610000000  0.4629080000000 1.0
C      1  0.4556630000000  0.5267380000000  0.5839260000000 1.0
C      1  0.5375140000000  0.5352700000000  0.5797600000000 1.0
C      1  0.4016400000000  0.4895870000000  0.4564050000000 1.0
C      1  0.4315490000000  0.5266310000000  0.5074170000000 1.0
C      1  0.5147110000000  0.5477090000000  0.4025870000000 1.0
C      1  0.5671350000000  0.4339320000000  0.4628780000000 1.0
C      1  0.4972160000000  0.6151210000000  0.4933110000000 1.0
C      1  0.3849500000000  0.5423130000000  0.5093980000000 1.0
C      1  0.4555480000000  0.5862760000000  0.4781170000000 1.0
C      1  0.4425620000000  0.4044960000000  0.4637220000000 1.0
C      1  0.5184660000000  0.4935530000000  0.5818740000000 1.0
C      1  0.6169910000000  0.5371460000000  0.4486950000000 1.0
C      1  0.4094740000000  0.4785820000000  0.5230670000000 1.0
C      1  0.4217150000000  0.4384780000000  0.5207930000000 1.0
C      1  0.4572250000000  0.5024560000000  0.5403190000000 1.0
C      1  0.5590460000000  0.4624030000000  0.5927700000000 1.0
C      1  0.4499030000000  0.5660100000000  0.4569340000000 1.0
C      1  0.4515480000000  0.4223070000000  0.5208700000000 1.0
C      1  0.4846770000000  0.5392120000000  0.5881140000000 1.0
C      1  0.5339160000000  0.5714280000000  0.4314300000000 1.0
C      1  0.6042100000000  0.5183600000000  0.5209610000000 1.0
C      1  0.5012910000000  0.5519490000000  0.5392930000000 1.0
C      1  0.5243870000000  0.5746130000000  0.5740160000000 1.0
C      1  0.4751000000000  0.4922890000000  0.4162350000000 1.0
C      1  0.5399190000000  0.4424210000000  0.5829620000000 1.0
C      1  0.5347150000000  0.4596820000000  0.4699200000000 1.0
C      1  0.5421020000000  0.4374440000000  0.5536570000000 1.0
C      1  0.4637090000000  0.5516350000000  0.4031950000000 1.0
C      1  0.4955410000000  0.5124970000000  0.4249110000000 1.0
C      1  0.4458010000000  0.4588290000000  0.4393600000000 1.0
C      1  0.4828050000000  0.4900800000000  0.5432510000000 1.0
C      1  0.4106590000000  0.4440150000000  0.5478970000000 1.0
C      1  0.4940380000000  0.4266730000000  0.5092580000000 1.0
C      1  0.5262630000000  0.5086150000000  0.4126210000000 1.0
C      1  0.4691570000000  0.5425770000000  0.4493980000000 1.0
C      1  0.5517400000000  0.5561300000000  0.5601110000000 1.0
C      1  0.5596970000000  0.4724930000000  0.4776260000000 1.0
C      1  0.5652740000000  0.5955560000000  0.4664600000000 1.0
C      1  0.5467840000000  0.4904140000000  0.5911490000000 1.0
C      1  0.4986240000000  0.5586120000000  0.5682640000000 1.0
C      1  0.5332650000000  0.5201340000000  0.5408320000000 1.0
C      1  0.4236490000000  0.5321170000000  0.4307440000000 1.0
C      1  0.5227060000000  0.4883090000000  0.5010220000000 1.0
C      1  0.5181780000000  0.4653580000000  0.5169130000000 1.0
C      1  0.4790470000000  0.5395180000000  0.5239550000000 1.0
C      1  0.5574500000000  0.5046170000000  0.5451350000000 1.0
C      1  0.4945660000000  0.4890300000000  0.6011420000000 1.0
C      1  0.4854420000000  0.3788320000000  0.5003610000000 1.0
C      1  0.4582980000000  0.4459170000000  0.5815090000000 1.0
C      1  0.6034330000000  0.5325360000000  0.5475300000000 1.0
C      1  0.5394170000000  0.4631640000000  0.5355450000000 1.0
C      1  0.4496710000000  0.4731160000000  0.4957490000000 1.0
C      1  0.4554110000000  0.5943330000000  0.5297390000000 1.0
C      1  0.4312950000000  0.4906790000000  0.5094960000000 1.0
C      1  0.5823980000000  0.4748820000000  0.5731560000000 1.0
C      1  0.4879700000000  0.6151730000000  0.4463650000000 1.0
C      1  0.4245160000000  0.5260480000000  0.4779120000000 1.0
C      1  0.5055620000000  0.5731940000000  0.4677080000000 1.0
C      1  0.5913030000000  0.5576900000000  0.4891770000000 1.0
C      1  0.5330080000000  0.6013690000000  0.5241170000000 1.0
C      1  0.5119680000000  0.5037970000000  0.4517820000000 1.0
C      1  0.3818470000000  0.5129600000000  0.5046200000000 1.0
C      1  0.5777460000000  0.5087280000000  0.4290820000000 1.0
C      1  0.4639190000000  0.4954140000000  0.5931950000000 1.0
C      1  0.5717810000000  0.4371150000000  0.5417070000000 1.0
C      1  0.5655290000000  0.4556330000000  0.4396100000000 1.0
C      1  0.4824450000000  0.5141650000000  0.5088470000000 1.0
C      1  0.4167330000000  0.4677650000000  0.5640980000000 1.0
C      1  0.5444630000000  0.5489040000000  0.4141570000000 1.0
C      1  0.4359060000000  0.5479340000000  0.5912340000000 1.0
C      1  0.4989250000000  0.5209140000000  0.6069870000000 1.0
C      1  0.4074870000000  0.5415430000000  0.5509820000000 1.0
C      1  0.5628940000000  0.4810930000000  0.5289800000000 1.0
C      1  0.5450010000000  0.5294270000000  0.4804110000000 1.0
C      1  0.4975200000000  0.4198320000000  0.4270750000000 1.0
C      1  0.5149320000000  0.6003620000000  0.4749080000000 1.0
C      1  0.5346860000000  0.5505860000000  0.5283100000000 1.0
C      1  0.4454910000000  0.5812860000000  0.5054040000000 1.0
C      1  0.5255500000000  0.4243780000000  0.4352500000000 1.0
C      1  0.4226980000000  0.4148180000000  0.4436600000000 1.0
END
