TITL C-862501-1041-1207 1.58821213405551e-05 125000 -211.377375753157 0 0 36 (C1) n - 1
REM
REM in /home/nfs/bkarasulu/CARBON/AIRSS/Generating-Clusters/TERSOFF/Higher-Symm/FIRE-HFTN
REM
REM
REM
REM
REM
REM ./C.cell (b20cbc046b6831c77cfcea5457e17084)
REM AIRSS Version 0.9.1 bugfix July 2018 build 013d7b7c2542+ Fri, 06 Jul 2018 19:26:36 +0100
REM compiler GCC version 9.2.1 20190827 (Red Hat 9.2.1-1)
REM options -cpp -mtune=generic -march=x86-64 -g -O0 -fpre-include=/usr/include/finclude/math-vector-fortran.h
REM seed -883541622 -1193310135 1617671263 1952590975 -103337295 -941828768 -291786942 -988616487 -2062552659 891366495 580458452 57134402 1335188884 -285761587 -456548002 -312202178 -218061945 -685246540 -975560719 -1061561080 -1759248904 -2030967220 1034053107 188013001 255312725 -1173911912 -1919788229 527093325 -1673688084 876327755 1579884172 1880371062 -343698670
REM
CELL 1.54180   50.00000   50.00000   50.00000   90.00000   90.00000   90.00000
LATT -1
SFAC C  
C      1  0.5002050000000  0.5549460000000  0.5403600000000 1.0
C      1  0.5083970000000  0.4767530000000  0.5611120000000 1.0
C      1  0.5072830000000  0.4399010000000  0.5272750000000 1.0
C      1  0.5003760000000  0.4618510000000  0.4449720000000 1.0
C      1  0.5078690000000  0.5105710000000  0.4285820000000 1.0
C      1  0.5003380000000  0.5657670000000  0.4936930000000 1.0
C      1  0.4995800000000  0.5351010000000  0.4462140000000 1.0
C      1  0.4915370000000  0.4868320000000  0.4284030000000 1.0
C      1  0.4989780000000  0.4354860000000  0.4974420000000 1.0
C      1  0.4922910000000  0.4585120000000  0.5442940000000 1.0
C      1  0.4974540000000  0.5054520000000  0.5679650000000 1.0
C      1  0.5004830000000  0.5765960000000  0.5207840000000 1.0
C      1  0.4740470000000  0.4476130000000  0.4881000000000 1.0
C      1  0.4657440000000  0.4855330000000  0.4469030000000 1.0
C      1  0.4755420000000  0.5335200000000  0.4636310000000 1.0
C      1  0.4613910000000  0.5411200000000  0.5124700000000 1.0
C      1  0.4729430000000  0.5144380000000  0.5546220000000 1.0
C      1  0.4657070000000  0.4680500000000  0.5345610000000 1.0
C      1  0.4564170000000  0.4587170000000  0.5084040000000 1.0
C      1  0.4555220000000  0.4930480000000  0.5454910000000 1.0
C      1  0.4747540000000  0.5392600000000  0.5389010000000 1.0
C      1  0.4756240000000  0.5500330000000  0.4880650000000 1.0
C      1  0.4585260000000  0.5095800000000  0.4618440000000 1.0
C      1  0.4728140000000  0.4561570000000  0.4599950000000 1.0
C      1  0.5253390000000  0.5148880000000  0.5563560000000 1.0
C      1  0.5464680000000  0.4741680000000  0.5251210000000 1.0
C      1  0.5264820000000  0.4439340000000  0.4835990000000 1.0
C      1  0.5416620000000  0.4868950000000  0.4605500000000 1.0
C      1  0.5278040000000  0.5402290000000  0.4602840000000 1.0
C      1  0.5374580000000  0.5374120000000  0.5114480000000 1.0
C      1  0.5341530000000  0.5112560000000  0.4464070000000 1.0
C      1  0.5250700000000  0.4627290000000  0.4612440000000 1.0
C      1  0.5346370000000  0.4498200000000  0.5143710000000 1.0
C      1  0.5374650000000  0.4856170000000  0.5504320000000 1.0
C      1  0.5245740000000  0.5378020000000  0.5382590000000 1.0
C      1  0.5250650000000  0.5504140000000  0.4878460000000 1.0
END
