TITL C-862505-1648-675 -0.000146152943708603 125000 -351.744582647477 0 0 74 (C5) n - 1
REM
REM in /home/nfs/bkarasulu/CARBON/AIRSS/Generating-Clusters/TERSOFF/Higher-Symm/FIRE-HFTN
REM
REM
REM
REM
REM
REM ./C.cell (b20cbc046b6831c77cfcea5457e17084)
REM AIRSS Version 0.9.1 bugfix July 2018 build 013d7b7c2542+ Fri, 06 Jul 2018 19:26:36 +0100
REM compiler GCC version 9.2.1 20190827 (Red Hat 9.2.1-1)
REM options -cpp -mtune=generic -march=x86-64 -g -O0 -fpre-include=/usr/include/finclude/math-vector-fortran.h
REM seed -1352766167 -1416196878 2008266035 -1912945867 -198633832 1850708917 -317115939 148814148 1924541356 -1924056674 1281372401 1771733589 287746220 1891549005 -1463443863 -384228137 1304829588 1005599806 -257024523 2080756574 -2021028623 1281588208 -421578165 2023823395 477792145 -1348738569 280134950 -270364405 -1053037408 -423721038 1467677487 -2040876398 -1547850752
REM
CELL 1.54180   50.00000   50.00000   50.00000   90.00000   90.00000   90.00000
LATT -1
SFAC C  
C      1  0.5644020000000  0.4843180000000  0.4744740000000 1.0
C      1  0.5436430000000  0.4843180000000  0.5540990000000 1.0
C      1  0.4615000000000  0.4843180000000  0.5589600000000 1.0
C      1  0.4314930000000  0.4843180000000  0.4823400000000 1.0
C      1  0.4950900000000  0.4843180000000  0.4301250000000 1.0
C      1  0.4340490000000  0.5126040000000  0.4744740000000 1.0
C      1  0.4548080000000  0.5126040000000  0.5540990000000 1.0
C      1  0.5369510000000  0.5126040000000  0.5589600000000 1.0
C      1  0.5669580000000  0.5126040000000  0.4823400000000 1.0
C      1  0.5033610000000  0.5126040000000  0.4301250000000 1.0
C      1  0.5326570000000  0.4633100000000  0.5720310000000 1.0
C      1  0.4410510000000  0.4633100000000  0.5540540000000 1.0
C      1  0.4298400000000  0.4633100000000  0.4613760000000 1.0
C      1  0.5145180000000  0.4633100000000  0.4220750000000 1.0
C      1  0.5780620000000  0.4633100000000  0.4904630000000 1.0
C      1  0.4657940000000  0.5336120000000  0.5720310000000 1.0
C      1  0.5574000000000  0.5336120000000  0.5540540000000 1.0
C      1  0.5686110000000  0.5336120000000  0.4613760000000 1.0
C      1  0.4839330000000  0.5336120000000  0.4220750000000 1.0
C      1  0.4203890000000  0.5336120000000  0.4904630000000 1.0
C      1  0.5680790000000  0.4540600000000  0.5172400000000 1.0
C      1  0.5041060000000  0.4540600000000  0.5708110000000 1.0
C      1  0.4333880000000  0.4540600000000  0.5265230000000 1.0
C      1  0.4536550000000  0.4540600000000  0.4455810000000 1.0
C      1  0.5368990000000  0.4540600000000  0.4398430000000 1.0
C      1  0.4303720000000  0.5428620000000  0.5172400000000 1.0
C      1  0.4943450000000  0.5428620000000  0.5708110000000 1.0
C      1  0.5650630000000  0.5428620000000  0.5265230000000 1.0
C      1  0.5447960000000  0.5428620000000  0.4455810000000 1.0
C      1  0.4615520000000  0.5428620000000  0.4398430000000 1.0
C      1  0.4688440000000  0.4187860000000  0.4814850000000 1.0
C      1  0.5074460000000  0.4187860000000  0.4653840000000 1.0
C      1  0.5346880000000  0.4187860000000  0.4971210000000 1.0
C      1  0.5129220000000  0.4187860000000  0.5328360000000 1.0
C      1  0.4722280000000  0.4187860000000  0.5231730000000 1.0
C      1  0.5296070000000  0.5781370000000  0.4814850000000 1.0
C      1  0.4910050000000  0.5781370000000  0.4653840000000 1.0
C      1  0.4637640000000  0.5781370000000  0.4971210000000 1.0
C      1  0.4855290000000  0.5781370000000  0.5328360000000 1.0
C      1  0.5262230000000  0.5781370000000  0.5231730000000 1.0
C      1  0.5363860000000  0.4762270000000  0.4625550000000 1.0
C      1  0.5463200000000  0.4762270000000  0.5237700000000 1.0
C      1  0.4911710000000  0.4762270000000  0.5521350000000 1.0
C      1  0.4471530000000  0.4762270000000  0.5084500000000 1.0
C      1  0.4750970000000  0.4762270000000  0.4530870000000 1.0
C      1  0.4620650000000  0.5206950000000  0.4625550000000 1.0
C      1  0.4521310000000  0.5206950000000  0.5237700000000 1.0
C      1  0.5072800000000  0.5206950000000  0.5521350000000 1.0
C      1  0.5512980000000  0.5206950000000  0.5084500000000 1.0
C      1  0.5233540000000  0.5206950000000  0.4530870000000 1.0
C      1  0.4815920000000  0.5350830000000  0.5308520000000 1.0
C      1  0.4644340000000  0.5350830000000  0.4927630000000 1.0
C      1  0.4953570000000  0.5350830000000  0.4646750000000 1.0
C      1  0.5316250000000  0.5350830000000  0.4854040000000 1.0
C      1  0.5231190000000  0.5350830000000  0.5263040000000 1.0
C      1  0.5168590000000  0.4618390000000  0.5308520000000 1.0
C      1  0.5340170000000  0.4618390000000  0.4927630000000 1.0
C      1  0.5030950000000  0.4618390000000  0.4646750000000 1.0
C      1  0.4668260000000  0.4618390000000  0.4854040000000 1.0
C      1  0.4753320000000  0.4618390000000  0.5263040000000 1.0
C      1  0.5467310000000  0.5622320000000  0.5046540000000 1.0
C      1  0.5094790000000  0.5622320000000  0.5466180000000 1.0
C      1  0.4580570000000  0.5622320000000  0.5241570000000 1.0
C      1  0.4635280000000  0.5622320000000  0.4683110000000 1.0
C      1  0.5183320000000  0.5622320000000  0.4562570000000 1.0
C      1  0.4517200000000  0.4346900000000  0.5046540000000 1.0
C      1  0.4889720000000  0.4346900000000  0.5466180000000 1.0
C      1  0.5403940000000  0.4346900000000  0.5241570000000 1.0
C      1  0.5349230000000  0.4346900000000  0.4683110000000 1.0
C      1  0.4801190000000  0.4346900000000  0.4562570000000 1.0
C      1  0.4992260000000  0.4093570000000  0.5000000000000 1.0
C      1  0.4992260000000  0.5875650000000  0.5000000000000 1.0
C      1  0.4992260000000  0.4596050000000  0.5000000000000 1.0
C      1  0.4992260000000  0.5373170000000  0.5000000000000 1.0
END
