TITL C-862503-991-1190 0.444405458838143 125000 -251.110795642075 0 0 48 (C1) n - 1
REM
REM in /home/nfs/bkarasulu/CARBON/AIRSS/Generating-Clusters/TERSOFF/Higher-Symm/FIRE-HFTN
REM
REM
REM
REM
REM
REM ./C.cell (b20cbc046b6831c77cfcea5457e17084)
REM AIRSS Version 0.9.1 bugfix July 2018 build 013d7b7c2542+ Fri, 06 Jul 2018 19:26:36 +0100
REM compiler GCC version 9.2.1 20190827 (Red Hat 9.2.1-1)
REM options -cpp -mtune=generic -march=x86-64 -g -O0 -fpre-include=/usr/include/finclude/math-vector-fortran.h
REM seed -1632928646 -1043584810 -1737210031 864021046 1090813255 1382953370 2002822117 1654272227 1145264552 77214636 -1305914941 502764520 1363801468 1782738232 1451001592 -1891076104 -2021339850 -2102517420 411704640 1738876685 -1894538520 1601240633 -1808086146 1630185708 -652789803 -74179071 -1110192847 -599754090 1268010771 -1820529974 1067930642 -420927728 364970849
REM
CELL 1.54180   50.00000   50.00000   50.00000   90.00000   90.00000   90.00000
LATT -1
SFAC C  
C      1  0.4368810000000  0.4871920000000  0.5161560000000 1.0
C      1  0.4665290000000  0.4966680000000  0.4305800000000 1.0
C      1  0.5464900000000  0.4926780000000  0.4380340000000 1.0
C      1  0.5769880000000  0.4913480000000  0.5203950000000 1.0
C      1  0.4973290000000  0.4806870000000  0.5686650000000 1.0
C      1  0.4855320000000  0.5718610000000  0.5097510000000 1.0
C      1  0.4839200000000  0.5642030000000  0.4794700000000 1.0
C      1  0.5116610000000  0.5555920000000  0.4716520000000 1.0
C      1  0.5293880000000  0.5559670000000  0.4960450000000 1.0
C      1  0.5136680000000  0.5635630000000  0.5214420000000 1.0
C      1  0.4587010000000  0.4416830000000  0.5247330000000 1.0
C      1  0.4613810000000  0.4663050000000  0.4656030000000 1.0
C      1  0.5238660000000  0.4507470000000  0.4474500000000 1.0
C      1  0.5590490000000  0.4587340000000  0.4892620000000 1.0
C      1  0.5285130000000  0.4626710000000  0.5470610000000 1.0
C      1  0.5275860000000  0.4946990000000  0.5149610000000 1.0
C      1  0.4881990000000  0.5016850000000  0.5308360000000 1.0
C      1  0.4672150000000  0.5213950000000  0.5196340000000 1.0
C      1  0.4620360000000  0.5094750000000  0.4910470000000 1.0
C      1  0.4932480000000  0.5038960000000  0.4857730000000 1.0
C      1  0.5665970000000  0.4876000000000  0.4882760000000 1.0
C      1  0.5294880000000  0.4924600000000  0.5566690000000 1.0
C      1  0.4552880000000  0.4695250000000  0.5326490000000 1.0
C      1  0.4468780000000  0.4925030000000  0.4558390000000 1.0
C      1  0.5175130000000  0.4815190000000  0.4440240000000 1.0
C      1  0.4671280000000  0.4793310000000  0.5593990000000 1.0
C      1  0.4291900000000  0.4837680000000  0.4861430000000 1.0
C      1  0.4922330000000  0.4818160000000  0.4252060000000 1.0
C      1  0.5687770000000  0.4954670000000  0.4583330000000 1.0
C      1  0.5593680000000  0.5018560000000  0.5440690000000 1.0
C      1  0.5091900000000  0.5146500000000  0.5469940000000 1.0
C      1  0.4527880000000  0.5429210000000  0.5326000000000 1.0
C      1  0.4476260000000  0.5244530000000  0.4702390000000 1.0
C      1  0.5074800000000  0.5059720000000  0.4604490000000 1.0
C      1  0.5456570000000  0.5071380000000  0.4973240000000 1.0
C      1  0.5187420000000  0.4349030000000  0.4713400000000 1.0
C      1  0.5384560000000  0.4478470000000  0.5060750000000 1.0
C      1  0.5062790000000  0.4506990000000  0.5329020000000 1.0
C      1  0.4790180000000  0.4323070000000  0.5067810000000 1.0
C      1  0.4891710000000  0.4646500000000  0.4716710000000 1.0
C      1  0.5154180000000  0.5449140000000  0.5460510000000 1.0
C      1  0.4620030000000  0.5693190000000  0.5265660000000 1.0
C      1  0.4591540000000  0.5527100000000  0.4656230000000 1.0
C      1  0.5146340000000  0.5332270000000  0.4530650000000 1.0
C      1  0.5502870000000  0.5359160000000  0.4975890000000 1.0
C      1  0.4962030000000  0.5309670000000  0.5019460000000 1.0
C      1  0.5014880000000  0.4835000000000  0.5071210000000 1.0
C      1  0.5038210000000  0.4493310000000  0.4989750000000 1.0
END
