TITL C-862502-1143-198 -0.000457407764822735 125000 -793.767680999926 0 0 132 (C2) n - 1
REM
REM in /home/nfs/bkarasulu/CARBON/AIRSS/Generating-Clusters/TERSOFF/Higher-Symm/FIRE-HFTN
REM
REM
REM
REM
REM
REM ./C.cell (b20cbc046b6831c77cfcea5457e17084)
REM AIRSS Version 0.9.1 bugfix July 2018 build 013d7b7c2542+ Fri, 06 Jul 2018 19:26:36 +0100
REM compiler GCC version 9.2.1 20190827 (Red Hat 9.2.1-1)
REM options -cpp -mtune=generic -march=x86-64 -g -O0 -fpre-include=/usr/include/finclude/math-vector-fortran.h
REM seed 580057489 -4246731 -219287020 1821564656 950237613 1668250567 635689334 -1045580796 91383023 -1229541344 -293229944 1273927444 392702123 -43563711 -660643816 337796363 -279919239 1505317542 1017351018 149522338 -909701141 1306525310 219741285 343663010 -768483194 -657287307 286141277 -80060936 1549828998 176053974 -978015891 -1965338939 -642746931
REM
CELL 1.54180   50.00000   50.00000   50.00000   90.00000   90.00000   90.00000
LATT -1
SFAC C  
C      1  0.5582760000000  0.5989310000000  0.5227970000000 1.0
C      1  0.5545660000000  0.4702460000000  0.4055700000000 1.0
C      1  0.5558130000000  0.4333310000000  0.5752180000000 1.0
C      1  0.4452330000000  0.5965900000000  0.5221130000000 1.0
C      1  0.4416260000000  0.4710140000000  0.4025060000000 1.0
C      1  0.4427770000000  0.4299520000000  0.5716220000000 1.0
C      1  0.5572290000000  0.4029540000000  0.5248530000000 1.0
C      1  0.5547620000000  0.5291440000000  0.4052920000000 1.0
C      1  0.5583720000000  0.5699450000000  0.5738460000000 1.0
C      1  0.4441930000000  0.4015220000000  0.5201330000000 1.0
C      1  0.4417190000000  0.5297160000000  0.4029260000000 1.0
C      1  0.4454330000000  0.5669010000000  0.5729830000000 1.0
C      1  0.4820710000000  0.5156360000000  0.4224830000000 1.0
C      1  0.4844570000000  0.4255400000000  0.5231240000000 1.0
C      1  0.4864270000000  0.5569050000000  0.5510350000000 1.0
C      1  0.5137130000000  0.5160710000000  0.4251130000000 1.0
C      1  0.5160700000000  0.4264340000000  0.5258510000000 1.0
C      1  0.5180590000000  0.5593610000000  0.5523720000000 1.0
C      1  0.4819390000000  0.4843220000000  0.4224070000000 1.0
C      1  0.4862840000000  0.5728900000000  0.5235240000000 1.0
C      1  0.4839340000000  0.4408310000000  0.5507870000000 1.0
C      1  0.5135720000000  0.4842530000000  0.4252020000000 1.0
C      1  0.5179250000000  0.5749510000000  0.5252140000000 1.0
C      1  0.5155470000000  0.4427460000000  0.5529240000000 1.0
C      1  0.4622570000000  0.5310440000000  0.4993940000000 1.0
C      1  0.4604050000000  0.4838250000000  0.4712920000000 1.0
C      1  0.4615310000000  0.4832250000000  0.5266750000000 1.0
C      1  0.5393780000000  0.5324750000000  0.5007370000000 1.0
C      1  0.5375280000000  0.4843280000000  0.4736110000000 1.0
C      1  0.5384960000000  0.4848390000000  0.5283930000000 1.0
C      1  0.4615060000000  0.4678280000000  0.4989350000000 1.0
C      1  0.4606200000000  0.5155960000000  0.4715080000000 1.0
C      1  0.4624720000000  0.5150160000000  0.5267670000000 1.0
C      1  0.5384700000000  0.4685130000000  0.5011900000000 1.0
C      1  0.5377410000000  0.5160480000000  0.4734160000000 1.0
C      1  0.5395950000000  0.5167770000000  0.5283610000000 1.0
C      1  0.5825540000000  0.4851170000000  0.4752980000000 1.0
C      1  0.5832620000000  0.4860400000000  0.5266180000000 1.0
C      1  0.5840530000000  0.5299970000000  0.5001840000000 1.0
C      1  0.4157490000000  0.4849290000000  0.4735690000000 1.0
C      1  0.4164690000000  0.4845840000000  0.5248540000000 1.0
C      1  0.4172680000000  0.5291860000000  0.4995330000000 1.0
C      1  0.5827300000000  0.5150010000000  0.4749550000000 1.0
C      1  0.5842510000000  0.5153600000000  0.5262640000000 1.0
C      1  0.5835330000000  0.4707730000000  0.5009220000000 1.0
C      1  0.4159450000000  0.5148340000000  0.4739320000000 1.0
C      1  0.4174460000000  0.5139480000000  0.5252420000000 1.0
C      1  0.4167390000000  0.4699640000000  0.4987840000000 1.0
C      1  0.4325720000000  0.4281610000000  0.5222110000000 1.0
C      1  0.4337650000000  0.5552800000000  0.5490690000000 1.0
C      1  0.4301550000000  0.5148180000000  0.4251190000000 1.0
C      1  0.5685710000000  0.4296670000000  0.5263290000000 1.0
C      1  0.5698950000000  0.5579060000000  0.5499230000000 1.0
C      1  0.5662540000000  0.5142480000000  0.4274740000000 1.0
C      1  0.4337430000000  0.5699310000000  0.5239240000000 1.0
C      1  0.4314330000000  0.4420300000000  0.5477490000000 1.0
C      1  0.4301030000000  0.4857130000000  0.4248930000000 1.0
C      1  0.5698420000000  0.5722630000000  0.5246030000000 1.0
C      1  0.5674320000000  0.4448500000000  0.5511080000000 1.0
C      1  0.5662340000000  0.4851460000000  0.4275900000000 1.0
C      1  0.4419500000000  0.5702180000000  0.4757150000000 1.0
C      1  0.4369490000000  0.4429910000000  0.4480750000000 1.0
C      1  0.4374350000000  0.4834080000000  0.5735170000000 1.0
C      1  0.5626310000000  0.5726070000000  0.4758640000000 1.0
C      1  0.5580020000000  0.4432510000000  0.4522030000000 1.0
C      1  0.5579920000000  0.4870050000000  0.5741750000000 1.0
C      1  0.4420110000000  0.4292610000000  0.4741710000000 1.0
C      1  0.4373640000000  0.5572010000000  0.4491890000000 1.0
C      1  0.4419990000000  0.5130180000000  0.5730460000000 1.0
C      1  0.5625680000000  0.4280400000000  0.4776110000000 1.0
C      1  0.5580460000000  0.5561420000000  0.4513280000000 1.0
C      1  0.5630530000000  0.5164700000000  0.5753310000000 1.0
C      1  0.4840200000000  0.4711700000000  0.5434420000000 1.0
C      1  0.4856800000000  0.5508520000000  0.4995610000000 1.0
C      1  0.4826900000000  0.4758000000000  0.4523770000000 1.0
C      1  0.5155300000000  0.4742710000000  0.5454570000000 1.0
C      1  0.5171390000000  0.5530390000000  0.5030900000000 1.0
C      1  0.5141410000000  0.4746140000000  0.4562260000000 1.0
C      1  0.4858590000000  0.5252170000000  0.5438720000000 1.0
C      1  0.4844730000000  0.4477680000000  0.4995560000000 1.0
C      1  0.4828580000000  0.5238410000000  0.4525210000000 1.0
C      1  0.5173100000000  0.5291450000000  0.5447680000000 1.0
C      1  0.5159830000000  0.4479650000000  0.5032480000000 1.0
C      1  0.5143170000000  0.5258050000000  0.4561790000000 1.0
C      1  0.5290230000000  0.4011330000000  0.5184220000000 1.0
C      1  0.5298970000000  0.5658490000000  0.5783770000000 1.0
C      1  0.5263430000000  0.5349920000000  0.4062770000000 1.0
C      1  0.4728980000000  0.3994390000000  0.5156700000000 1.0
C      1  0.4738850000000  0.5633260000000  0.5769030000000 1.0
C      1  0.4702330000000  0.5352200000000  0.4042120000000 1.0
C      1  0.5297620000000  0.6005670000000  0.5173880000000 1.0
C      1  0.5271080000000  0.4361530000000  0.5792540000000 1.0
C      1  0.5261140000000  0.4650610000000  0.4067070000000 1.0
C      1  0.4736530000000  0.5986620000000  0.5165550000000 1.0
C      1  0.4709830000000  0.4346140000000  0.5764140000000 1.0
C      1  0.4701020000000  0.4650430000000  0.4037870000000 1.0
C      1  0.4863770000000  0.6016750000000  0.4885430000000 1.0
C      1  0.4820540000000  0.4394270000000  0.4160410000000 1.0
C      1  0.4819720000000  0.4577880000000  0.5933150000000 1.0
C      1  0.5176640000000  0.6028470000000  0.4892630000000 1.0
C      1  0.5133450000000  0.4393250000000  0.4174430000000 1.0
C      1  0.5131980000000  0.4592600000000  0.5944660000000 1.0
C      1  0.4868080000000  0.3978190000000  0.4880520000000 1.0
C      1  0.4823300000000  0.5607180000000  0.4162990000000 1.0
C      1  0.4866560000000  0.5411610000000  0.5938240000000 1.0
C      1  0.5180330000000  0.3980810000000  0.4899020000000 1.0
C      1  0.5136170000000  0.5607580000000  0.4176730000000 1.0
C      1  0.5179460000000  0.5424280000000  0.5944360000000 1.0
C      1  0.4709240000000  0.4139920000000  0.4670930000000 1.0
C      1  0.4703660000000  0.5149780000000  0.5917720000000 1.0
C      1  0.4644050000000  0.5732480000000  0.4369280000000 1.0
C      1  0.5361300000000  0.4104600000000  0.4693250000000 1.0
C      1  0.5359160000000  0.5183570000000  0.5944910000000 1.0
C      1  0.5296080000000  0.5702360000000  0.4422180000000 1.0
C      1  0.4703870000000  0.5851560000000  0.4680630000000 1.0
C      1  0.4638730000000  0.4817970000000  0.5928830000000 1.0
C      1  0.4640860000000  0.4273430000000  0.4368600000000 1.0
C      1  0.5355890000000  0.5912470000000  0.4680970000000 1.0
C      1  0.5290790000000  0.4854990000000  0.5909380000000 1.0
C      1  0.5296360000000  0.4280110000000  0.4411440000000 1.0
C      1  0.5661820000000  0.5286350000000  0.5478210000000 1.0
C      1  0.5627960000000  0.5265970000000  0.4541220000000 1.0
C      1  0.5651290000000  0.4458620000000  0.5017670000000 1.0
C      1  0.4373520000000  0.5260210000000  0.5461290000000 1.0
C      1  0.4340380000000  0.5271960000000  0.4517490000000 1.0
C      1  0.4364880000000  0.4457580000000  0.4987760000000 1.0
C      1  0.5635150000000  0.4739440000000  0.5475860000000 1.0
C      1  0.5626480000000  0.4730640000000  0.4544000000000 1.0
C      1  0.5659590000000  0.5553880000000  0.5005690000000 1.0
C      1  0.4348740000000  0.4713990000000  0.5460050000000 1.0
C      1  0.4338180000000  0.4728980000000  0.4512940000000 1.0
C      1  0.4372010000000  0.5530270000000  0.4999060000000 1.0
END
