TITL C-862134-6730-1191 2.85395072175664 125000 -845.204127427069 0 0 160 (C1) n - 1
REM
REM in /home/nfs/bkarasulu/CARBON/AIRSS/Generating-Clusters/TERSOFF/Higher-Symm/FIRE-HFTN
REM
REM
REM
REM
REM
REM ./C.cell (b20cbc046b6831c77cfcea5457e17084)
REM AIRSS Version 0.9.1 bugfix July 2018 build 013d7b7c2542+ Fri, 06 Jul 2018 19:26:36 +0100
REM compiler GCC version 9.2.1 20190827 (Red Hat 9.2.1-1)
REM options -cpp -mtune=generic -march=x86-64 -g -O0 -fpre-include=/usr/include/finclude/math-vector-fortran.h
REM seed -570226267 1357741049 1124524851 1877398364 987555384 1785035925 144845670 -358088275 1698958116 1868376931 916998508 400290327 537098411 -599797222 52446653 -506551190 995143877 -1150144181 -741456282 -592040306 -1194039466 -1251723679 63779904 210144886 2050641872 -119045788 -1352891476 -678336606 1747888680 -1149662191 -75285980 -1810326150 -791021027
REM
CELL 1.54180   50.00000   50.00000   50.00000   90.00000   90.00000   90.00000
LATT -1
SFAC C  
C      1  0.6064400000000  0.5139460000000  0.4753000000000 1.0
C      1  0.5108780000000  0.4631190000000  0.5989590000000 1.0
C      1  0.4767020000000  0.6124750000000  0.5135840000000 1.0
C      1  0.6139630000000  0.4913420000000  0.5339110000000 1.0
C      1  0.3882930000000  0.5063890000000  0.5284210000000 1.0
C      1  0.3904100000000  0.4890080000000  0.4800170000000 1.0
C      1  0.5011310000000  0.5369250000000  0.4000170000000 1.0
C      1  0.4865750000000  0.4662280000000  0.3961150000000 1.0
C      1  0.4796010000000  0.5289870000000  0.6077020000000 1.0
C      1  0.4712380000000  0.3902080000000  0.4822880000000 1.0
C      1  0.5311220000000  0.6144880000000  0.4949260000000 1.0
C      1  0.5397260000000  0.3922000000000  0.4989070000000 1.0
C      1  0.6091730000000  0.4679110000000  0.5150920000000 1.0
C      1  0.5169440000000  0.6067750000000  0.4699870000000 1.0
C      1  0.4703820000000  0.5018270000000  0.6153110000000 1.0
C      1  0.6042530000000  0.5339650000000  0.4989880000000 1.0
C      1  0.3959610000000  0.5327860000000  0.5174300000000 1.0
C      1  0.4028460000000  0.4636410000000  0.4920070000000 1.0
C      1  0.5180250000000  0.3910350000000  0.5210130000000 1.0
C      1  0.4955040000000  0.3833770000000  0.4662280000000 1.0
C      1  0.4941560000000  0.6061950000000  0.5382580000000 1.0
C      1  0.4697990000000  0.4901950000000  0.3889490000000 1.0
C      1  0.5206150000000  0.4889870000000  0.6114460000000 1.0
C      1  0.5186930000000  0.5145920000000  0.3887650000000 1.0
C      1  0.5607320000000  0.5319800000000  0.4114770000000 1.0
C      1  0.5351060000000  0.4205350000000  0.5688150000000 1.0
C      1  0.4162160000000  0.5707200000000  0.5279510000000 1.0
C      1  0.5592130000000  0.4665400000000  0.5867630000000 1.0
C      1  0.4332800000000  0.5477440000000  0.5750600000000 1.0
C      1  0.4341310000000  0.4583470000000  0.4169100000000 1.0
C      1  0.5389610000000  0.5788520000000  0.4297910000000 1.0
C      1  0.4399520000000  0.4120570000000  0.4374270000000 1.0
C      1  0.4592150000000  0.5907510000000  0.5556220000000 1.0
C      1  0.4125710000000  0.4429860000000  0.4701940000000 1.0
C      1  0.5827760000000  0.5587440000000  0.4540460000000 1.0
C      1  0.5819270000000  0.4387390000000  0.5462250000000 1.0
C      1  0.5601010000000  0.4170420000000  0.5488440000000 1.0
C      1  0.5378990000000  0.5545470000000  0.4100560000000 1.0
C      1  0.4130040000000  0.5495230000000  0.5519570000000 1.0
C      1  0.5612810000000  0.5805390000000  0.4524590000000 1.0
C      1  0.4399530000000  0.5912680000000  0.5299540000000 1.0
C      1  0.4338120000000  0.4173930000000  0.4658060000000 1.0
C      1  0.5333530000000  0.4465060000000  0.5871160000000 1.0
C      1  0.4523160000000  0.4331560000000  0.4213110000000 1.0
C      1  0.4560540000000  0.5691900000000  0.5779240000000 1.0
C      1  0.4131950000000  0.4627990000000  0.4411490000000 1.0
C      1  0.5824660000000  0.4633490000000  0.5660160000000 1.0
C      1  0.5829450000000  0.5344170000000  0.4336150000000 1.0
C      1  0.4808560000000  0.5668160000000  0.5438430000000 1.0
C      1  0.5678590000000  0.5446130000000  0.4811190000000 1.0
C      1  0.5441970000000  0.4796920000000  0.5603540000000 1.0
C      1  0.4843540000000  0.4299990000000  0.4598710000000 1.0
C      1  0.5216540000000  0.5672980000000  0.4565450000000 1.0
C      1  0.5216350000000  0.4314990000000  0.5402560000000 1.0
C      1  0.5699680000000  0.4532480000000  0.5181140000000 1.0
C      1  0.4362240000000  0.5481370000000  0.5139030000000 1.0
C      1  0.4415960000000  0.4569510000000  0.4773350000000 1.0
C      1  0.5441640000000  0.5175040000000  0.4368490000000 1.0
C      1  0.4624130000000  0.4731870000000  0.4297440000000 1.0
C      1  0.4541630000000  0.5233130000000  0.5660910000000 1.0
C      1  0.4780030000000  0.5450490000000  0.5689460000000 1.0
C      1  0.5691040000000  0.4779330000000  0.5383720000000 1.0
C      1  0.5435270000000  0.5711920000000  0.4798690000000 1.0
C      1  0.4809630000000  0.4460840000000  0.4324790000000 1.0
C      1  0.5209160000000  0.4586670000000  0.5584390000000 1.0
C      1  0.5224190000000  0.5399590000000  0.4360140000000 1.0
C      1  0.5677780000000  0.5200110000000  0.4601770000000 1.0
C      1  0.4325920000000  0.5260110000000  0.5368240000000 1.0
C      1  0.4400810000000  0.4764900000000  0.4542770000000 1.0
C      1  0.5457100000000  0.4281380000000  0.5197030000000 1.0
C      1  0.4609790000000  0.4306360000000  0.4775720000000 1.0
C      1  0.4619710000000  0.5684920000000  0.5191870000000 1.0
C      1  0.4043610000000  0.5147500000000  0.4705340000000 1.0
C      1  0.5145160000000  0.4665320000000  0.4073660000000 1.0
C      1  0.4685080000000  0.4041510000000  0.5092090000000 1.0
C      1  0.4073100000000  0.4859370000000  0.5386590000000 1.0
C      1  0.5938850000000  0.5113820000000  0.5436940000000 1.0
C      1  0.5927270000000  0.4873130000000  0.4685840000000 1.0
C      1  0.5070670000000  0.5362830000000  0.5979540000000 1.0
C      1  0.4820080000000  0.4587880000000  0.5903510000000 1.0
C      1  0.4738780000000  0.5350040000000  0.4131630000000 1.0
C      1  0.4697020000000  0.5961610000000  0.4885960000000 1.0
C      1  0.5387960000000  0.4081000000000  0.4736820000000 1.0
C      1  0.5392190000000  0.5961930000000  0.5167170000000 1.0
C      1  0.4123470000000  0.4618070000000  0.5215820000000 1.0
C      1  0.5158000000000  0.4024660000000  0.4557600000000 1.0
C      1  0.4576420000000  0.5103560000000  0.4079160000000 1.0
C      1  0.4036690000000  0.5378410000000  0.4894620000000 1.0
C      1  0.5878100000000  0.5332990000000  0.5245740000000 1.0
C      1  0.5963340000000  0.4641970000000  0.4873670000000 1.0
C      1  0.5203730000000  0.5914100000000  0.5389060000000 1.0
C      1  0.4902260000000  0.5929950000000  0.4672540000000 1.0
C      1  0.4913360000000  0.4048960000000  0.5285950000000 1.0
C      1  0.4626240000000  0.4800300000000  0.5965420000000 1.0
C      1  0.5313630000000  0.4908000000000  0.4028850000000 1.0
C      1  0.5281300000000  0.5148230000000  0.5968520000000 1.0
C      1  0.5768580000000  0.4824490000000  0.4389830000000 1.0
C      1  0.4720470000000  0.4387930000000  0.5677550000000 1.0
C      1  0.4405520000000  0.5813280000000  0.4856060000000 1.0
C      1  0.5761150000000  0.5054290000000  0.5692880000000 1.0
C      1  0.4253060000000  0.4931850000000  0.5618330000000 1.0
C      1  0.4127110000000  0.5200280000000  0.4408600000000 1.0
C      1  0.4668100000000  0.5549560000000  0.4358920000000 1.0
C      1  0.5274950000000  0.4413740000000  0.4201720000000 1.0
C      1  0.5115840000000  0.5640820000000  0.5854910000000 1.0
C      1  0.4409190000000  0.4163820000000  0.5151810000000 1.0
C      1  0.5642100000000  0.5797160000000  0.5153990000000 1.0
C      1  0.5582460000000  0.4310190000000  0.4675870000000 1.0
C      1  0.5844880000000  0.4365920000000  0.4810460000000 1.0
C      1  0.4837530000000  0.5794250000000  0.4406250000000 1.0
C      1  0.4350780000000  0.4778790000000  0.5850280000000 1.0
C      1  0.5692920000000  0.5560640000000  0.5325150000000 1.0
C      1  0.4129800000000  0.5657470000000  0.4803090000000 1.0
C      1  0.4342560000000  0.4410230000000  0.5310400000000 1.0
C      1  0.4875490000000  0.4146150000000  0.5580100000000 1.0
C      1  0.5115810000000  0.4175100000000  0.4297470000000 1.0
C      1  0.5284380000000  0.5701730000000  0.5612750000000 1.0
C      1  0.4317100000000  0.5035690000000  0.4233990000000 1.0
C      1  0.5575490000000  0.5217940000000  0.5879490000000 1.0
C      1  0.5620560000000  0.4900580000000  0.4106340000000 1.0
C      1  0.4967610000000  0.5500050000000  0.4677080000000 1.0
C      1  0.5550930000000  0.4696910000000  0.4927330000000 1.0
C      1  0.4672710000000  0.4983180000000  0.5492620000000 1.0
C      1  0.4912160000000  0.4467910000000  0.5312720000000 1.0
C      1  0.5060170000000  0.5529110000000  0.5303000000000 1.0
C      1  0.5122250000000  0.4405690000000  0.4729030000000 1.0
C      1  0.5502530000000  0.5307380000000  0.5049610000000 1.0
C      1  0.4495820000000  0.4709310000000  0.5046520000000 1.0
C      1  0.4448010000000  0.5370740000000  0.4814000000000 1.0
C      1  0.4725670000000  0.5017960000000  0.4461780000000 1.0
C      1  0.5318790000000  0.4857470000000  0.4444760000000 1.0
C      1  0.5335610000000  0.5103820000000  0.5554460000000 1.0
C      1  0.4910090000000  0.4727100000000  0.5518520000000 1.0
C      1  0.5511760000000  0.4931070000000  0.4702680000000 1.0
C      1  0.4723990000000  0.5543200000000  0.4899460000000 1.0
C      1  0.4960540000000  0.5257390000000  0.4475160000000 1.0
C      1  0.5086670000000  0.5334770000000  0.5561450000000 1.0
C      1  0.5070240000000  0.4636560000000  0.4492680000000 1.0
C      1  0.5543770000000  0.5084480000000  0.5298980000000 1.0
C      1  0.4451320000000  0.5070710000000  0.4641760000000 1.0
C      1  0.4466680000000  0.4976790000000  0.5259540000000 1.0
C      1  0.4694140000000  0.4460690000000  0.5068020000000 1.0
C      1  0.5333660000000  0.4472460000000  0.4972550000000 1.0
C      1  0.5302260000000  0.5561220000000  0.5081640000000 1.0
C      1  0.5129870000000  0.4929040000000  0.5355830000000 1.0
C      1  0.4871720000000  0.5310410000000  0.5116880000000 1.0
C      1  0.5288470000000  0.5119930000000  0.4866350000000 1.0
C      1  0.5111290000000  0.5031800000000  0.4627450000000 1.0
C      1  0.4915930000000  0.5141040000000  0.5373030000000 1.0
C      1  0.4937580000000  0.4595800000000  0.4908650000000 1.0
C      1  0.5107840000000  0.5366890000000  0.4919090000000 1.0
C      1  0.5131120000000  0.4653760000000  0.5142980000000 1.0
C      1  0.5355440000000  0.4914240000000  0.5091890000000 1.0
C      1  0.4612990000000  0.5161840000000  0.5033380000000 1.0
C      1  0.4630050000000  0.4920290000000  0.4858520000000 1.0
C      1  0.4885840000000  0.4831070000000  0.4708870000000 1.0
C      1  0.5564980000000  0.4408310000000  0.4230640000000 1.0
C      1  0.4440220000000  0.4428950000000  0.5588240000000 1.0
C      1  0.4436010000000  0.5504140000000  0.4531420000000 1.0
C      1  0.5526980000000  0.5541520000000  0.5564770000000 1.0
END
