TITL C-862507-1800-500 0.00146923581014695 125000 -168.514912689951 0 0 31 (C3) n - 1
REM
REM in /home/nfs/bkarasulu/CARBON/AIRSS/Generating-Clusters/TERSOFF/Higher-Symm/FIRE-HFTN
REM
REM
REM
REM
REM
REM ./C.cell (b20cbc046b6831c77cfcea5457e17084)
REM AIRSS Version 0.9.1 bugfix July 2018 build 013d7b7c2542+ Fri, 06 Jul 2018 19:26:36 +0100
REM compiler GCC version 9.2.1 20190827 (Red Hat 9.2.1-1)
REM options -cpp -mtune=generic -march=x86-64 -g -O0 -fpre-include=/usr/include/finclude/math-vector-fortran.h
REM seed 775594311 645358529 1577591898 -684077545 304593666 -1921629320 555903506 710574595 -304933303 1501739596 -821077135 1535339925 -874367114 -1413179807 842373828 -321328571 796448812 -402229021 -1848907305 1592806641 -1321947683 651793964 733895901 -1170963813 1160710858 47178752 124287516 -1042790302 -248885136 -2015067598 -1274934434 674351172 -315734228
REM
CELL 1.54180   50.00000   50.00000   50.00000   90.00000   90.00000   90.00000
LATT -1
SFAC C  
C      1  0.4742860000000  0.4596000000000  0.4950180000000 1.0
C      1  0.4742860000000  0.5143300000000  0.5354310000000 1.0
C      1  0.4742870000000  0.5219630000000  0.4678270000000 1.0
C      1  0.4525920000000  0.5268980000000  0.5167060000000 1.0
C      1  0.4525920000000  0.4994640000000  0.4663060000000 1.0
C      1  0.4525910000000  0.4695330000000  0.5152640000000 1.0
C      1  0.4944320000000  0.4642350000000  0.5430410000000 1.0
C      1  0.4944330000000  0.5536010000000  0.5074050000000 1.0
C      1  0.4944330000000  0.4780560000000  0.4478300000000 1.0
C      1  0.4576350000000  0.5370770000000  0.4899840000000 1.0
C      1  0.4576350000000  0.4712310000000  0.4708510000000 1.0
C      1  0.4576340000000  0.4875850000000  0.5374420000000 1.0
C      1  0.4948130000000  0.5072100000000  0.4478490000000 1.0
C      1  0.4948120000000  0.4496750000000  0.5177840000000 1.0
C      1  0.4948130000000  0.5390080000000  0.5326430000000 1.0
C      1  0.5484260000000  0.5255220000000  0.4881890000000 1.0
C      1  0.5484250000000  0.4754530000000  0.4817560000000 1.0
C      1  0.5484250000000  0.4949160000000  0.5283340000000 1.0
C      1  0.4989660000000  0.5386580000000  0.4826840000000 1.0
C      1  0.4989650000000  0.4641190000000  0.4731320000000 1.0
C      1  0.4989650000000  0.4931160000000  0.5424610000000 1.0
C      1  0.5264290000000  0.5344680000000  0.4714200000000 1.0
C      1  0.5264280000000  0.4564590000000  0.4823930000000 1.0
C      1  0.5264280000000  0.5049660000000  0.5444640000000 1.0
C      1  0.4896720000000  0.4504110000000  0.5681370000000 1.0
C      1  0.4896740000000  0.5822470000000  0.5068300000000 1.0
C      1  0.4896740000000  0.4632350000000  0.4233100000000 1.0
C      1  0.5206570000000  0.5336000000000  0.5450810000000 1.0
C      1  0.5206580000000  0.5206850000000  0.4463140000000 1.0
C      1  0.5206570000000  0.4416070000000  0.5068830000000 1.0
C      1  0.5507860000000  0.4986300000000  0.4994260000000 1.0
END
