TITL C-862134-6730-1020 -0.0128513699288586 125000 -678.5374157216 0 0 122 (C2) n - 1
REM
REM in /home/nfs/bkarasulu/CARBON/AIRSS/Generating-Clusters/TERSOFF/Higher-Symm/FIRE-HFTN
REM
REM
REM
REM
REM
REM ./C.cell (b20cbc046b6831c77cfcea5457e17084)
REM AIRSS Version 0.9.1 bugfix July 2018 build 013d7b7c2542+ Fri, 06 Jul 2018 19:26:36 +0100
REM compiler GCC version 9.2.1 20190827 (Red Hat 9.2.1-1)
REM options -cpp -mtune=generic -march=x86-64 -g -O0 -fpre-include=/usr/include/finclude/math-vector-fortran.h
REM seed -194593498 -1754615644 -1775440740 -1780673417 1461814762 2020566330 -1413321567 1970602798 591463264 2007615712 -749273922 397663501 -1553648029 -1409472676 293491486 -1719688027 -1260071534 1619815217 -1713439618 1850181802 -1057635270 1377810628 399303150 550652824 230463402 1714808148 1280475197 804699900 -2010923905 -928414852 -1051650938 712711261 -1010619457
REM
CELL 1.54180   50.00000   50.00000   50.00000   90.00000   90.00000   90.00000
LATT -1
SFAC C  
C      1  0.5952890000000  0.5105470000000  0.4854650000000 1.0
C      1  0.4049930000000  0.5105450000000  0.5138090000000 1.0
C      1  0.4034040000000  0.5105720000000  0.4841200000000 1.0
C      1  0.5968770000000  0.5105750000000  0.5151540000000 1.0
C      1  0.4696010000000  0.4782380000000  0.4524480000000 1.0
C      1  0.5306810000000  0.4782410000000  0.5468270000000 1.0
C      1  0.5307470000000  0.4774000000000  0.4492080000000 1.0
C      1  0.4695360000000  0.4774010000000  0.5500680000000 1.0
C      1  0.4707030000000  0.5062830000000  0.5545720000000 1.0
C      1  0.5295790000000  0.5062810000000  0.4447020000000 1.0
C      1  0.5335010000000  0.5071600000000  0.5508450000000 1.0
C      1  0.4667810000000  0.5071570000000  0.4484300000000 1.0
C      1  0.5376430000000  0.5118550000000  0.5957970000000 1.0
C      1  0.4626390000000  0.5118500000000  0.4034780000000 1.0
C      1  0.4618680000000  0.5121240000000  0.5970480000000 1.0
C      1  0.5384140000000  0.5121210000000  0.4022270000000 1.0
C      1  0.4179760000000  0.4600100000000  0.5141160000000 1.0
C      1  0.5823070000000  0.4600110000000  0.4851600000000 1.0
C      1  0.5833380000000  0.4597300000000  0.5156300000000 1.0
C      1  0.4169450000000  0.4597280000000  0.4836460000000 1.0
C      1  0.4391950000000  0.4400840000000  0.5308240000000 1.0
C      1  0.5610880000000  0.4400840000000  0.4684540000000 1.0
C      1  0.5615940000000  0.4403190000000  0.5325260000000 1.0
C      1  0.4386890000000  0.4403160000000  0.4667510000000 1.0
C      1  0.4447500000000  0.5224850000000  0.4883470000000 1.0
C      1  0.5555320000000  0.5224860000000  0.5109260000000 1.0
C      1  0.5535040000000  0.5147610000000  0.4850150000000 1.0
C      1  0.4467780000000  0.5147610000000  0.5142590000000 1.0
C      1  0.4689430000000  0.4645280000000  0.5756140000000 1.0
C      1  0.5313400000000  0.4645250000000  0.4236620000000 1.0
C      1  0.5279300000000  0.4660850000000  0.5726310000000 1.0
C      1  0.4723530000000  0.4660810000000  0.4266450000000 1.0
C      1  0.4710150000000  0.5707940000000  0.4571530000000 1.0
C      1  0.5292650000000  0.5707970000000  0.5421180000000 1.0
C      1  0.5294810000000  0.5708700000000  0.4574110000000 1.0
C      1  0.4708000000000  0.5708720000000  0.5418600000000 1.0
C      1  0.5225550000000  0.5951200000000  0.5255000000000 1.0
C      1  0.4777250000000  0.5951180000000  0.4737700000000 1.0
C      1  0.4776070000000  0.5950410000000  0.5251100000000 1.0
C      1  0.5226720000000  0.5950400000000  0.4741600000000 1.0
C      1  0.5288290000000  0.4282970000000  0.4569230000000 1.0
C      1  0.4714550000000  0.4282980000000  0.5423550000000 1.0
C      1  0.4711940000000  0.4275600000000  0.4569230000000 1.0
C      1  0.5290900000000  0.4275630000000  0.5423550000000 1.0
C      1  0.5422970000000  0.4645570000000  0.4732730000000 1.0
C      1  0.4579860000000  0.4645570000000  0.5260030000000 1.0
C      1  0.4578380000000  0.4630920000000  0.4748490000000 1.0
C      1  0.5424450000000  0.4630940000000  0.5244270000000 1.0
C      1  0.5276120000000  0.4354470000000  0.4269700000000 1.0
C      1  0.4726710000000  0.4354500000000  0.5723080000000 1.0
C      1  0.4740920000000  0.4368670000000  0.4275390000000 1.0
C      1  0.5261910000000  0.4368710000000  0.5717390000000 1.0
C      1  0.5450530000000  0.5547960000000  0.4363350000000 1.0
C      1  0.4552270000000  0.5547980000000  0.5629370000000 1.0
C      1  0.4551470000000  0.5550720000000  0.4357020000000 1.0
C      1  0.5451340000000  0.5550760000000  0.5635700000000 1.0
C      1  0.4383940000000  0.5114520000000  0.4377450000000 1.0
C      1  0.5618870000000  0.5114560000000  0.5615290000000 1.0
C      1  0.5604660000000  0.5110170000000  0.4379290000000 1.0
C      1  0.4398160000000  0.5110180000000  0.5613450000000 1.0
C      1  0.5253030000000  0.4030680000000  0.5219530000000 1.0
C      1  0.4749810000000  0.4030660000000  0.4773260000000 1.0
C      1  0.4761970000000  0.4024280000000  0.5236650000000 1.0
C      1  0.5240880000000  0.4024270000000  0.4756150000000 1.0
C      1  0.4214660000000  0.4893650000000  0.5554120000000 1.0
C      1  0.5788170000000  0.4893640000000  0.4438630000000 1.0
C      1  0.5807970000000  0.4899840000000  0.5567840000000 1.0
C      1  0.4194850000000  0.4899800000000  0.4424910000000 1.0
C      1  0.5894900000000  0.5395350000000  0.5283970000000 1.0
C      1  0.4107910000000  0.5395310000000  0.4708760000000 1.0
C      1  0.4138060000000  0.5381890000000  0.5254780000000 1.0
C      1  0.5864750000000  0.5381900000000  0.4737950000000 1.0
C      1  0.4662000000000  0.5250430000000  0.4710780000000 1.0
C      1  0.5340820000000  0.5250450000000  0.5281960000000 1.0
C      1  0.5335600000000  0.5233530000000  0.4677190000000 1.0
C      1  0.4667220000000  0.5233530000000  0.5315540000000 1.0
C      1  0.4760790000000  0.4845020000000  0.4033100000000 1.0
C      1  0.5242040000000  0.4845080000000  0.5959650000000 1.0
C      1  0.5258590000000  0.4839730000000  0.4010630000000 1.0
C      1  0.4744230000000  0.4839770000000  0.5982120000000 1.0
C      1  0.4734060000000  0.5377130000000  0.5834120000000 1.0
C      1  0.5268750000000  0.5377090000000  0.4158610000000 1.0
C      1  0.5267140000000  0.5377860000000  0.5832780000000 1.0
C      1  0.4735670000000  0.5377820000000  0.4159950000000 1.0
C      1  0.4108360000000  0.4853710000000  0.5286860000000 1.0
C      1  0.5894460000000  0.4853720000000  0.4705900000000 1.0
C      1  0.5914140000000  0.4852490000000  0.5301900000000 1.0
C      1  0.4088690000000  0.4852450000000  0.4690850000000 1.0
C      1  0.5181640000000  0.5478640000000  0.4710990000000 1.0
C      1  0.4821170000000  0.5478650000000  0.5281740000000 1.0
C      1  0.4827990000000  0.5484740000000  0.4712310000000 1.0
C      1  0.5174810000000  0.5484760000000  0.5280420000000 1.0
C      1  0.5691360000000  0.5382850000000  0.4465870000000 1.0
C      1  0.4311450000000  0.5382860000000  0.5526860000000 1.0
C      1  0.4293540000000  0.5392500000000  0.4446290000000 1.0
C      1  0.5709270000000  0.5392550000000  0.5546440000000 1.0
C      1  0.5357490000000  0.4205110000000  0.4985060000000 1.0
C      1  0.4645350000000  0.4205110000000  0.5007720000000 1.0
C      1  0.5002180000000  0.4378360000000  0.5288180000000 1.0
C      1  0.5000660000000  0.4378350000000  0.4704590000000 1.0
C      1  0.4994940000000  0.4996920000000  0.4735930000000 1.0
C      1  0.5007880000000  0.4996930000000  0.5256820000000 1.0
C      1  0.5000800000000  0.5489690000000  0.5924690000000 1.0
C      1  0.5002010000000  0.5489650000000  0.4068040000000 1.0
C      1  0.5304650000000  0.4519600000000  0.4988420000000 1.0
C      1  0.4698180000000  0.4519590000000  0.5004350000000 1.0
C      1  0.5001820000000  0.5715750000000  0.3884150000000 1.0
C      1  0.5000980000000  0.5715800000000  0.6108570000000 1.0
C      1  0.5821780000000  0.5537170000000  0.5007040000000 1.0
C      1  0.4181020000000  0.5537150000000  0.4985680000000 1.0
C      1  0.4978870000000  0.5120810000000  0.4396200000000 1.0
C      1  0.5023950000000  0.5120840000000  0.5596540000000 1.0
C      1  0.4999680000000  0.4815700000000  0.6109480000000 1.0
C      1  0.5003140000000  0.4815650000000  0.3883280000000 1.0
C      1  0.5001390000000  0.6266210000000  0.4996340000000 1.0
C      1  0.5001400000000  0.5944070000000  0.4996350000000 1.0
C      1  0.5001420000000  0.3897890000000  0.4996400000000 1.0
C      1  0.5001400000000  0.5577850000000  0.4996360000000 1.0
C      1  0.5001410000000  0.4810070000000  0.4996380000000 1.0
C      1  0.5001420000000  0.4516740000000  0.4996380000000 1.0
C      1  0.5001430000000  0.3598660000000  0.4996410000000 1.0
C      1  0.5001410000000  0.5229050000000  0.4996370000000 1.0
END
