TITL C-862505-1648-251 0.0045190424727011 125000 -539.433846122371 0 0 97 (C1) n - 1
REM
REM in /home/nfs/bkarasulu/CARBON/AIRSS/Generating-Clusters/TERSOFF/Higher-Symm/FIRE-HFTN
REM
REM
REM
REM
REM
REM ./C.cell (b20cbc046b6831c77cfcea5457e17084)
REM AIRSS Version 0.9.1 bugfix July 2018 build 013d7b7c2542+ Fri, 06 Jul 2018 19:26:36 +0100
REM compiler GCC version 9.2.1 20190827 (Red Hat 9.2.1-1)
REM options -cpp -mtune=generic -march=x86-64 -g -O0 -fpre-include=/usr/include/finclude/math-vector-fortran.h
REM seed -427229438 -529688346 949600414 -96561734 -618707505 42066667 -298143709 1957984653 -1385247382 889765043 -1051984538 1391882936 1215587959 1386631080 154004372 1209385914 -269198144 1949774687 -785544005 -570337187 -1563971367 736628618 446790401 918673915 -1304715940 557243178 2117902211 644236269 1140102107 91834704 356291612 -705338884 1084233732
REM
CELL 1.54180   50.00000   50.00000   50.00000   90.00000   90.00000   90.00000
LATT -1
SFAC C  
C      1  0.4582880000000  0.5769930000000  0.4550230000000 1.0
C      1  0.5177870000000  0.5729930000000  0.4472890000000 1.0
C      1  0.5458680000000  0.5699690000000  0.5016380000000 1.0
C      1  0.5187790000000  0.5695740000000  0.5428450000000 1.0
C      1  0.4463010000000  0.5654270000000  0.5174380000000 1.0
C      1  0.4585590000000  0.4248110000000  0.4513990000000 1.0
C      1  0.5198040000000  0.4259610000000  0.4478090000000 1.0
C      1  0.5454700000000  0.4280050000000  0.5033580000000 1.0
C      1  0.5189730000000  0.4301490000000  0.5449130000000 1.0
C      1  0.4454340000000  0.4319500000000  0.5154890000000 1.0
C      1  0.5888000000000  0.5283050000000  0.4599260000000 1.0
C      1  0.5633770000000  0.5328060000000  0.5738510000000 1.0
C      1  0.4491220000000  0.5293910000000  0.5862980000000 1.0
C      1  0.4090180000000  0.5323780000000  0.4825640000000 1.0
C      1  0.4884850000000  0.5286590000000  0.4038620000000 1.0
C      1  0.5887430000000  0.4678070000000  0.4606380000000 1.0
C      1  0.5626690000000  0.4707960000000  0.5756900000000 1.0
C      1  0.4483850000000  0.4671020000000  0.5847390000000 1.0
C      1  0.4076260000000  0.4686070000000  0.4793130000000 1.0
C      1  0.4917120000000  0.4685860000000  0.4036890000000 1.0
C      1  0.5380570000000  0.4808740000000  0.4588760000000 1.0
C      1  0.5539230000000  0.4810220000000  0.5239950000000 1.0
C      1  0.4932120000000  0.4809420000000  0.5605380000000 1.0
C      1  0.4480220000000  0.4815660000000  0.5171660000000 1.0
C      1  0.4726360000000  0.4805540000000  0.4537430000000 1.0
C      1  0.5378060000000  0.5168990000000  0.4564430000000 1.0
C      1  0.5531790000000  0.5177330000000  0.5232840000000 1.0
C      1  0.4945780000000  0.5171710000000  0.5627140000000 1.0
C      1  0.4486980000000  0.5178530000000  0.5182910000000 1.0
C      1  0.4708490000000  0.5169820000000  0.4536230000000 1.0
C      1  0.5809730000000  0.5149190000000  0.5074660000000 1.0
C      1  0.5179990000000  0.5163040000000  0.5873190000000 1.0
C      1  0.4284180000000  0.5148620000000  0.5438070000000 1.0
C      1  0.4376310000000  0.5168930000000  0.4447870000000 1.0
C      1  0.5333570000000  0.5162710000000  0.4220250000000 1.0
C      1  0.5822620000000  0.4818980000000  0.5080500000000 1.0
C      1  0.5156140000000  0.4854090000000  0.5822710000000 1.0
C      1  0.4280810000000  0.4826490000000  0.5425500000000 1.0
C      1  0.4420860000000  0.4857800000000  0.4485010000000 1.0
C      1  0.5313620000000  0.4853990000000  0.4279810000000 1.0
C      1  0.5688800000000  0.5131710000000  0.4462210000000 1.0
C      1  0.5705580000000  0.5163230000000  0.5514090000000 1.0
C      1  0.4728270000000  0.5133630000000  0.5869160000000 1.0
C      1  0.4191770000000  0.5143840000000  0.5028730000000 1.0
C      1  0.4717780000000  0.5125720000000  0.4207770000000 1.0
C      1  0.5686630000000  0.4827280000000  0.4470880000000 1.0
C      1  0.5702370000000  0.4857060000000  0.5522470000000 1.0
C      1  0.4723920000000  0.4826610000000  0.5857090000000 1.0
C      1  0.4162200000000  0.4839120000000  0.5022950000000 1.0
C      1  0.4724350000000  0.4824500000000  0.4196830000000 1.0
C      1  0.4480380000000  0.5609030000000  0.5469030000000 1.0
C      1  0.4309810000000  0.5663880000000  0.4517050000000 1.0
C      1  0.5197670000000  0.5641810000000  0.4196980000000 1.0
C      1  0.5738400000000  0.5638530000000  0.4925690000000 1.0
C      1  0.5229480000000  0.5631150000000  0.5711510000000 1.0
C      1  0.4464060000000  0.4359510000000  0.5450960000000 1.0
C      1  0.4314950000000  0.4366980000000  0.4477330000000 1.0
C      1  0.5252960000000  0.4365450000000  0.4212080000000 1.0
C      1  0.5733470000000  0.4331360000000  0.4937430000000 1.0
C      1  0.5239190000000  0.4380000000000  0.5731510000000 1.0
C      1  0.4363850000000  0.4601040000000  0.5595710000000 1.0
C      1  0.4238180000000  0.4643650000000  0.4557990000000 1.0
C      1  0.5185580000000  0.4638030000000  0.4127290000000 1.0
C      1  0.5850230000000  0.4601060000000  0.4879480000000 1.0
C      1  0.5352760000000  0.4640550000000  0.5817800000000 1.0
C      1  0.4372870000000  0.5370280000000  0.5612600000000 1.0
C      1  0.4228100000000  0.5385720000000  0.4578990000000 1.0
C      1  0.5151990000000  0.5366580000000  0.4110070000000 1.0
C      1  0.5848420000000  0.5364000000000  0.4871440000000 1.0
C      1  0.5360610000000  0.5386920000000  0.5810440000000 1.0
C      1  0.5245090000000  0.4751350000000  0.5425530000000 1.0
C      1  0.4788360000000  0.4698330000000  0.5326430000000 1.0
C      1  0.4595690000000  0.4736820000000  0.4869320000000 1.0
C      1  0.5042960000000  0.4711080000000  0.4595730000000 1.0
C      1  0.5385060000000  0.4723160000000  0.4926030000000 1.0
C      1  0.5242830000000  0.5232100000000  0.5428570000000 1.0
C      1  0.4800830000000  0.5283990000000  0.5333900000000 1.0
C      1  0.4594560000000  0.5243950000000  0.4872140000000 1.0
C      1  0.5033620000000  0.5271290000000  0.4589060000000 1.0
C      1  0.5386140000000  0.5259270000000  0.4913300000000 1.0
C      1  0.4766250000000  0.4308900000000  0.4740060000000 1.0
C      1  0.5050520000000  0.4409480000000  0.4690630000000 1.0
C      1  0.5210460000000  0.4464980000000  0.4958070000000 1.0
C      1  0.5007300000000  0.4460630000000  0.5238890000000 1.0
C      1  0.4630890000000  0.4450660000000  0.4952670000000 1.0
C      1  0.4768710000000  0.5678710000000  0.4757920000000 1.0
C      1  0.5044900000000  0.5573130000000  0.4688080000000 1.0
C      1  0.5212410000000  0.5515690000000  0.4947280000000 1.0
C      1  0.5013520000000  0.5522640000000  0.5231220000000 1.0
C      1  0.4635580000000  0.5528550000000  0.4964870000000 1.0
C      1  0.5243560000000  0.4992880000000  0.4969700000000 1.0
C      1  0.5021440000000  0.4993000000000  0.4769770000000 1.0
C      1  0.4860210000000  0.4989500000000  0.5212260000000 1.0
C      1  0.5150400000000  0.4992490000000  0.5248560000000 1.0
C      1  0.4773740000000  0.4991900000000  0.4928790000000 1.0
C      1  0.5402830000000  0.4169200000000  0.5297950000000 1.0
C      1  0.5403850000000  0.5821570000000  0.5275790000000 1.0
END
