TITL C-862130-1496-1172 0.00133361962397748 125000 -445.606159408449 0 0 82 (C2) n - 1
REM
REM in /home/nfs/bkarasulu/CARBON/AIRSS/Generating-Clusters/TERSOFF/Higher-Symm/FIRE-HFTN
REM
REM
REM
REM
REM
REM ./C.cell (b20cbc046b6831c77cfcea5457e17084)
REM AIRSS Version 0.9.1 bugfix July 2018 build 013d7b7c2542+ Fri, 06 Jul 2018 19:26:36 +0100
REM compiler GCC version 9.2.1 20190827 (Red Hat 9.2.1-1)
REM options -cpp -mtune=generic -march=x86-64 -g -O0 -fpre-include=/usr/include/finclude/math-vector-fortran.h
REM seed -141155719 547150065 331828166 -868109021 -1424011840 -611804702 -596916501 791367590 -343565005 352249903 320852490 -613178096 -1709409796 1483346426 648802012 -816507817 365779992 1886001668 -1090077265 140944012 580361583 -1108395469 -1258993246 -726168737 380740566 -904667882 -1536896408 852992439 1137205089 526466387 2075543531 -1252497390 1945210664
REM
CELL 1.54180   50.00000   50.00000   50.00000   90.00000   90.00000   90.00000
LATT -1
SFAC C  
C      1  0.5565160000000  0.4839210000000  0.5513110000000 1.0
C      1  0.4434840000000  0.5160790000000  0.5513110000000 1.0
C      1  0.4436590000000  0.4844970000000  0.5509920000000 1.0
C      1  0.5563410000000  0.5155030000000  0.5509920000000 1.0
C      1  0.5139300000000  0.4368150000000  0.5005040000000 1.0
C      1  0.4860700000000  0.5631850000000  0.5005040000000 1.0
C      1  0.4820910000000  0.4386990000000  0.4996650000000 1.0
C      1  0.5179090000000  0.5613010000000  0.4996650000000 1.0
C      1  0.4388790000000  0.5685930000000  0.4936070000000 1.0
C      1  0.5611210000000  0.4314070000000  0.4936070000000 1.0
C      1  0.5638640000000  0.5707970000000  0.4953770000000 1.0
C      1  0.4361360000000  0.4292030000000  0.4953770000000 1.0
C      1  0.4812340000000  0.4172600000000  0.5251520000000 1.0
C      1  0.5187660000000  0.5827400000000  0.5251520000000 1.0
C      1  0.5177310000000  0.4165480000000  0.5252110000000 1.0
C      1  0.4822690000000  0.5834520000000  0.5252110000000 1.0
C      1  0.4853680000000  0.4254770000000  0.4718780000000 1.0
C      1  0.5146320000000  0.5745230000000  0.4718780000000 1.0
C      1  0.5179520000000  0.4245160000000  0.4716500000000 1.0
C      1  0.4820480000000  0.5754840000000  0.4716500000000 1.0
C      1  0.5184700000000  0.4816700000000  0.4458840000000 1.0
C      1  0.4815300000000  0.5183300000000  0.4458840000000 1.0
C      1  0.4823030000000  0.4817730000000  0.4466970000000 1.0
C      1  0.5176970000000  0.5182270000000  0.4466970000000 1.0
C      1  0.4846970000000  0.5499900000000  0.5632240000000 1.0
C      1  0.5153030000000  0.4500100000000  0.5632240000000 1.0
C      1  0.5155440000000  0.5493940000000  0.5628150000000 1.0
C      1  0.4844560000000  0.4506060000000  0.5628150000000 1.0
C      1  0.5605280000000  0.5197570000000  0.4802390000000 1.0
C      1  0.4394720000000  0.4802430000000  0.4802390000000 1.0
C      1  0.4362930000000  0.5162050000000  0.4800090000000 1.0
C      1  0.5637070000000  0.4837950000000  0.4800090000000 1.0
C      1  0.4508780000000  0.5328710000000  0.4524940000000 1.0
C      1  0.5491220000000  0.4671290000000  0.4524940000000 1.0
C      1  0.5451890000000  0.5341160000000  0.4538840000000 1.0
C      1  0.4548110000000  0.4658840000000  0.4538840000000 1.0
C      1  0.4847160000000  0.5158330000000  0.5287280000000 1.0
C      1  0.5152840000000  0.4841670000000  0.5287280000000 1.0
C      1  0.5154000000000  0.5144750000000  0.5282510000000 1.0
C      1  0.4846000000000  0.4855250000000  0.5282510000000 1.0
C      1  0.5251710000000  0.5594800000000  0.4485750000000 1.0
C      1  0.4748290000000  0.4405200000000  0.4485750000000 1.0
C      1  0.4718500000000  0.5590690000000  0.4484030000000 1.0
C      1  0.5281500000000  0.4409310000000  0.4484030000000 1.0
C      1  0.5312030000000  0.5709040000000  0.5501340000000 1.0
C      1  0.4687970000000  0.4290960000000  0.5501340000000 1.0
C      1  0.4692770000000  0.5714250000000  0.5498860000000 1.0
C      1  0.5307230000000  0.4285750000000  0.5498860000000 1.0
C      1  0.5124550000000  0.4675780000000  0.5024520000000 1.0
C      1  0.4875450000000  0.5324220000000  0.5024520000000 1.0
C      1  0.4802010000000  0.4703450000000  0.5011850000000 1.0
C      1  0.5197990000000  0.5296550000000  0.5011850000000 1.0
C      1  0.4341120000000  0.5400030000000  0.5029980000000 1.0
C      1  0.5658880000000  0.4599970000000  0.5029980000000 1.0
C      1  0.5667090000000  0.5414230000000  0.5031860000000 1.0
C      1  0.4332910000000  0.4585770000000  0.5031860000000 1.0
C      1  0.5456240000000  0.4105540000000  0.5087870000000 1.0
C      1  0.4543760000000  0.5894460000000  0.5087870000000 1.0
C      1  0.4537660000000  0.4092740000000  0.5093710000000 1.0
C      1  0.5462340000000  0.5907260000000  0.5093710000000 1.0
C      1  0.4723900000000  0.5250680000000  0.5526260000000 1.0
C      1  0.5276100000000  0.4749320000000  0.5526260000000 1.0
C      1  0.5274700000000  0.5240310000000  0.5523900000000 1.0
C      1  0.4725300000000  0.4759690000000  0.5523900000000 1.0
C      1  0.4398940000000  0.4363530000000  0.5472010000000 1.0
C      1  0.5601060000000  0.5636470000000  0.5472010000000 1.0
C      1  0.5596890000000  0.4357850000000  0.5463400000000 1.0
C      1  0.4403110000000  0.5642150000000  0.5463400000000 1.0
C      1  0.5174500000000  0.4823610000000  0.4112800000000 1.0
C      1  0.4825500000000  0.5176390000000  0.4112800000000 1.0
C      1  0.4850820000000  0.4852390000000  0.4140490000000 1.0
C      1  0.5149180000000  0.5147610000000  0.4140490000000 1.0
C      1  0.4309320000000  0.4622270000000  0.5339620000000 1.0
C      1  0.5690680000000  0.5377730000000  0.5339620000000 1.0
C      1  0.5687000000000  0.4619910000000  0.5336900000000 1.0
C      1  0.4313000000000  0.5380090000000  0.5336900000000 1.0
C      1  0.5195320000000  0.5111190000000  0.4778190000000 1.0
C      1  0.4804680000000  0.4888810000000  0.4778190000000 1.0
C      1  0.4780490000000  0.5172520000000  0.4800760000000 1.0
C      1  0.5219510000000  0.4827480000000  0.4800760000000 1.0
C      1  0.4986670000000  0.5546230000000  0.4335350000000 1.0
C      1  0.5013330000000  0.4453770000000  0.4335350000000 1.0
END
