TITL C-862500-986-955 -0.0184200159931085 125000 -339.84467170573 0 0 60 (C3) n - 1
REM
REM in /home/nfs/bkarasulu/CARBON/AIRSS/Generating-Clusters/TERSOFF/Higher-Symm/FIRE-HFTN
REM
REM
REM
REM
REM
REM ./C.cell (b20cbc046b6831c77cfcea5457e17084)
REM AIRSS Version 0.9.1 bugfix July 2018 build 013d7b7c2542+ Fri, 06 Jul 2018 19:26:36 +0100
REM compiler GCC version 9.2.1 20190827 (Red Hat 9.2.1-1)
REM options -cpp -mtune=generic -march=x86-64 -g -O0 -fpre-include=/usr/include/finclude/math-vector-fortran.h
REM seed 908264943 -1729646671 1531374055 807926480 -2064791000 -986275455 -387106406 1321267437 -1552490969 -952507699 525696844 873421513 -2090321599 1538792071 1901026250 -1777170362 423390050 1267696256 -799091375 -222053063 -973402445 435065136 818210620 -2099354056 -1143145574 245590751 1432310046 -985230906 -1458574025 602029153 -1719225385 -962397859 1865046116
REM
CELL 1.54180   50.00000   50.00000   50.00000   90.00000   90.00000   90.00000
LATT -1
SFAC C  
C      1  0.4353790000000  0.5209260000000  0.4803770000000 1.0
C      1  0.4353790000000  0.4725430000000  0.4916880000000 1.0
C      1  0.4353790000000  0.5065310000000  0.5279340000000 1.0
C      1  0.5645420000000  0.4698100000000  0.5425260000000 1.0
C      1  0.5645420000000  0.5519230000000  0.5048830000000 1.0
C      1  0.5645420000000  0.4782670000000  0.4525920000000 1.0
C      1  0.5425000000000  0.5272630000000  0.4364630000000 1.0
C      1  0.5425000000000  0.4313440000000  0.5081580000000 1.0
C      1  0.5425000000000  0.5413930000000  0.5553790000000 1.0
C      1  0.5157570000000  0.5677580000000  0.5202630000000 1.0
C      1  0.5157570000000  0.4836690000000  0.4311880000000 1.0
C      1  0.5157570000000  0.4485730000000  0.5485490000000 1.0
C      1  0.5299030000000  0.4978580000000  0.5206980000000 1.0
C      1  0.5299030000000  0.5189960000000  0.4915070000000 1.0
C      1  0.5299030000000  0.4831460000000  0.4877960000000 1.0
C      1  0.4528930000000  0.4885230000000  0.5683160000000 1.0
C      1  0.4528940000000  0.5649020000000  0.4757820000000 1.0
C      1  0.4528930000000  0.4465750000000  0.4559020000000 1.0
C      1  0.4558850000000  0.5592750000000  0.5288680000000 1.0
C      1  0.4558850000000  0.4953630000000  0.4342330000000 1.0
C      1  0.4558850000000  0.4453620000000  0.5369000000000 1.0
C      1  0.4466480000000  0.4942950000000  0.4751880000000 1.0
C      1  0.4466480000000  0.4813650000000  0.5173470000000 1.0
C      1  0.4466480000000  0.5243400000000  0.5074650000000 1.0
C      1  0.4769010000000  0.4966810000000  0.4737310000000 1.0
C      1  0.4769010000000  0.4789100000000  0.5160090000000 1.0
C      1  0.4769010000000  0.5244090000000  0.5102600000000 1.0
C      1  0.5109440000000  0.5131140000000  0.4364800000000 1.0
C      1  0.5109440000000  0.4384330000000  0.5204030000000 1.0
C      1  0.5109440000000  0.5484530000000  0.5431170000000 1.0
C      1  0.4915190000000  0.5258940000000  0.5378700000000 1.0
C      1  0.4915190000000  0.5198490000000  0.4586400000000 1.0
C      1  0.4915190000000  0.4542570000000  0.5034900000000 1.0
C      1  0.5254920000000  0.5479170000000  0.4549210000000 1.0
C      1  0.5254920000000  0.4370020000000  0.4810420000000 1.0
C      1  0.5254920000000  0.5150810000000  0.5640370000000 1.0
C      1  0.4689250000000  0.4671380000000  0.5554990000000 1.0
C      1  0.4689250000000  0.5644940000000  0.5007100000000 1.0
C      1  0.4689250000000  0.4683680000000  0.4437910000000 1.0
C      1  0.5082790000000  0.4625260000000  0.4777170000000 1.0
C      1  0.5082790000000  0.4994390000000  0.5435950000000 1.0
C      1  0.5082790000000  0.5380340000000  0.4786880000000 1.0
C      1  0.5564330000000  0.4961760000000  0.5339530000000 1.0
C      1  0.5564330000000  0.5313160000000  0.4863360000000 1.0
C      1  0.5564330000000  0.4725080000000  0.4797120000000 1.0
C      1  0.4980290000000  0.4683110000000  0.4496910000000 1.0
C      1  0.4980290000000  0.4722750000000  0.5525980000000 1.0
C      1  0.4980290000000  0.5594130000000  0.4977110000000 1.0
C      1  0.5641040000000  0.4481080000000  0.4932770000000 1.0
C      1  0.5641040000000  0.5201230000000  0.5483010000000 1.0
C      1  0.5641040000000  0.5317680000000  0.4584220000000 1.0
C      1  0.4641040000000  0.4400180000000  0.5066810000000 1.0
C      1  0.4641040000000  0.5357770000000  0.5486060000000 1.0
C      1  0.4641040000000  0.5242050000000  0.4447130000000 1.0
C      1  0.5471570000000  0.5611390000000  0.5261800000000 1.0
C      1  0.5471570000000  0.4921030000000  0.4339620000000 1.0
C      1  0.5471570000000  0.4467580000000  0.5398580000000 1.0
C      1  0.4446050000000  0.5133120000000  0.5544900000000 1.0
C      1  0.4446050000000  0.5405340000000  0.4612270000000 1.0
C      1  0.4446040000000  0.4461550000000  0.4842830000000 1.0
END
