TITL C-862501-1041-659 -2.38716870202916e-06 125000 -269.53837855249 0 0 57 (Cs) n - 1
REM
REM in /home/nfs/bkarasulu/CARBON/AIRSS/Generating-Clusters/TERSOFF/Higher-Symm/FIRE-HFTN
REM
REM
REM
REM
REM
REM ./C.cell (b20cbc046b6831c77cfcea5457e17084)
REM AIRSS Version 0.9.1 bugfix July 2018 build 013d7b7c2542+ Fri, 06 Jul 2018 19:26:36 +0100
REM compiler GCC version 9.2.1 20190827 (Red Hat 9.2.1-1)
REM options -cpp -mtune=generic -march=x86-64 -g -O0 -fpre-include=/usr/include/finclude/math-vector-fortran.h
REM seed 1122281052 745100729 1088464736 1317380232 -522061411 -1526140456 -1598824804 1464495279 -111322631 1851807232 554981389 2061886227 1476612331 -1630315256 2139549609 1933887386 43459893 2096734240 -669170282 -505281496 1575561320 -554074221 1179350574 552640462 -2078654230 1221466814 -1002682082 1123488118 435751384 -240477791 -1588066317 185692057 1859076191
REM
CELL 1.54180   50.00000   50.00000   50.00000   90.00000   90.00000   90.00000
LATT -1
SFAC C  
C      1  0.5786390000000  0.4953720000000  0.5279680000000 1.0
C      1  0.5310580000000  0.5742820000000  0.5268270000000 1.0
C      1  0.4403920000000  0.5500530000000  0.5280290000000 1.0
C      1  0.4346200000000  0.4595790000000  0.5290000000000 1.0
C      1  0.5201100000000  0.4248480000000  0.5283740000000 1.0
C      1  0.5786390000000  0.4953720000000  0.4680900000000 1.0
C      1  0.5310580000000  0.5742820000000  0.4692310000000 1.0
C      1  0.4403910000000  0.5500530000000  0.4680290000000 1.0
C      1  0.4346200000000  0.4595790000000  0.4670590000000 1.0
C      1  0.5201100000000  0.4248480000000  0.4676840000000 1.0
C      1  0.4320560000000  0.5245810000000  0.4833620000000 1.0
C      1  0.4541890000000  0.4414050000000  0.4832800000000 1.0
C      1  0.5427830000000  0.4397360000000  0.4832590000000 1.0
C      1  0.5710980000000  0.5211210000000  0.4833810000000 1.0
C      1  0.5019830000000  0.5748930000000  0.4832550000000 1.0
C      1  0.4320560000000  0.5245810000000  0.5126960000000 1.0
C      1  0.4541890000000  0.4414040000000  0.5127780000000 1.0
C      1  0.5427830000000  0.4397360000000  0.5127990000000 1.0
C      1  0.5710980000000  0.5211210000000  0.5126780000000 1.0
C      1  0.5019830000000  0.5748930000000  0.5128030000000 1.0
C      1  0.5315660000000  0.5293260000000  0.4718210000000 1.0
C      1  0.4835260000000  0.5388480000000  0.4721440000000 1.0
C      1  0.4595420000000  0.4947520000000  0.4724660000000 1.0
C      1  0.4920510000000  0.4565120000000  0.4733050000000 1.0
C      1  0.5361360000000  0.4797200000000  0.4723510000000 1.0
C      1  0.5315660000000  0.5293260000000  0.5242370000000 1.0
C      1  0.4835260000000  0.5388480000000  0.5239140000000 1.0
C      1  0.4595420000000  0.4947520000000  0.5235920000000 1.0
C      1  0.4920510000000  0.4565120000000  0.5227530000000 1.0
C      1  0.5361360000000  0.4797200000000  0.5237070000000 1.0
C      1  0.4698250000000  0.5654110000000  0.4698130000000 1.0
C      1  0.4297740000000  0.4937550000000  0.4694130000000 1.0
C      1  0.4852350000000  0.4273120000000  0.4715730000000 1.0
C      1  0.5628610000000  0.4663410000000  0.4696110000000 1.0
C      1  0.5552670000000  0.5476340000000  0.4694270000000 1.0
C      1  0.4698250000000  0.5654110000000  0.5262460000000 1.0
C      1  0.4297740000000  0.4937550000000  0.5266460000000 1.0
C      1  0.4852350000000  0.4273120000000  0.5244860000000 1.0
C      1  0.5628610000000  0.4663410000000  0.5264480000000 1.0
C      1  0.5552670000000  0.5476340000000  0.5266320000000 1.0
C      1  0.5293070000000  0.5046680000000  0.5420660000000 1.0
C      1  0.5087270000000  0.5411690000000  0.5397020000000 1.0
C      1  0.4756720000000  0.5153890000000  0.5417310000000 1.0
C      1  0.4739930000000  0.4735940000000  0.5423230000000 1.0
C      1  0.5149710000000  0.4653690000000  0.5426750000000 1.0
C      1  0.5293070000000  0.5046680000000  0.4539920000000 1.0
C      1  0.5087270000000  0.5411690000000  0.4563570000000 1.0
C      1  0.4756720000000  0.5153890000000  0.4543280000000 1.0
C      1  0.4739930000000  0.4735940000000  0.4537350000000 1.0
C      1  0.5149710000000  0.4653690000000  0.4533830000000 1.0
C      1  0.5151280000000  0.4676660000000  0.4980290000000 1.0
C      1  0.5080530000000  0.5360770000000  0.4980290000000 1.0
C      1  0.4707210000000  0.5172540000000  0.4980290000000 1.0
C      1  0.4739430000000  0.4754040000000  0.4980290000000 1.0
C      1  0.5352970000000  0.5045010000000  0.4980290000000 1.0
C      1  0.4994820000000  0.4951840000000  0.4397930000000 1.0
C      1  0.4994820000000  0.4951840000000  0.5562650000000 1.0
END
