TITL C-862507-1800-1427 0.0714782352439227 125000 -926.44578820862 0 0 163 (S4) n - 1
REM
REM in /home/nfs/bkarasulu/CARBON/AIRSS/Generating-Clusters/TERSOFF/Higher-Symm/FIRE-HFTN
REM
REM
REM
REM
REM
REM ./C.cell (b20cbc046b6831c77cfcea5457e17084)
REM AIRSS Version 0.9.1 bugfix July 2018 build 013d7b7c2542+ Fri, 06 Jul 2018 19:26:36 +0100
REM compiler GCC version 9.2.1 20190827 (Red Hat 9.2.1-1)
REM options -cpp -mtune=generic -march=x86-64 -g -O0 -fpre-include=/usr/include/finclude/math-vector-fortran.h
REM seed 347640391 1716468452 -752314503 1365502077 -1760843074 -48858252 1528606373 562951424 3604267 -39034261 -2143078140 -1929705149 9031818 516717277 -1986058394 331287406 -1785007221 735099988 1207893279 1685358554 2047182891 -434476862 621002350 -1481020981 122728990 928462901 -437373755 40634440 603288354 -225750603 -412173337 -2106238174 -1053611881
REM
CELL 1.54180   50.00000   50.00000   50.00000   90.00000   90.00000   90.00000
LATT -1
SFAC C  
C      1  0.5881590000000  0.4427200000000  0.5735750000000 1.0
C      1  0.4121780000000  0.4267270000000  0.4429250000000 1.0
C      1  0.5881590000000  0.5573770000000  0.4269320000000 1.0
C      1  0.4121780000000  0.5733700000000  0.5575820000000 1.0
C      1  0.4649070000000  0.5923990000000  0.5674370000000 1.0
C      1  0.5354300000000  0.4328650000000  0.5926040000000 1.0
C      1  0.4649070000000  0.4076980000000  0.4330700000000 1.0
C      1  0.5354300000000  0.5672320000000  0.4079030000000 1.0
C      1  0.5665230000000  0.4271100000000  0.4734920000000 1.0
C      1  0.4338140000000  0.5268100000000  0.4273140000000 1.0
C      1  0.5665230000000  0.5729880000000  0.5270140000000 1.0
C      1  0.4338140000000  0.4732880000000  0.5731920000000 1.0
C      1  0.5026570000000  0.6084460000000  0.5134420000000 1.0
C      1  0.4976800000000  0.4868600000000  0.6086510000000 1.0
C      1  0.5026570000000  0.3916510000000  0.4870640000000 1.0
C      1  0.4976800000000  0.5132380000000  0.3918560000000 1.0
C      1  0.4063250000000  0.5198030000000  0.4341680000000 1.0
C      1  0.5940110000000  0.5661350000000  0.5200080000000 1.0
C      1  0.4063260000000  0.4802940000000  0.5663390000000 1.0
C      1  0.5940110000000  0.4339630000000  0.4804990000000 1.0
C      1  0.4272220000000  0.5683140000000  0.5056120000000 1.0
C      1  0.5731150000000  0.4946900000000  0.5685190000000 1.0
C      1  0.4272220000000  0.4317830000000  0.4948950000000 1.0
C      1  0.5731140000000  0.5054070000000  0.4319880000000 1.0
C      1  0.4475380000000  0.4624270000000  0.5447800000000 1.0
C      1  0.5527990000000  0.4555220000000  0.4626320000000 1.0
C      1  0.4475380000000  0.5376700000000  0.4557270000000 1.0
C      1  0.5527990000000  0.5445750000000  0.5378750000000 1.0
C      1  0.5030660000000  0.4092370000000  0.5594340000000 1.0
C      1  0.4972710000000  0.4408680000000  0.4094420000000 1.0
C      1  0.5030660000000  0.5908600000000  0.4410730000000 1.0
C      1  0.4972710000000  0.5592290000000  0.5910650000000 1.0
C      1  0.5084280000000  0.4282980000000  0.5819900000000 1.0
C      1  0.4919090000000  0.4183120000000  0.4285030000000 1.0
C      1  0.5084280000000  0.5717990000000  0.4185160000000 1.0
C      1  0.4919090000000  0.5817860000000  0.5720040000000 1.0
C      1  0.5181170000000  0.5381470000000  0.5875110000000 1.0
C      1  0.4822200000000  0.4127910000000  0.5383520000000 1.0
C      1  0.5181170000000  0.4619500000000  0.4129960000000 1.0
C      1  0.4822200000000  0.5873060000000  0.4621550000000 1.0
C      1  0.5461400000000  0.4601320000000  0.5969120000000 1.0
C      1  0.4541960000000  0.4033900000000  0.4603370000000 1.0
C      1  0.5461400000000  0.5399650000000  0.4035950000000 1.0
C      1  0.4541960000000  0.5967070000000  0.5401700000000 1.0
C      1  0.4813070000000  0.4838890000000  0.4852560000000 1.0
C      1  0.5190300000000  0.5150460000000  0.4840930000000 1.0
C      1  0.4813070000000  0.5162090000000  0.5152510000000 1.0
C      1  0.5190300000000  0.4850510000000  0.5164130000000 1.0
C      1  0.5875800000000  0.5215410000000  0.5671890000000 1.0
C      1  0.4127570000000  0.4331130000000  0.5217460000000 1.0
C      1  0.5875800000000  0.4785560000000  0.4333170000000 1.0
C      1  0.4127560000000  0.5669850000000  0.4787610000000 1.0
C      1  0.5651500000000  0.5417490000000  0.5660860000000 1.0
C      1  0.4351870000000  0.4342160000000  0.5419540000000 1.0
C      1  0.5651500000000  0.4583480000000  0.4344210000000 1.0
C      1  0.4351870000000  0.5658810000000  0.4585530000000 1.0
C      1  0.4956560000000  0.5470340000000  0.5487380000000 1.0
C      1  0.5046810000000  0.4515640000000  0.5472380000000 1.0
C      1  0.4956550000000  0.4530640000000  0.4517680000000 1.0
C      1  0.5046810000000  0.5485340000000  0.4532680000000 1.0
C      1  0.5700410000000  0.4740240000000  0.4837340000000 1.0
C      1  0.4302960000000  0.5165680000000  0.4742280000000 1.0
C      1  0.5700410000000  0.5260740000000  0.5167730000000 1.0
C      1  0.4302960000000  0.4835290000000  0.5262790000000 1.0
C      1  0.5266490000000  0.4572410000000  0.5098550000000 1.0
C      1  0.4736870000000  0.4904470000000  0.4574450000000 1.0
C      1  0.5266490000000  0.5428570000000  0.4906520000000 1.0
C      1  0.4736870000000  0.5096500000000  0.5430610000000 1.0
C      1  0.4535860000000  0.5886050000000  0.4548890000000 1.0
C      1  0.5467510000000  0.5454130000000  0.5888100000000 1.0
C      1  0.4535860000000  0.4114920000000  0.5456180000000 1.0
C      1  0.5467510000000  0.4546840000000  0.4116970000000 1.0
C      1  0.4009330000000  0.4848270000000  0.5370980000000 1.0
C      1  0.5994040000000  0.4632040000000  0.4850320000000 1.0
C      1  0.4009330000000  0.5152700000000  0.4634090000000 1.0
C      1  0.5994040000000  0.5368930000000  0.5154750000000 1.0
C      1  0.5100810000000  0.4391010000000  0.4935960000000 1.0
C      1  0.4902560000000  0.5067060000000  0.4393060000000 1.0
C      1  0.5100810000000  0.5609960000000  0.5069110000000 1.0
C      1  0.4902560000000  0.4933910000000  0.5612010000000 1.0
C      1  0.4412640000000  0.5453380000000  0.5955240000000 1.0
C      1  0.5590730000000  0.4047780000000  0.5455420000000 1.0
C      1  0.4412640000000  0.4547600000000  0.4049830000000 1.0
C      1  0.5590730000000  0.5953190000000  0.4549640000000 1.0
C      1  0.5540880000000  0.4018260000000  0.4830700000000 1.0
C      1  0.4462490000000  0.5172320000000  0.4020310000000 1.0
C      1  0.5540880000000  0.5982720000000  0.5174370000000 1.0
C      1  0.4462490000000  0.4828650000000  0.5984760000000 1.0
C      1  0.5136240000000  0.4856110000000  0.4322960000000 1.0
C      1  0.4867130000000  0.5680060000000  0.4858150000000 1.0
C      1  0.5136240000000  0.5144870000000  0.5682110000000 1.0
C      1  0.4867130000000  0.4320910000000  0.5146910000000 1.0
C      1  0.4285050000000  0.5830460000000  0.5337170000000 1.0
C      1  0.5718320000000  0.4665850000000  0.5832510000000 1.0
C      1  0.4285050000000  0.4170510000000  0.4667900000000 1.0
C      1  0.5718320000000  0.5335120000000  0.4172560000000 1.0
C      1  0.5520240000000  0.5470270000000  0.4517290000000 1.0
C      1  0.4483130000000  0.5485730000000  0.5472320000000 1.0
C      1  0.5520240000000  0.4530700000000  0.5487770000000 1.0
C      1  0.4483130000000  0.4515250000000  0.4532750000000 1.0
C      1  0.5088700000000  0.3810560000000  0.4591060000000 1.0
C      1  0.4914670000000  0.5411960000000  0.3812600000000 1.0
C      1  0.5088700000000  0.6190420000000  0.5414010000000 1.0
C      1  0.4914670000000  0.4589010000000  0.6192470000000 1.0
C      1  0.4656350000000  0.4659960000000  0.5017030000000 1.0
C      1  0.5347020000000  0.4985990000000  0.4662010000000 1.0
C      1  0.4656350000000  0.5341010000000  0.4988040000000 1.0
C      1  0.5347020000000  0.5014980000000  0.5343060000000 1.0
C      1  0.5618790000000  0.4932210000000  0.5415880000000 1.0
C      1  0.4384570000000  0.4587140000000  0.4934260000000 1.0
C      1  0.5618790000000  0.5068760000000  0.4589180000000 1.0
C      1  0.4384570000000  0.5413840000000  0.5070810000000 1.0
C      1  0.4024370000000  0.4846020000000  0.4664230000000 1.0
C      1  0.5979000000000  0.5338790000000  0.4848070000000 1.0
C      1  0.4024370000000  0.5154950000000  0.5340840000000 1.0
C      1  0.5979000000000  0.4662180000000  0.5157000000000 1.0
C      1  0.5241560000000  0.5305610000000  0.5411280000000 1.0
C      1  0.4761810000000  0.4591740000000  0.5307650000000 1.0
C      1  0.5241560000000  0.4695370000000  0.4593790000000 1.0
C      1  0.4761810000000  0.5409230000000  0.4697420000000 1.0
C      1  0.6072200000000  0.4757490000000  0.4567330000000 1.0
C      1  0.3931170000000  0.5435690000000  0.4759540000000 1.0
C      1  0.6072200000000  0.5243490000000  0.5437730000000 1.0
C      1  0.3931170000000  0.4565290000000  0.5245530000000 1.0
C      1  0.5117730000000  0.5913880000000  0.5524610000000 1.0
C      1  0.4885640000000  0.4478420000000  0.5915930000000 1.0
C      1  0.5117730000000  0.4087090000000  0.4480460000000 1.0
C      1  0.4885640000000  0.5522560000000  0.4089140000000 1.0
C      1  0.4704020000000  0.5331740000000  0.5610440000000 1.0
C      1  0.5299350000000  0.4392580000000  0.5333790000000 1.0
C      1  0.4704020000000  0.4669230000000  0.4394630000000 1.0
C      1  0.5299350000000  0.5608390000000  0.4671280000000 1.0
C      1  0.5720370000000  0.4683170000000  0.5306810000000 1.0
C      1  0.4283000000000  0.4696210000000  0.4685220000000 1.0
C      1  0.5720370000000  0.5317800000000  0.4698260000000 1.0
C      1  0.4283000000000  0.5304760000000  0.5319850000000 1.0
C      1  0.5257920000000  0.4710820000000  0.5618450000000 1.0
C      1  0.4745450000000  0.4384570000000  0.4712860000000 1.0
C      1  0.5257920000000  0.5290160000000  0.4386620000000 1.0
C      1  0.4745450000000  0.5616400000000  0.5292200000000 1.0
C      1  0.4660330000000  0.5287290000000  0.5893330000000 1.0
C      1  0.5343040000000  0.4109690000000  0.5289340000000 1.0
C      1  0.4660330000000  0.4713680000000  0.4111740000000 1.0
C      1  0.5343040000000  0.5891280000000  0.4715730000000 1.0
C      1  0.5241490000000  0.5187320000000  0.4089470000000 1.0
C      1  0.4761870000000  0.5913550000000  0.5189360000000 1.0
C      1  0.5241490000000  0.4813660000000  0.5915600000000 1.0
C      1  0.4761870000000  0.4087420000000  0.4815700000000 1.0
C      1  0.4180320000000  0.4504470000000  0.4242280000000 1.0
C      1  0.5823040000000  0.5760740000000  0.4506520000000 1.0
C      1  0.4180320000000  0.5496500000000  0.5762790000000 1.0
C      1  0.5823040000000  0.4240230000000  0.5498550000000 1.0
C      1  0.5232650000000  0.4265540000000  0.4688570000000 1.0
C      1  0.4770720000000  0.5314450000000  0.4267590000000 1.0
C      1  0.5232650000000  0.5735430000000  0.5316490000000 1.0
C      1  0.4770720000000  0.4686530000000  0.5737480000000 1.0
C      1  0.5304920000000  0.4002980000000  0.5008220000000 1.0
C      1  0.4698450000000  0.4994800000000  0.4005030000000 1.0
C      1  0.5304920000000  0.5998000000000  0.4996850000000 1.0
C      1  0.4698450000000  0.5006170000000  0.6000040000000 1.0
C      1  0.4411150000000  0.5000490000000  0.5002530000000 1.0
C      1  0.5592220000000  0.5000490000000  0.5002530000000 1.0
C      1  0.5001680000000  0.5000490000000  0.5002530000000 1.0
END
