TITL C-862507-1800-675 0.00139219755389009 125000 -952.210302602947 0 0 170 (C3) n - 1
REM
REM in /home/nfs/bkarasulu/CARBON/AIRSS/Generating-Clusters/TERSOFF/Higher-Symm/FIRE-HFTN
REM
REM
REM
REM
REM
REM ./C.cell (b20cbc046b6831c77cfcea5457e17084)
REM AIRSS Version 0.9.1 bugfix July 2018 build 013d7b7c2542+ Fri, 06 Jul 2018 19:26:36 +0100
REM compiler GCC version 9.2.1 20190827 (Red Hat 9.2.1-1)
REM options -cpp -mtune=generic -march=x86-64 -g -O0 -fpre-include=/usr/include/finclude/math-vector-fortran.h
REM seed -650692205 -227341871 1812026205 -183900213 1577843331 -1927458890 -67008019 -2034481528 -1420700820 1330484517 902165994 -1851336171 -2139966577 -1542341152 1709787230 -107797488 -1613170844 -1636659375 678457353 -944599908 -1037293180 1244074039 -152238605 720655260 2139588885 1212165604 94247934 1108116965 167266512 -1450412481 2029625695 1145311640 1251254432
REM
CELL 1.54180   50.00000   50.00000   50.00000   90.00000   90.00000   90.00000
LATT -1
SFAC C  
C      1  0.5698160000000  0.5268790000000  0.5584440000000 1.0
C      1  0.4145740000000  0.5268790000000  0.5310530000000 1.0
C      1  0.5159170000000  0.5268790000000  0.4103050000000 1.0
C      1  0.5699570000000  0.4714390000000  0.5583850000000 1.0
C      1  0.4145550000000  0.4714390000000  0.5312040000000 1.0
C      1  0.5157950000000  0.4714390000000  0.4102120000000 1.0
C      1  0.4800370000000  0.6061840000000  0.4440410000000 1.0
C      1  0.5585400000000  0.6061840000000  0.5105030000000 1.0
C      1  0.4617300000000  0.6061840000000  0.5452580000000 1.0
C      1  0.4803410000000  0.3928110000000  0.4444130000000 1.0
C      1  0.5580660000000  0.3928110000000  0.5105800000000 1.0
C      1  0.4619010000000  0.3928110000000  0.5448080000000 1.0
C      1  0.4364630000000  0.4212090000000  0.4346650000000 1.0
C      1  0.5884470000000  0.4212090000000  0.4774540000000 1.0
C      1  0.4753980000000  0.4212090000000  0.5876820000000 1.0
C      1  0.4365960000000  0.5767660000000  0.4342200000000 1.0
C      1  0.5887660000000  0.5767660000000  0.4777920000000 1.0
C      1  0.4749460000000  0.5767660000000  0.5877890000000 1.0
C      1  0.5676920000000  0.5315720000000  0.4859540000000 1.0
C      1  0.4784150000000  0.5315720000000  0.5654580000000 1.0
C      1  0.4542010000000  0.5315720000000  0.4483900000000 1.0
C      1  0.5669970000000  0.4677550000000  0.4869860000000 1.0
C      1  0.4778690000000  0.4677550000000  0.5643410000000 1.0
C      1  0.4554420000000  0.4677550000000  0.4484750000000 1.0
C      1  0.4360900000000  0.4714290000000  0.4932440000000 1.0
C      1  0.5379020000000  0.4714290000000  0.4478430000000 1.0
C      1  0.5263150000000  0.4714290000000  0.5587150000000 1.0
C      1  0.4357860000000  0.5274380000000  0.4933790000000 1.0
C      1  0.5379370000000  0.5274380000000  0.4475120000000 1.0
C      1  0.5265840000000  0.5274380000000  0.5589110000000 1.0
C      1  0.5969990000000  0.4818710000000  0.4510010000000 1.0
C      1  0.4940320000000  0.4818710000000  0.6083150000000 1.0
C      1  0.4092780000000  0.4818710000000  0.4404860000000 1.0
C      1  0.5974870000000  0.5151790000000  0.4500240000000 1.0
C      1  0.4946330000000  0.5151790000000  0.6092260000000 1.0
C      1  0.4081870000000  0.5151790000000  0.4405510000000 1.0
C      1  0.5823920000000  0.4303200000000  0.4474850000000 1.0
C      1  0.5043800000000  0.4303200000000  0.5974230000000 1.0
C      1  0.4135360000000  0.4303200000000  0.4548940000000 1.0
C      1  0.5826040000000  0.5673880000000  0.4478360000000 1.0
C      1  0.5039700000000  0.5673880000000  0.5974320000000 1.0
C      1  0.4137330000000  0.5673880000000  0.4545340000000 1.0
C      1  0.5081160000000  0.3927030000000  0.4525280000000 1.0
C      1  0.5371500000000  0.3927030000000  0.5305760000000 1.0
C      1  0.4550420000000  0.3927030000000  0.5166970000000 1.0
C      1  0.5077830000000  0.6067080000000  0.4523820000000 1.0
C      1  0.5374440000000  0.6067080000000  0.5303610000000 1.0
C      1  0.4550810000000  0.6067080000000  0.5170590000000 1.0
C      1  0.5718160000000  0.4834070000000  0.5321020000000 1.0
C      1  0.4363880000000  0.4834070000000  0.5459560000000 1.0
C      1  0.4921040000000  0.4834070000000  0.4217440000000 1.0
C      1  0.5719320000000  0.5152880000000  0.5318090000000 1.0
C      1  0.4365840000000  0.5152880000000  0.5462020000000 1.0
C      1  0.4917930000000  0.5152880000000  0.4217910000000 1.0
C      1  0.4979770000000  0.5179050000000  0.4559270000000 1.0
C      1  0.5392770000000  0.5179050000000  0.5200960000000 1.0
C      1  0.4630540000000  0.5179050000000  0.5237780000000 1.0
C      1  0.4986120000000  0.4833690000000  0.4562960000000 1.0
C      1  0.5386390000000  0.4833690000000  0.5204620000000 1.0
C      1  0.4630570000000  0.4833690000000  0.5230440000000 1.0
C      1  0.5291060000000  0.4182730000000  0.5849360000000 1.0
C      1  0.4119870000000  0.4182730000000  0.4825510000000 1.0
C      1  0.5592150000000  0.4182730000000  0.4323150000000 1.0
C      1  0.5286510000000  0.5796470000000  0.5849970000000 1.0
C      1  0.4121620000000  0.5796470000000  0.4821260000000 1.0
C      1  0.5594950000000  0.5796470000000  0.4326790000000 1.0
C      1  0.4390910000000  0.4324950000000  0.5479680000000 1.0
C      1  0.4890090000000  0.4324950000000  0.4230790000000 1.0
C      1  0.5722080000000  0.4324950000000  0.5287540000000 1.0
C      1  0.4389570000000  0.5660870000000  0.5477320000000 1.0
C      1  0.4892810000000  0.5660870000000  0.4230810000000 1.0
C      1  0.5720700000000  0.5660870000000  0.5289880000000 1.0
C      1  0.5497710000000  0.4437570000000  0.5032730000000 1.0
C      1  0.4723770000000  0.4437570000000  0.5412790000000 1.0
C      1  0.4781600000000  0.4437570000000  0.4552500000000 1.0
C      1  0.5494720000000  0.5555490000000  0.5033740000000 1.0
C      1  0.4724390000000  0.5555490000000  0.5409690000000 1.0
C      1  0.4783970000000  0.5555490000000  0.4554590000000 1.0
C      1  0.4626210000000  0.5837000000000  0.4502880000000 1.0
C      1  0.5618380000000  0.5837000000000  0.4922970000000 1.0
C      1  0.4758490000000  0.5837000000000  0.5572170000000 1.0
C      1  0.4626480000000  0.4150760000000  0.4506890000000 1.0
C      1  0.5614770000000  0.4150760000000  0.4921190000000 1.0
C      1  0.4761830000000  0.4150760000000  0.5569930000000 1.0
C      1  0.4004440000000  0.4591870000000  0.4585200000000 1.0
C      1  0.5857970000000  0.4591870000000  0.4343340000000 1.0
C      1  0.5140660000000  0.4591870000000  0.6069480000000 1.0
C      1  0.4003030000000  0.5385390000000  0.4586140000000 1.0
C      1  0.5857870000000  0.5385390000000  0.4341650000000 1.0
C      1  0.5142180000000  0.5385390000000  0.6070230000000 1.0
C      1  0.5488290000000  0.5145250000000  0.5758520000000 1.0
C      1  0.4099930000000  0.5145250000000  0.5041740000000 1.0
C      1  0.5414860000000  0.5145250000000  0.4197770000000 1.0
C      1  0.5486870000000  0.4836480000000  0.5757940000000 1.0
C      1  0.4101140000000  0.4836480000000  0.5040800000000 1.0
C      1  0.5415070000000  0.4836480000000  0.4199280000000 1.0
C      1  0.6138620000000  0.5153500000000  0.4973140000000 1.0
C      1  0.4454920000000  0.5153500000000  0.5997620000000 1.0
C      1  0.4409540000000  0.5153500000000  0.4027260000000 1.0
C      1  0.6135470000000  0.4837140000000  0.4979420000000 1.0
C      1  0.4451060000000  0.4837140000000  0.5991750000000 1.0
C      1  0.4416560000000  0.4837140000000  0.4026840000000 1.0
C      1  0.5271480000000  0.4792160000000  0.4934030000000 1.0
C      1  0.4922360000000  0.4792160000000  0.5266220000000 1.0
C      1  0.4809240000000  0.4792160000000  0.4797770000000 1.0
C      1  0.5276740000000  0.5211670000000  0.4930650000000 1.0
C      1  0.4922660000000  0.5211670000000  0.5272460000000 1.0
C      1  0.4803680000000  0.5211670000000  0.4794910000000 1.0
C      1  0.5709870000000  0.5561160000000  0.5586440000000 1.0
C      1  0.4138160000000  0.5561160000000  0.5319660000000 1.0
C      1  0.5155050000000  0.5561160000000  0.4091910000000 1.0
C      1  0.5712730000000  0.4422110000000  0.5584650000000 1.0
C      1  0.4138290000000  0.4422110000000  0.5323040000000 1.0
C      1  0.5152070000000  0.4422110000000  0.4090330000000 1.0
C      1  0.5634720000000  0.4628420000000  0.4136330000000 1.0
C      1  0.5431570000000  0.4628420000000  0.5979640000000 1.0
C      1  0.3936790000000  0.4628420000000  0.4882050000000 1.0
C      1  0.5635180000000  0.5352860000000  0.4135070000000 1.0
C      1  0.5432430000000  0.5352860000000  0.5980660000000 1.0
C      1  0.3935470000000  0.5352860000000  0.4882280000000 1.0
C      1  0.4708700000000  0.5199350000000  0.3966450000000 1.0
C      1  0.6041700000000  0.5199350000000  0.5262620000000 1.0
C      1  0.4252680000000  0.5199350000000  0.5768950000000 1.0
C      1  0.4717430000000  0.4872290000000  0.3978280000000 1.0
C      1  0.6027090000000  0.4872290000000  0.5264270000000 1.0
C      1  0.4258560000000  0.4872290000000  0.5755470000000 1.0
C      1  0.4009180000000  0.4360100000000  0.5039510000000 1.0
C      1  0.5462160000000  0.4360100000000  0.4120290000000 1.0
C      1  0.5531730000000  0.4360100000000  0.5838220000000 1.0
C      1  0.4009090000000  0.5622160000000  0.5036610000000 1.0
C      1  0.5464720000000  0.5622160000000  0.4121660000000 1.0
C      1  0.5529280000000  0.5622160000000  0.5839750000000 1.0
C      1  0.5958700000000  0.5262980000000  0.4777200000000 1.0
C      1  0.4714570000000  0.5262980000000  0.5939780000000 1.0
C      1  0.4329810000000  0.5262980000000  0.4281040000000 1.0
C      1  0.5953550000000  0.4718380000000  0.4789910000000 1.0
C      1  0.4706140000000  0.4718380000000  0.5928960000000 1.0
C      1  0.4343390000000  0.4718380000000  0.4279150000000 1.0
C      1  0.5470860000000  0.5146610000000  0.4712780000000 1.0
C      1  0.5014280000000  0.5146610000000  0.5549510000000 1.0
C      1  0.4517940000000  0.5146610000000  0.4735730000000 1.0
C      1  0.5469250000000  0.4846140000000  0.4715590000000 1.0
C      1  0.5012650000000  0.4846140000000  0.5546710000000 1.0
C      1  0.4521180000000  0.4846140000000  0.4735720000000 1.0
C      1  0.5165230000000  0.5943020000000  0.4772670000000 1.0
C      1  0.5115230000000  0.5943020000000  0.5254880000000 1.0
C      1  0.4722620000000  0.5943020000000  0.4970470000000 1.0
C      1  0.5166710000000  0.4051360000000  0.4774040000000 1.0
C      1  0.5113300000000  0.4051360000000  0.5255480000000 1.0
C      1  0.4723060000000  0.4051360000000  0.4968500000000 1.0
C      1  0.4558590000000  0.4524870000000  0.5100160000000 1.0
C      1  0.5134940000000  0.4524870000000  0.4565770000000 1.0
C      1  0.5309560000000  0.4524870000000  0.5332100000000 1.0
C      1  0.4551080000000  0.5472200000000  0.5098460000000 1.0
C      1  0.5140160000000  0.5472200000000  0.4560120000000 1.0
C      1  0.5311840000000  0.5472200000000  0.5339440000000 1.0
C      1  0.4443940000000  0.5666440000000  0.5791510000000 1.0
C      1  0.4593530000000  0.5666440000000  0.4120800000000 1.0
C      1  0.5965610000000  0.5666440000000  0.5085710000000 1.0
C      1  0.4445660000000  0.4312070000000  0.5793870000000 1.0
C      1  0.4590620000000  0.4312070000000  0.4121110000000 1.0
C      1  0.5966790000000  0.4312070000000  0.5083030000000 1.0
C      1  0.5266090000000  0.5662910000000  0.4775190000000 1.0
C      1  0.5062620000000  0.5662910000000  0.5340970000000 1.0
C      1  0.4674370000000  0.5662910000000  0.4881860000000 1.0
C      1  0.5264530000000  0.4332210000000  0.4777570000000 1.0
C      1  0.5061330000000  0.4332210000000  0.5338420000000 1.0
C      1  0.4677220000000  0.4332210000000  0.4882020000000 1.0
C      1  0.5001030000000  0.3988060000000  0.4999340000000 1.0
C      1  0.5001030000000  0.6005490000000  0.4999340000000 1.0
END
