TITL C-862502-1143-757 -0.000262716247817961 125000 -311.357845156476 0 0 58 (Ci) n - 1
REM
REM in /home/nfs/bkarasulu/CARBON/AIRSS/Generating-Clusters/TERSOFF/Higher-Symm/FIRE-HFTN
REM
REM
REM
REM
REM
REM ./C.cell (b20cbc046b6831c77cfcea5457e17084)
REM AIRSS Version 0.9.1 bugfix July 2018 build 013d7b7c2542+ Fri, 06 Jul 2018 19:26:36 +0100
REM compiler GCC version 9.2.1 20190827 (Red Hat 9.2.1-1)
REM options -cpp -mtune=generic -march=x86-64 -g -O0 -fpre-include=/usr/include/finclude/math-vector-fortran.h
REM seed -234426991 -1270383641 -772595905 -907405431 480616579 -731637823 1055622858 -1642836382 -140765740 1432287444 -1862757885 263983403 -1991138561 146475016 -1624203596 -657172552 -151145947 317764074 318045361 239559970 1888725262 -1998625136 -274733560 -1719629112 -42165421 -1537894886 -2119719504 1675319582 -285526795 -1104212747 -2115984950 1320472953 -1815493501
REM
CELL 1.54180   50.00000   50.00000   50.00000   90.00000   90.00000   90.00000
LATT -1
SFAC C  
C      1  0.4289480000000  0.4633940000000  0.4773600000000 1.0
C      1  0.5710520000000  0.5366060000000  0.5226400000000 1.0
C      1  0.4921630000000  0.4645940000000  0.4433370000000 1.0
C      1  0.5078370000000  0.5354060000000  0.5566630000000 1.0
C      1  0.5061950000000  0.4730680000000  0.4706800000000 1.0
C      1  0.4938050000000  0.5269320000000  0.5293200000000 1.0
C      1  0.4492260000000  0.4517830000000  0.5191710000000 1.0
C      1  0.5507740000000  0.5482170000000  0.4808290000000 1.0
C      1  0.5431550000000  0.4640650000000  0.4913660000000 1.0
C      1  0.4568450000000  0.5359350000000  0.5086340000000 1.0
C      1  0.5498540000000  0.4931970000000  0.4478730000000 1.0
C      1  0.4501460000000  0.5068030000000  0.5521270000000 1.0
C      1  0.5467470000000  0.4670860000000  0.4615790000000 1.0
C      1  0.4532530000000  0.5329140000000  0.5384210000000 1.0
C      1  0.5604600000000  0.4914310000000  0.5377900000000 1.0
C      1  0.4395400000000  0.5085690000000  0.4622100000000 1.0
C      1  0.5200780000000  0.5280890000000  0.5093600000000 1.0
C      1  0.4799220000000  0.4719110000000  0.4906400000000 1.0
C      1  0.5210970000000  0.5568770000000  0.4941220000000 1.0
C      1  0.4789030000000  0.4431230000000  0.5058780000000 1.0
C      1  0.4720120000000  0.4930940000000  0.5702850000000 1.0
C      1  0.5279880000000  0.5069060000000  0.4297150000000 1.0
C      1  0.4819750000000  0.4939640000000  0.5194380000000 1.0
C      1  0.5180250000000  0.5060360000000  0.4805620000000 1.0
C      1  0.5153030000000  0.4629550000000  0.5443240000000 1.0
C      1  0.4846970000000  0.5370450000000  0.4556760000000 1.0
C      1  0.5160580000000  0.5728620000000  0.5226960000000 1.0
C      1  0.4839420000000  0.4271380000000  0.4773040000000 1.0
C      1  0.4799000000000  0.4897620000000  0.4324750000000 1.0
C      1  0.5201000000000  0.5102380000000  0.5675250000000 1.0
C      1  0.4892450000000  0.5156440000000  0.4765560000000 1.0
C      1  0.5107550000000  0.4843560000000  0.5234440000000 1.0
C      1  0.4562920000000  0.4644730000000  0.4671640000000 1.0
C      1  0.5437080000000  0.5355270000000  0.5328360000000 1.0
C      1  0.5289990000000  0.4379700000000  0.5009030000000 1.0
C      1  0.4710010000000  0.5620300000000  0.4990970000000 1.0
C      1  0.5065470000000  0.4413720000000  0.5224790000000 1.0
C      1  0.4934530000000  0.5586280000000  0.4775210000000 1.0
C      1  0.5286100000000  0.5586170000000  0.5468470000000 1.0
C      1  0.4713900000000  0.4413830000000  0.4531530000000 1.0
C      1  0.4702490000000  0.5122950000000  0.4977870000000 1.0
C      1  0.5297510000000  0.4877050000000  0.5022130000000 1.0
C      1  0.4282010000000  0.4767490000000  0.5171590000000 1.0
C      1  0.5717990000000  0.5232510000000  0.4828410000000 1.0
C      1  0.4546360000000  0.4871690000000  0.4484580000000 1.0
C      1  0.5453640000000  0.5128310000000  0.5515420000000 1.0
C      1  0.5724550000000  0.5085270000000  0.4578260000000 1.0
C      1  0.4275450000000  0.4914730000000  0.5421740000000 1.0
C      1  0.5781330000000  0.5084480000000  0.5113590000000 1.0
C      1  0.4218670000000  0.4915520000000  0.4886410000000 1.0
C      1  0.4887580000000  0.5589080000000  0.5233020000000 1.0
C      1  0.5112420000000  0.4410920000000  0.4766980000000 1.0
C      1  0.5022030000000  0.4870590000000  0.5644690000000 1.0
C      1  0.4977970000000  0.5129410000000  0.4355310000000 1.0
C      1  0.5465100000000  0.4653220000000  0.5401180000000 1.0
C      1  0.4534900000000  0.5346780000000  0.4598820000000 1.0
C      1  0.4663350000000  0.4724580000000  0.5341910000000 1.0
C      1  0.5336650000000  0.5275420000000  0.4658090000000 1.0
END
