TITL C-862128-1543-1325 0.043314092067143 125000 -916.225413199075 0 0 159 (C1) n - 1
REM
REM in /home/nfs/bkarasulu/CARBON/AIRSS/Generating-Clusters/TERSOFF/Higher-Symm/FIRE-HFTN
REM
REM
REM
REM
REM
REM ./C.cell (b20cbc046b6831c77cfcea5457e17084)
REM AIRSS Version 0.9.1 bugfix July 2018 build 013d7b7c2542+ Fri, 06 Jul 2018 19:26:36 +0100
REM compiler GCC version 9.2.1 20190827 (Red Hat 9.2.1-1)
REM options -cpp -mtune=generic -march=x86-64 -g -O0 -fpre-include=/usr/include/finclude/math-vector-fortran.h
REM seed -1390584576 1570446430 -252678725 -705375238 -1815927388 1595286872 -1692254840 1698183809 -1213417816 567084691 905743800 -1431032524 1622687645 -1573132717 1771729860 -1149852122 -2007602291 -974712955 -925290165 459954477 -821096442 -1449853229 2061327724 -1612122748 399637278 -1367499753 1602361267 1450072202 -534534462 -1076650420 -719993877 -1438426270 70404438
REM
CELL 1.54180   50.00000   50.00000   50.00000   90.00000   90.00000   90.00000
LATT -1
SFAC C  
C      1  0.5575470000000  0.5456320000000  0.5829450000000 1.0
C      1  0.4448860000000  0.4238870000000  0.4717060000000 1.0
C      1  0.4033890000000  0.4528800000000  0.4905860000000 1.0
C      1  0.5534080000000  0.5195470000000  0.5048090000000 1.0
C      1  0.3897220000000  0.5273590000000  0.5106580000000 1.0
C      1  0.6023260000000  0.5102280000000  0.4890610000000 1.0
C      1  0.4311900000000  0.4894620000000  0.4769600000000 1.0
C      1  0.5533670000000  0.5857170000000  0.4583160000000 1.0
C      1  0.5020180000000  0.4709760000000  0.5487980000000 1.0
C      1  0.5582910000000  0.5829180000000  0.5283380000000 1.0
C      1  0.5740390000000  0.4746390000000  0.5186910000000 1.0
C      1  0.4622510000000  0.4226850000000  0.4468100000000 1.0
C      1  0.4987430000000  0.5219260000000  0.3867640000000 1.0
C      1  0.5012510000000  0.5228520000000  0.5544490000000 1.0
C      1  0.5028410000000  0.4094980000000  0.4740750000000 1.0
C      1  0.5526920000000  0.4545070000000  0.5091580000000 1.0
C      1  0.4269270000000  0.4900170000000  0.5047960000000 1.0
C      1  0.5013720000000  0.4131780000000  0.5275330000000 1.0
C      1  0.3977320000000  0.4981220000000  0.5151980000000 1.0
C      1  0.4859980000000  0.5334520000000  0.4111310000000 1.0
C      1  0.5954650000000  0.5285590000000  0.4660740000000 1.0
C      1  0.5182920000000  0.4784000000000  0.3915530000000 1.0
C      1  0.5383830000000  0.5404810000000  0.5459770000000 1.0
C      1  0.5049950000000  0.5190910000000  0.5240830000000 1.0
C      1  0.3958460000000  0.5390980000000  0.4831570000000 1.0
C      1  0.5530160000000  0.4084940000000  0.4751130000000 1.0
C      1  0.4805100000000  0.5854240000000  0.4597540000000 1.0
C      1  0.4810810000000  0.5625210000000  0.5802320000000 1.0
C      1  0.5119750000000  0.5132250000000  0.5938960000000 1.0
C      1  0.4792290000000  0.4873910000000  0.5590000000000 1.0
C      1  0.5837640000000  0.5708440000000  0.5202040000000 1.0
C      1  0.4477140000000  0.4961570000000  0.3997720000000 1.0
C      1  0.5855660000000  0.5172520000000  0.4362430000000 1.0
C      1  0.5067200000000  0.4865080000000  0.5165700000000 1.0
C      1  0.4726450000000  0.4679850000000  0.4568210000000 1.0
C      1  0.5023080000000  0.4720360000000  0.4407050000000 1.0
C      1  0.3916340000000  0.5458230000000  0.5340620000000 1.0
C      1  0.5997710000000  0.4778030000000  0.4857070000000 1.0
C      1  0.5390990000000  0.5107910000000  0.4357630000000 1.0
C      1  0.4817520000000  0.5161880000000  0.4341510000000 1.0
C      1  0.4627550000000  0.5641450000000  0.4737510000000 1.0
C      1  0.5621130000000  0.4299320000000  0.4574420000000 1.0
C      1  0.5222440000000  0.4534330000000  0.4530220000000 1.0
C      1  0.5568020000000  0.4161810000000  0.5854390000000 1.0
C      1  0.4668960000000  0.4573050000000  0.5127330000000 1.0
C      1  0.5422960000000  0.5702960000000  0.5489410000000 1.0
C      1  0.4919230000000  0.6100660000000  0.4997520000000 1.0
C      1  0.4430980000000  0.4975400000000  0.5815210000000 1.0
C      1  0.4266090000000  0.5610670000000  0.5083450000000 1.0
C      1  0.5515380000000  0.4213540000000  0.5562690000000 1.0
C      1  0.4133190000000  0.5674180000000  0.5371770000000 1.0
C      1  0.5839680000000  0.5373380000000  0.5651910000000 1.0
C      1  0.5253010000000  0.5411160000000  0.5895400000000 1.0
C      1  0.5274640000000  0.5510740000000  0.4344550000000 1.0
C      1  0.5131090000000  0.5118750000000  0.4686930000000 1.0
C      1  0.5608170000000  0.4954290000000  0.4217730000000 1.0
C      1  0.5231190000000  0.5866340000000  0.4624430000000 1.0
C      1  0.4621630000000  0.5421070000000  0.5402040000000 1.0
C      1  0.4534950000000  0.5669330000000  0.4190890000000 1.0
C      1  0.4461290000000  0.4767620000000  0.5218620000000 1.0
C      1  0.5456520000000  0.5994310000000  0.5051980000000 1.0
C      1  0.3888850000000  0.4788020000000  0.4910820000000 1.0
C      1  0.5926940000000  0.4545810000000  0.5608350000000 1.0
C      1  0.5281110000000  0.3960230000000  0.4701130000000 1.0
C      1  0.5416630000000  0.4986780000000  0.3956380000000 1.0
C      1  0.5067040000000  0.4106870000000  0.4238780000000 1.0
C      1  0.4938580000000  0.4920800000000  0.3820390000000 1.0
C      1  0.4255590000000  0.5225350000000  0.4396160000000 1.0
C      1  0.5567180000000  0.5158970000000  0.4760930000000 1.0
C      1  0.4739560000000  0.5391640000000  0.4843790000000 1.0
C      1  0.4383900000000  0.4672510000000  0.5836410000000 1.0
C      1  0.4768710000000  0.4527670000000  0.4837020000000 1.0
C      1  0.4565310000000  0.4918850000000  0.4649760000000 1.0
C      1  0.5173790000000  0.5960940000000  0.4910530000000 1.0
C      1  0.5345580000000  0.4004590000000  0.5213890000000 1.0
C      1  0.4524180000000  0.5780720000000  0.5119770000000 1.0
C      1  0.4495370000000  0.6029810000000  0.4654190000000 1.0
C      1  0.4238630000000  0.4508970000000  0.5606700000000 1.0
C      1  0.5075450000000  0.5640240000000  0.5915990000000 1.0
C      1  0.4934640000000  0.5704330000000  0.5185700000000 1.0
C      1  0.5025650000000  0.4397960000000  0.4870970000000 1.0
C      1  0.5499380000000  0.4599640000000  0.4592410000000 1.0
C      1  0.5239710000000  0.4336750000000  0.4160070000000 1.0
C      1  0.5198660000000  0.4219180000000  0.5543270000000 1.0
C      1  0.4309970000000  0.5411960000000  0.6072070000000 1.0
C      1  0.5525590000000  0.4358280000000  0.4249700000000 1.0
C      1  0.5108530000000  0.4597780000000  0.4131150000000 1.0
C      1  0.4852720000000  0.4456460000000  0.5342110000000 1.0
C      1  0.4889160000000  0.4102010000000  0.4479380000000 1.0
C      1  0.5954450000000  0.5486690000000  0.5345160000000 1.0
C      1  0.5951580000000  0.5076400000000  0.5662510000000 1.0
C      1  0.4306230000000  0.5043290000000  0.5540250000000 1.0
C      1  0.5947420000000  0.5067520000000  0.5360700000000 1.0
C      1  0.5329330000000  0.5499530000000  0.4058700000000 1.0
C      1  0.5483040000000  0.4885920000000  0.5727700000000 1.0
C      1  0.4564220000000  0.4111850000000  0.4975960000000 1.0
C      1  0.5051290000000  0.4444170000000  0.5970040000000 1.0
C      1  0.4240210000000  0.4475710000000  0.4695920000000 1.0
C      1  0.4699510000000  0.4529900000000  0.4050690000000 1.0
C      1  0.4635700000000  0.6002450000000  0.4951760000000 1.0
C      1  0.4249030000000  0.4340090000000  0.5333510000000 1.0
C      1  0.6098780000000  0.5241030000000  0.5175460000000 1.0
C      1  0.5531520000000  0.5122750000000  0.5517160000000 1.0
C      1  0.4439790000000  0.5207410000000  0.5342120000000 1.0
C      1  0.5300130000000  0.4908880000000  0.5964370000000 1.0
C      1  0.4055120000000  0.4925270000000  0.5443100000000 1.0
C      1  0.5240650000000  0.4934370000000  0.4899630000000 1.0
C      1  0.4256090000000  0.4645530000000  0.4436190000000 1.0
C      1  0.5458150000000  0.4512700000000  0.5392010000000 1.0
C      1  0.4294980000000  0.5125410000000  0.6034150000000 1.0
C      1  0.5307420000000  0.5334120000000  0.5175460000000 1.0
C      1  0.5796750000000  0.4818080000000  0.5749610000000 1.0
C      1  0.4857000000000  0.4033330000000  0.4991310000000 1.0
C      1  0.4488780000000  0.5705710000000  0.5426590000000 1.0
C      1  0.5193890000000  0.4667820000000  0.6104670000000 1.0
C      1  0.4681940000000  0.5175200000000  0.4618290000000 1.0
C      1  0.5191440000000  0.4553930000000  0.5070480000000 1.0
C      1  0.5569880000000  0.4112490000000  0.5034080000000 1.0
C      1  0.5973140000000  0.4650020000000  0.5330890000000 1.0
C      1  0.4028330000000  0.4365790000000  0.5145510000000 1.0
C      1  0.4787460000000  0.5025700000000  0.5850440000000 1.0
C      1  0.5885860000000  0.5765180000000  0.4909580000000 1.0
C      1  0.5804900000000  0.4283170000000  0.5445900000000 1.0
C      1  0.4783820000000  0.5384060000000  0.5637200000000 1.0
C      1  0.4314860000000  0.5313870000000  0.5107080000000 1.0
C      1  0.5281070000000  0.5262660000000  0.3894420000000 1.0
C      1  0.3859670000000  0.4937700000000  0.4660050000000 1.0
C      1  0.5486660000000  0.4751170000000  0.4846940000000 1.0
C      1  0.5341160000000  0.4737890000000  0.5511930000000 1.0
C      1  0.4698410000000  0.5839540000000  0.5614160000000 1.0
C      1  0.4829840000000  0.5612170000000  0.4190220000000 1.0
C      1  0.4468600000000  0.4148720000000  0.5257880000000 1.0
C      1  0.5097160000000  0.4443480000000  0.5682610000000 1.0
C      1  0.5990510000000  0.4466200000000  0.4953860000000 1.0
C      1  0.5652340000000  0.5602850000000  0.4502310000000 1.0
C      1  0.5034560000000  0.5656430000000  0.4473190000000 1.0
C      1  0.4134810000000  0.4907650000000  0.4344470000000 1.0
C      1  0.5665670000000  0.5951790000000  0.4825630000000 1.0
C      1  0.5482170000000  0.5349770000000  0.4530450000000 1.0
C      1  0.4943790000000  0.5854430000000  0.5442150000000 1.0
C      1  0.4697870000000  0.4328470000000  0.5622960000000 1.0
C      1  0.4329760000000  0.5706140000000  0.4641430000000 1.0
C      1  0.4699110000000  0.4080160000000  0.5446140000000 1.0
C      1  0.4757080000000  0.4373370000000  0.5918670000000 1.0
C      1  0.5021640000000  0.5398240000000  0.4723890000000 1.0
C      1  0.4826170000000  0.5413200000000  0.5153480000000 1.0
C      1  0.5763520000000  0.4329420000000  0.5133070000000 1.0
C      1  0.4632630000000  0.4490000000000  0.4339000000000 1.0
C      1  0.4508680000000  0.5101730000000  0.4243070000000 1.0
C      1  0.4338580000000  0.5552850000000  0.4385500000000 1.0
C      1  0.5648150000000  0.4677560000000  0.4322980000000 1.0
C      1  0.5198000000000  0.5858550000000  0.5578570000000 1.0
C      1  0.5669330000000  0.5025910000000  0.5253430000000 1.0
C      1  0.5089650000000  0.5006430000000  0.4408630000000 1.0
C      1  0.3993330000000  0.5197670000000  0.4613190000000 1.0
C      1  0.4543400000000  0.4527620000000  0.6027780000000 1.0
C      1  0.4685090000000  0.4789410000000  0.3907970000000 1.0
C      1  0.6017800000000  0.5579070000000  0.4707810000000 1.0
C      1  0.4119010000000  0.5643420000000  0.4835530000000 1.0
END
