TITL C-862128-1543-1412 -12.7376326489451 125000 -375.578059795782 0 0 68 (C1) n - 1
REM
REM in /home/nfs/bkarasulu/CARBON/AIRSS/Generating-Clusters/TERSOFF/Higher-Symm/FIRE-HFTN
REM
REM
REM
REM
REM
REM ./C.cell (b20cbc046b6831c77cfcea5457e17084)
REM AIRSS Version 0.9.1 bugfix July 2018 build 013d7b7c2542+ Fri, 06 Jul 2018 19:26:36 +0100
REM compiler GCC version 9.2.1 20190827 (Red Hat 9.2.1-1)
REM options -cpp -mtune=generic -march=x86-64 -g -O0 -fpre-include=/usr/include/finclude/math-vector-fortran.h
REM seed -2074309984 1523455238 1584482579 -183323961 1882783375 -1556212659 -1787207407 69953923 -1993613023 -1183049864 -933945464 2051032151 387638915 -990950634 314455944 996867632 -1930851493 2107049406 111776424 -1051876018 1548417602 1835593495 622670044 971522899 1855645790 1303866113 -894151514 -168171340 533408970 -849781691 -485105291 -240893304 2138189616
REM
CELL 1.54180   50.00000   50.00000   50.00000   90.00000   90.00000   90.00000
LATT -1
SFAC C  
C      1  0.5004730000000  0.4767830000000  0.5397990000000 1.0
C      1  0.5532350000000  0.4551810000000  0.4817230000000 1.0
C      1  0.4335080000000  0.4921230000000  0.4994980000000 1.0
C      1  0.4592730000000  0.4904310000000  0.5324760000000 1.0
C      1  0.5601290000000  0.4981250000000  0.4642340000000 1.0
C      1  0.4829190000000  0.4747290000000  0.4297570000000 1.0
C      1  0.5158340000000  0.4975300000000  0.5784440000000 1.0
C      1  0.4925900000000  0.4786640000000  0.5700620000000 1.0
C      1  0.5451390000000  0.5491660000000  0.5265130000000 1.0
C      1  0.4981160000000  0.5233150000000  0.4783040000000 1.0
C      1  0.4848150000000  0.4483990000000  0.5665040000000 1.0
C      1  0.5006500000000  0.4296600000000  0.4700170000000 1.0
C      1  0.4244530000000  0.5401760000000  0.5108070000000 1.0
C      1  0.4611800000000  0.5032910000000  0.4925420000000 1.0
C      1  0.4566120000000  0.4453380000000  0.4941200000000 1.0
C      1  0.4637900000000  0.4953310000000  0.4397040000000 1.0
C      1  0.4398290000000  0.5362070000000  0.5610600000000 1.0
C      1  0.4155490000000  0.5123350000000  0.5097780000000 1.0
C      1  0.5790410000000  0.5131820000000  0.5072200000000 1.0
C      1  0.4369510000000  0.5512810000000  0.4858980000000 1.0
C      1  0.5713130000000  0.4627120000000  0.5188670000000 1.0
C      1  0.4763120000000  0.5306080000000  0.5005590000000 1.0
C      1  0.4680260000000  0.4602150000000  0.4695990000000 1.0
C      1  0.5306070000000  0.4947430000000  0.4595030000000 1.0
C      1  0.5638320000000  0.4863090000000  0.4970770000000 1.0
C      1  0.5232540000000  0.5493480000000  0.4813440000000 1.0
C      1  0.5617890000000  0.5279360000000  0.4569450000000 1.0
C      1  0.5069570000000  0.5162290000000  0.4232760000000 1.0
C      1  0.4429180000000  0.5340030000000  0.4611890000000 1.0
C      1  0.4978200000000  0.5656770000000  0.5215900000000 1.0
C      1  0.5409510000000  0.5393450000000  0.5571160000000 1.0
C      1  0.5697810000000  0.4767190000000  0.4447880000000 1.0
C      1  0.4351620000000  0.4613220000000  0.5096720000000 1.0
C      1  0.5235330000000  0.5658810000000  0.5080810000000 1.0
C      1  0.5493920000000  0.4557150000000  0.5373720000000 1.0
C      1  0.5495840000000  0.4548810000000  0.4508420000000 1.0
C      1  0.5214620000000  0.4911170000000  0.4315470000000 1.0
C      1  0.5180370000000  0.4691450000000  0.5023280000000 1.0
C      1  0.4806440000000  0.5650000000000  0.4621100000000 1.0
C      1  0.5105900000000  0.4930930000000  0.4818810000000 1.0
C      1  0.5486390000000  0.5379590000000  0.4323530000000 1.0
C      1  0.5160910000000  0.5252590000000  0.5675360000000 1.0
C      1  0.5626840000000  0.5054450000000  0.5451790000000 1.0
C      1  0.5278420000000  0.4751240000000  0.5298500000000 1.0
C      1  0.4940920000000  0.5356240000000  0.5252830000000 1.0
C      1  0.4702240000000  0.5206920000000  0.4554060000000 1.0
C      1  0.4904690000000  0.5314540000000  0.5543230000000 1.0
C      1  0.5662810000000  0.5395610000000  0.5053520000000 1.0
C      1  0.4651990000000  0.4932230000000  0.5739330000000 1.0
C      1  0.4400680000000  0.4540050000000  0.5406280000000 1.0
C      1  0.4664840000000  0.5567980000000  0.4874240000000 1.0
C      1  0.4795890000000  0.4399840000000  0.5148320000000 1.0
C      1  0.4807560000000  0.4819490000000  0.4879770000000 1.0
C      1  0.4327510000000  0.5517680000000  0.5368820000000 1.0
C      1  0.5252420000000  0.5254440000000  0.5192120000000 1.0
C      1  0.4472490000000  0.4754940000000  0.4542810000000 1.0
C      1  0.5399190000000  0.4336880000000  0.4976360000000 1.0
C      1  0.5425570000000  0.5000880000000  0.5233500000000 1.0
C      1  0.5216190000000  0.4602660000000  0.4372960000000 1.0
C      1  0.5527990000000  0.5431790000000  0.4794940000000 1.0
C      1  0.4420700000000  0.4806450000000  0.5567990000000 1.0
C      1  0.4672770000000  0.4392660000000  0.5440080000000 1.0
C      1  0.5189410000000  0.5422770000000  0.4311850000000 1.0
C      1  0.5085910000000  0.5574700000000  0.4558170000000 1.0
C      1  0.4795780000000  0.4729710000000  0.5187430000000 1.0
C      1  0.5082820000000  0.4379020000000  0.4975940000000 1.0
C      1  0.4654710000000  0.5218830000000  0.5655770000000 1.0
C      1  0.4931810000000  0.4493340000000  0.4479090000000 1.0
END
