TITL C-862506-1665-314 5.05439015177349e-05 125000 -51.5336391901604 0 0 15 (Cs) n - 1
REM
REM in /home/nfs/bkarasulu/CARBON/AIRSS/Generating-Clusters/TERSOFF/Higher-Symm/FIRE-HFTN
REM
REM
REM
REM
REM
REM ./C.cell (b20cbc046b6831c77cfcea5457e17084)
REM AIRSS Version 0.9.1 bugfix July 2018 build 013d7b7c2542+ Fri, 06 Jul 2018 19:26:36 +0100
REM compiler GCC version 9.2.1 20190827 (Red Hat 9.2.1-1)
REM options -cpp -mtune=generic -march=x86-64 -g -O0 -fpre-include=/usr/include/finclude/math-vector-fortran.h
REM seed 1862954226 216677627 126162434 -1810499812 -1872668511 -1473136529 1895397159 1377310528 634048653 -32319062 2096775896 -2107128626 1068098793 -1073268797 1676507015 -1345954407 -1207999261 774278741 -654894886 1859162644 495612193 -1757837708 1754991204 761443783 1667306563 1124992950 1659497312 -1599673818 -1836076921 -513005057 1099511612 -283584494 707495173
REM
CELL 1.54180   50.00000   50.00000   50.00000   90.00000   90.00000   90.00000
LATT -1
SFAC C  
C      1  0.4950480000000  0.5241340000000  0.4631360000000 1.0
C      1  0.4290160000000  0.5046050000000  0.4913660000000 1.0
C      1  0.4777300000000  0.4618240000000  0.4702200000000 1.0
C      1  0.5360420000000  0.4741490000000  0.4704550000000 1.0
C      1  0.5631140000000  0.5329490000000  0.4919070000000 1.0
C      1  0.5124000000000  0.5281960000000  0.5168210000000 1.0
C      1  0.4771220000000  0.5207390000000  0.5166780000000 1.0
C      1  0.4734330000000  0.4854430000000  0.5211640000000 1.0
C      1  0.5061910000000  0.4703540000000  0.5185420000000 1.0
C      1  0.5300210000000  0.4974040000000  0.5213920000000 1.0
C      1  0.4924300000000  0.5360180000000  0.4893970000000 1.0
C      1  0.4455300000000  0.5058380000000  0.5151050000000 1.0
C      1  0.4792210000000  0.4595610000000  0.4990370000000 1.0
C      1  0.5353720000000  0.4714290000000  0.4992640000000 1.0
C      1  0.5473300000000  0.5273550000000  0.5155150000000 1.0
END
