TITL C-862130-1496-36 -0.000139632103076269 125000 -393.568745649939 0 0 83 (C5) n - 1
REM
REM in /home/nfs/bkarasulu/CARBON/AIRSS/Generating-Clusters/TERSOFF/Higher-Symm/FIRE-HFTN
REM
REM
REM
REM
REM
REM ./C.cell (b20cbc046b6831c77cfcea5457e17084)
REM AIRSS Version 0.9.1 bugfix July 2018 build 013d7b7c2542+ Fri, 06 Jul 2018 19:26:36 +0100
REM compiler GCC version 9.2.1 20190827 (Red Hat 9.2.1-1)
REM options -cpp -mtune=generic -march=x86-64 -g -O0 -fpre-include=/usr/include/finclude/math-vector-fortran.h
REM seed 722888607 -1526229278 -1935593796 -1332654537 -1269845529 1824487688 87449702 -1307398382 -440420199 -2141331939 2041222464 -50088265 -1491807353 1027264364 -2011889183 1497811012 159092808 -1236798563 1319430887 -189919931 1478935491 336676364 3162809 -1244731752 1260341791 393829044 1764336371 -2094828579 1668659802 -1573137809 235794485 -1279696201 449203131
REM
CELL 1.54180   50.00000   50.00000   50.00000   90.00000   90.00000   90.00000
LATT -1
SFAC C  
C      1  0.4517030000000  0.5386270000000  0.4832970000000 1.0
C      1  0.4517030000000  0.5282880000000  0.5312950000000 1.0
C      1  0.4517040000000  0.4794440000000  0.5362940000000 1.0
C      1  0.4517040000000  0.4595960000000  0.4913850000000 1.0
C      1  0.4517040000000  0.4961740000000  0.4586320000000 1.0
C      1  0.5561880000000  0.4606440000000  0.5465780000000 1.0
C      1  0.5561890000000  0.4440070000000  0.4766840000000 1.0
C      1  0.5561880000000  0.5053390000000  0.4392620000000 1.0
C      1  0.5561880000000  0.5598820000000  0.4860280000000 1.0
C      1  0.5561880000000  0.5322590000000  0.5523530000000 1.0
C      1  0.5709840000000  0.4746540000000  0.5168630000000 1.0
C      1  0.5709840000000  0.4765960000000  0.4808250000000 1.0
C      1  0.5709840000000  0.5114700000000  0.4715360000000 1.0
C      1  0.5709840000000  0.5310820000000  0.5018330000000 1.0
C      1  0.5709840000000  0.5083280000000  0.5298470000000 1.0
C      1  0.4793960000000  0.5323200000000  0.5161340000000 1.0
C      1  0.4793960000000  0.4951090000000  0.5354440000000 1.0
C      1  0.4793960000000  0.4652460000000  0.5060210000000 1.0
C      1  0.4793960000000  0.4840000000000  0.4685270000000 1.0
C      1  0.4793960000000  0.5254550000000  0.4747780000000 1.0
C      1  0.5258140000000  0.5099820000000  0.4296800000000 1.0
C      1  0.5258140000000  0.5704290000000  0.4874830000000 1.0
C      1  0.5258140000000  0.5341350000000  0.5628340000000 1.0
C      1  0.5258140000000  0.4512560000000  0.5516000000000 1.0
C      1  0.5258140000000  0.4363290000000  0.4693070000000 1.0
C      1  0.4249330000000  0.4744560000000  0.4949200000000 1.0
C      1  0.4249330000000  0.4974040000000  0.4738570000000 1.0
C      1  0.4249330000000  0.5245280000000  0.4891730000000 1.0
C      1  0.4249330000000  0.5183430000000  0.5197010000000 1.0
C      1  0.4249330000000  0.4873970000000  0.5232530000000 1.0
C      1  0.4874680000000  0.4214560000000  0.4776910000000 1.0
C      1  0.4874680000000  0.4974110000000  0.4181260000000 1.0
C      1  0.4874670000000  0.5775330000000  0.4719570000000 1.0
C      1  0.4874670000000  0.5510950000000  0.5647930000000 1.0
C      1  0.4874680000000  0.4546340000000  0.5683360000000 1.0
C      1  0.5001630000000  0.5807470000000  0.5057030000000 1.0
C      1  0.5001630000000  0.5199950000000  0.5782770000000 1.0
C      1  0.5001630000000  0.4321990000000  0.5429250000000 1.0
C      1  0.5001630000000  0.4386900000000  0.4485020000000 1.0
C      1  0.5001630000000  0.5304980000000  0.4254970000000 1.0
C      1  0.5083470000000  0.4546620000000  0.4925050000000 1.0
C      1  0.5083470000000  0.4935840000000  0.4542840000000 1.0
C      1  0.5083460000000  0.5419620000000  0.4794910000000 1.0
C      1  0.5083460000000  0.5329390000000  0.5332900000000 1.0
C      1  0.5083470000000  0.4789840000000  0.5413330000000 1.0
C      1  0.4557280000000  0.4585680000000  0.5595760000000 1.0
C      1  0.4557290000000  0.4310030000000  0.4787260000000 1.0
C      1  0.4557280000000  0.4993780000000  0.4275260000000 1.0
C      1  0.4557280000000  0.5692010000000  0.4767320000000 1.0
C      1  0.4557280000000  0.5439790000000  0.5583440000000 1.0
C      1  0.5280980000000  0.5347550000000  0.5091520000000 1.0
C      1  0.5280980000000  0.5025020000000  0.5356020000000 1.0
C      1  0.5280980000000  0.4673800000000  0.5131010000000 1.0
C      1  0.5280980000000  0.4779260000000  0.4727450000000 1.0
C      1  0.5280980000000  0.5195660000000  0.4703040000000 1.0
C      1  0.5361920000000  0.4879890000000  0.5793270000000 1.0
C      1  0.5361920000000  0.4213100000000  0.5128100000000 1.0
C      1  0.5361920000000  0.4639670000000  0.4288390000000 1.0
C      1  0.5361920000000  0.5570090000000  0.4434600000000 1.0
C      1  0.5361920000000  0.5718560000000  0.5364670000000 1.0
C      1  0.4720340000000  0.5120850000000  0.5641560000000 1.0
C      1  0.4720340000000  0.4431840000000  0.5310390000000 1.0
C      1  0.4720340000000  0.4533890000000  0.4552770000000 1.0
C      1  0.4720340000000  0.5285970000000  0.4415700000000 1.0
C      1  0.4720340000000  0.5648730000000  0.5088610000000 1.0
C      1  0.5060230000000  0.4687950000000  0.4297460000000 1.0
C      1  0.5060220000000  0.5576380000000  0.4483320000000 1.0
C      1  0.5060220000000  0.5674160000000  0.5385710000000 1.0
C      1  0.5060230000000  0.4846160000000  0.5757560000000 1.0
C      1  0.5060230000000  0.4236640000000  0.5084980000000 1.0
C      1  0.5531460000000  0.4459810000000  0.5075790000000 1.0
C      1  0.5531460000000  0.4765650000000  0.4506860000000 1.0
C      1  0.5531460000000  0.5401250000000  0.4621930000000 1.0
C      1  0.5531460000000  0.5488220000000  0.5261970000000 1.0
C      1  0.5531460000000  0.4906380000000  0.5542480000000 1.0
C      1  0.4576740000000  0.4656140000000  0.4305020000000 1.0
C      1  0.4576740000000  0.5559360000000  0.4455410000000 1.0
C      1  0.4576730000000  0.5695450000000  0.5360900000000 1.0
C      1  0.4576740000000  0.4876330000000  0.5770140000000 1.0
C      1  0.4576740000000  0.4234000000000  0.5117570000000 1.0
C      1  0.4866530000000  0.5004260000000  0.5001810000000 1.0
C      1  0.4572740000000  0.5004260000000  0.5001810000000 1.0
C      1  0.5356980000000  0.5004260000000  0.5001810000000 1.0
END
