TITL C-862129-6180-203 2.00822339589076e-05 125000 -460.80407517889 0 0 85 (C1) n - 1
REM
REM in /home/nfs/bkarasulu/CARBON/AIRSS/Generating-Clusters/TERSOFF/Higher-Symm/FIRE-HFTN
REM
REM
REM
REM
REM
REM ./C.cell (b20cbc046b6831c77cfcea5457e17084)
REM AIRSS Version 0.9.1 bugfix July 2018 build 013d7b7c2542+ Fri, 06 Jul 2018 19:26:36 +0100
REM compiler GCC version 9.2.1 20190827 (Red Hat 9.2.1-1)
REM options -cpp -mtune=generic -march=x86-64 -g -O0 -fpre-include=/usr/include/finclude/math-vector-fortran.h
REM seed 281900346 -2063847649 -876157926 1289219654 -47033213 652103129 463296706 1605567498 1019238445 213808066 -134043167 -1732423581 691648364 1775508858 1412751584 -369249262 -45059364 483596360 679161139 1377049001 -1181211757 2072723517 -387517301 -16767482 1283508460 1743958376 -2018376638 -1972885763 -2004407059 369713477 402342057 117451625 1028312190
REM
CELL 1.54180   50.00000   50.00000   50.00000   90.00000   90.00000   90.00000
LATT -1
SFAC C  
C      1  0.4448360000000  0.4938570000000  0.4186620000000 1.0
C      1  0.4446400000000  0.4260770000000  0.4648450000000 1.0
C      1  0.4444200000000  0.4318430000000  0.5462830000000 1.0
C      1  0.4444760000000  0.5061640000000  0.5823820000000 1.0
C      1  0.4441320000000  0.5739050000000  0.5364920000000 1.0
C      1  0.4446360000000  0.5674690000000  0.4537750000000 1.0
C      1  0.4934970000000  0.4575240000000  0.5546040000000 1.0
C      1  0.4938600000000  0.5261290000000  0.5644950000000 1.0
C      1  0.4931840000000  0.5683470000000  0.5100420000000 1.0
C      1  0.4941420000000  0.5423710000000  0.4460560000000 1.0
C      1  0.4939900000000  0.4739100000000  0.4364060000000 1.0
C      1  0.4940230000000  0.4316670000000  0.4907980000000 1.0
C      1  0.4673620000000  0.5717800000000  0.4717620000000 1.0
C      1  0.4678880000000  0.5112050000000  0.4239180000000 1.0
C      1  0.4676530000000  0.4392660000000  0.4523500000000 1.0
C      1  0.4675150000000  0.4278610000000  0.5286570000000 1.0
C      1  0.4674160000000  0.4887530000000  0.5769140000000 1.0
C      1  0.4672530000000  0.5606720000000  0.5487520000000 1.0
C      1  0.5370220000000  0.4271630000000  0.4879580000000 1.0
C      1  0.5380010000000  0.4535250000000  0.5568970000000 1.0
C      1  0.5369190000000  0.5254930000000  0.5689560000000 1.0
C      1  0.5376710000000  0.5741180000000  0.5122500000000 1.0
C      1  0.5370630000000  0.5465990000000  0.4444250000000 1.0
C      1  0.5377500000000  0.4736180000000  0.4310670000000 1.0
C      1  0.5191920000000  0.4775690000000  0.5626470000000 1.0
C      1  0.5202410000000  0.5442400000000  0.5507490000000 1.0
C      1  0.5190460000000  0.5653430000000  0.4889650000000 1.0
C      1  0.5202010000000  0.5215880000000  0.4377770000000 1.0
C      1  0.5197160000000  0.4566650000000  0.4496490000000 1.0
C      1  0.5199600000000  0.4346370000000  0.5126750000000 1.0
C      1  0.5139820000000  0.4667620000000  0.5058950000000 1.0
C      1  0.5126630000000  0.4882670000000  0.5315960000000 1.0
C      1  0.5128930000000  0.5222880000000  0.5269630000000 1.0
C      1  0.5124580000000  0.5333190000000  0.4955540000000 1.0
C      1  0.5140920000000  0.5115400000000  0.4691740000000 1.0
C      1  0.5140740000000  0.4784010000000  0.4744700000000 1.0
C      1  0.4662600000000  0.4731970000000  0.5512210000000 1.0
C      1  0.4663520000000  0.5307060000000  0.5493020000000 1.0
C      1  0.4660420000000  0.5574050000000  0.4981400000000 1.0
C      1  0.4670290000000  0.5266530000000  0.4496070000000 1.0
C      1  0.4669810000000  0.4692880000000  0.4519080000000 1.0
C      1  0.4668760000000  0.4426240000000  0.5025400000000 1.0
C      1  0.5426190000000  0.5510580000000  0.4723750000000 1.0
C      1  0.5447580000000  0.5002580000000  0.4401520000000 1.0
C      1  0.5435960000000  0.4485300000000  0.4695980000000 1.0
C      1  0.5447210000000  0.4474860000000  0.5292430000000 1.0
C      1  0.5427520000000  0.4990940000000  0.5587730000000 1.0
C      1  0.5457220000000  0.5543690000000  0.5321910000000 1.0
C      1  0.4403160000000  0.4867830000000  0.4697290000000 1.0
C      1  0.4401480000000  0.4667750000000  0.4964780000000 1.0
C      1  0.4394020000000  0.4797480000000  0.5271850000000 1.0
C      1  0.4394640000000  0.5131530000000  0.5313810000000 1.0
C      1  0.4392220000000  0.5332900000000  0.5046590000000 1.0
C      1  0.4401200000000  0.5199650000000  0.4736230000000 1.0
C      1  0.4288050000000  0.4397620000000  0.4850880000000 1.0
C      1  0.4284450000000  0.4561420000000  0.5447890000000 1.0
C      1  0.4283860000000  0.5168010000000  0.5605790000000 1.0
C      1  0.4282490000000  0.5604150000000  0.5161620000000 1.0
C      1  0.4288600000000  0.5430850000000  0.4555310000000 1.0
C      1  0.4289940000000  0.4831170000000  0.4406070000000 1.0
C      1  0.4964070000000  0.5666920000000  0.4631790000000 1.0
C      1  0.4966700000000  0.5007250000000  0.4239770000000 1.0
C      1  0.4965570000000  0.4341010000000  0.4612520000000 1.0
C      1  0.4962800000000  0.4332600000000  0.5377150000000 1.0
C      1  0.4963440000000  0.4990500000000  0.5767870000000 1.0
C      1  0.4958890000000  0.5660090000000  0.5394460000000 1.0
C      1  0.4807750000000  0.4867920000000  0.5273300000000 1.0
C      1  0.4809000000000  0.5167120000000  0.5256940000000 1.0
C      1  0.4806280000000  0.5299290000000  0.4986940000000 1.0
C      1  0.4815810000000  0.5133710000000  0.4736860000000 1.0
C      1  0.4817710000000  0.4833520000000  0.4754420000000 1.0
C      1  0.4815890000000  0.4700540000000  0.5023790000000 1.0
C      1  0.5596380000000  0.4706320000000  0.4817640000000 1.0
C      1  0.5611420000000  0.4689230000000  0.5154860000000 1.0
C      1  0.5565080000000  0.4990770000000  0.5321150000000 1.0
C      1  0.5644980000000  0.5325240000000  0.5211390000000 1.0
C      1  0.5564340000000  0.5283080000000  0.4859970000000 1.0
C      1  0.5609560000000  0.5005290000000  0.4656530000000 1.0
C      1  0.5948480000000  0.4711980000000  0.5143690000000 1.0
C      1  0.5893790000000  0.4982490000000  0.5290830000000 1.0
C      1  0.5972570000000  0.5258120000000  0.5164400000000 1.0
C      1  0.5892670000000  0.5251340000000  0.4862490000000 1.0
C      1  0.5946620000000  0.5000620000000  0.4682980000000 1.0
C      1  0.5927050000000  0.4721930000000  0.4828970000000 1.0
C      1  0.5410080000000  0.5033510000000  0.5024520000000 1.0
END
