TITL C-862502-1143-1491 -6.2770125952996 125000 -372.327962773871 0 0 68 (C1) n - 1
REM
REM in /home/nfs/bkarasulu/CARBON/AIRSS/Generating-Clusters/TERSOFF/Higher-Symm/FIRE-HFTN
REM
REM
REM
REM
REM
REM ./C.cell (b20cbc046b6831c77cfcea5457e17084)
REM AIRSS Version 0.9.1 bugfix July 2018 build 013d7b7c2542+ Fri, 06 Jul 2018 19:26:36 +0100
REM compiler GCC version 9.2.1 20190827 (Red Hat 9.2.1-1)
REM options -cpp -mtune=generic -march=x86-64 -g -O0 -fpre-include=/usr/include/finclude/math-vector-fortran.h
REM seed -975803339 1237054142 1109278316 -1701100489 664116760 -321816210 -844003936 -664415207 324092875 -2143727071 601931629 -301246714 -662200615 -1807069285 -558735814 -345764 526931856 670043660 883773200 378977503 -1496368288 873272760 1385106012 1944643072 1297353549 -1264933046 -1933041602 227148568 88505583 1774684800 -2039124324 -1443770042 1418324718
REM
CELL 1.54180   50.00000   50.00000   50.00000   90.00000   90.00000   90.00000
LATT -1
SFAC C  
C      1  0.5270820000000  0.5367520000000  0.5329760000000 1.0
C      1  0.4658410000000  0.5416320000000  0.5375210000000 1.0
C      1  0.5373290000000  0.4961540000000  0.5658450000000 1.0
C      1  0.4617740000000  0.4948880000000  0.5644060000000 1.0
C      1  0.5357020000000  0.4491670000000  0.4711200000000 1.0
C      1  0.4656850000000  0.4498210000000  0.4742280000000 1.0
C      1  0.5314480000000  0.5475430000000  0.4829600000000 1.0
C      1  0.4660510000000  0.5480630000000  0.4858410000000 1.0
C      1  0.5447870000000  0.5654810000000  0.4592570000000 1.0
C      1  0.4541790000000  0.5649280000000  0.4605540000000 1.0
C      1  0.4277850000000  0.5089800000000  0.5256130000000 1.0
C      1  0.5686810000000  0.5085410000000  0.5243850000000 1.0
C      1  0.5451170000000  0.4773230000000  0.4634540000000 1.0
C      1  0.4555290000000  0.4772500000000  0.4659670000000 1.0
C      1  0.5404780000000  0.5240990000000  0.4643230000000 1.0
C      1  0.4588970000000  0.5237090000000  0.4664720000000 1.0
C      1  0.5812510000000  0.5141680000000  0.4627310000000 1.0
C      1  0.4183850000000  0.5129150000000  0.4640540000000 1.0
C      1  0.4351770000000  0.5361270000000  0.4496800000000 1.0
C      1  0.5641420000000  0.5369420000000  0.4481040000000 1.0
C      1  0.5495930000000  0.4398420000000  0.4956550000000 1.0
C      1  0.4530470000000  0.4408210000000  0.4994790000000 1.0
C      1  0.5243210000000  0.4696980000000  0.5637610000000 1.0
C      1  0.4771580000000  0.4713340000000  0.5559140000000 1.0
C      1  0.4505140000000  0.5151300000000  0.5461260000000 1.0
C      1  0.5437830000000  0.5127700000000  0.5427400000000 1.0
C      1  0.5691610000000  0.4900610000000  0.4761470000000 1.0
C      1  0.4308910000000  0.4893550000000  0.4780390000000 1.0
C      1  0.5421270000000  0.5488210000000  0.5099280000000 1.0
C      1  0.4523800000000  0.5499940000000  0.5117030000000 1.0
C      1  0.4735910000000  0.5804990000000  0.4448560000000 1.0
C      1  0.5251520000000  0.5815490000000  0.4442770000000 1.0
C      1  0.5230920000000  0.4840930000000  0.4283390000000 1.0
C      1  0.4753770000000  0.4841380000000  0.4296040000000 1.0
C      1  0.5249890000000  0.4998870000000  0.4559120000000 1.0
C      1  0.4750910000000  0.4998530000000  0.4574190000000 1.0
C      1  0.4368940000000  0.4585920000000  0.5163830000000 1.0
C      1  0.5644760000000  0.4579240000000  0.5133480000000 1.0
C      1  0.4261510000000  0.5359510000000  0.5127620000000 1.0
C      1  0.5692100000000  0.5363880000000  0.5128710000000 1.0
C      1  0.4279860000000  0.4851750000000  0.5074180000000 1.0
C      1  0.5715290000000  0.4854100000000  0.5055310000000 1.0
C      1  0.5004240000000  0.4122870000000  0.4796920000000 1.0
C      1  0.5016170000000  0.4643580000000  0.4901210000000 1.0
C      1  0.5019560000000  0.5980890000000  0.5324520000000 1.0
C      1  0.5128060000000  0.5958210000000  0.5053970000000 1.0
C      1  0.5003630000000  0.4406000000000  0.4681430000000 1.0
C      1  0.4964030000000  0.4503920000000  0.5755220000000 1.0
C      1  0.4964960000000  0.4670180000000  0.6241520000000 1.0
C      1  0.5042960000000  0.4723540000000  0.5406500000000 1.0
C      1  0.4989020000000  0.5289440000000  0.4189780000000 1.0
C      1  0.4986890000000  0.4255070000000  0.5563150000000 1.0
C      1  0.4985140000000  0.5472580000000  0.5450510000000 1.0
C      1  0.4860860000000  0.5069060000000  0.5253980000000 1.0
C      1  0.4990690000000  0.4681440000000  0.4236680000000 1.0
C      1  0.5013650000000  0.4060440000000  0.5081730000000 1.0
C      1  0.5036870000000  0.4280530000000  0.5270350000000 1.0
C      1  0.4911290000000  0.4470530000000  0.6038950000000 1.0
C      1  0.5009420000000  0.4923650000000  0.4796530000000 1.0
C      1  0.4993180000000  0.6050060000000  0.4811390000000 1.0
C      1  0.5012760000000  0.5764150000000  0.5519960000000 1.0
C      1  0.5068790000000  0.4556920000000  0.5178200000000 1.0
C      1  0.4993000000000  0.5906330000000  0.4554850000000 1.0
C      1  0.4995380000000  0.5116190000000  0.5010100000000 1.0
C      1  0.4958320000000  0.5160050000000  0.5518350000000 1.0
C      1  0.5000170000000  0.3785530000000  0.5174450000000 1.0
C      1  0.4996710000000  0.5150470000000  0.4443570000000 1.0
C      1  0.4993660000000  0.4426990000000  0.4375410000000 1.0
END
