TITL C-862505-1648-629 0.0667500429107071 125000 -883.193662773938 0 0 158 (C1) n - 1
REM
REM in /home/nfs/bkarasulu/CARBON/AIRSS/Generating-Clusters/TERSOFF/Higher-Symm/FIRE-HFTN
REM
REM
REM
REM
REM
REM ./C.cell (b20cbc046b6831c77cfcea5457e17084)
REM AIRSS Version 0.9.1 bugfix July 2018 build 013d7b7c2542+ Fri, 06 Jul 2018 19:26:36 +0100
REM compiler GCC version 9.2.1 20190827 (Red Hat 9.2.1-1)
REM options -cpp -mtune=generic -march=x86-64 -g -O0 -fpre-include=/usr/include/finclude/math-vector-fortran.h
REM seed -231306166 -1196362963 669700620 951324955 1338539597 -943127156 971638018 -654586409 1298881632 1346890516 -1679402192 577915635 1411354987 1604588014 490378792 -1500747917 -1151746954 -1562652370 -577389896 476857397 -292226722 1295448698 2047578127 1432416971 1118114398 1396958817 -520688343 559875883 303609519 926807513 1562668481 -1256381419 1842991222
REM
CELL 1.54180   50.00000   50.00000   50.00000   90.00000   90.00000   90.00000
LATT -1
SFAC C  
C      1  0.5263870000000  0.5457250000000  0.4108780000000 1.0
C      1  0.4644890000000  0.5378790000000  0.4100280000000 1.0
C      1  0.4524300000000  0.4765020000000  0.4104540000000 1.0
C      1  0.5068540000000  0.4461960000000  0.4106390000000 1.0
C      1  0.5525710000000  0.4902720000000  0.4100050000000 1.0
C      1  0.5264480000000  0.5061520000000  0.5145950000000 1.0
C      1  0.5024860000000  0.5229500000000  0.5082650000000 1.0
C      1  0.4764670000000  0.5061700000000  0.5075360000000 1.0
C      1  0.4871460000000  0.4789550000000  0.5162790000000 1.0
C      1  0.5167510000000  0.4790420000000  0.5181050000000 1.0
C      1  0.5801910000000  0.4882400000000  0.4941100000000 1.0
C      1  0.5315030000000  0.5672090000000  0.4947140000000 1.0
C      1  0.4398600000000  0.5530290000000  0.4917820000000 1.0
C      1  0.4328590000000  0.4634610000000  0.4946370000000 1.0
C      1  0.5168450000000  0.4259790000000  0.4944660000000 1.0
C      1  0.4761870000000  0.5859000000000  0.5472560000000 1.0
C      1  0.4039620000000  0.5061370000000  0.5436870000000 1.0
C      1  0.4653210000000  0.4123200000000  0.5466550000000 1.0
C      1  0.5779680000000  0.4370770000000  0.5437770000000 1.0
C      1  0.5812410000000  0.5548220000000  0.5446960000000 1.0
C      1  0.4976150000000  0.5985770000000  0.5007160000000 1.0
C      1  0.3975030000000  0.5292670000000  0.4949400000000 1.0
C      1  0.4423600000000  0.4166440000000  0.4994360000000 1.0
C      1  0.5669300000000  0.4150400000000  0.4958220000000 1.0
C      1  0.6004900000000  0.5396250000000  0.4957190000000 1.0
C      1  0.4150000000000  0.5154000000000  0.5707200000000 1.0
C      1  0.4591420000000  0.4235660000000  0.5741900000000 1.0
C      1  0.5634600000000  0.4378640000000  0.5712620000000 1.0
C      1  0.5771970000000  0.5404740000000  0.5716620000000 1.0
C      1  0.4881150000000  0.5756450000000  0.5740980000000 1.0
C      1  0.5091510000000  0.6112000000000  0.4757390000000 1.0
C      1  0.3940410000000  0.5458540000000  0.4697210000000 1.0
C      1  0.4270670000000  0.4137630000000  0.4735970000000 1.0
C      1  0.5578930000000  0.3993520000000  0.4717340000000 1.0
C      1  0.6129290000000  0.5263720000000  0.4712440000000 1.0
C      1  0.3893070000000  0.5288780000000  0.5248570000000 1.0
C      1  0.4400170000000  0.4055750000000  0.5277070000000 1.0
C      1  0.5745190000000  0.4100070000000  0.5253460000000 1.0
C      1  0.6066240000000  0.5451150000000  0.5258180000000 1.0
C      1  0.4946650000000  0.6061260000000  0.5300890000000 1.0
C      1  0.3881420000000  0.4429740000000  0.4892680000000 1.0
C      1  0.5178020000000  0.3761570000000  0.4917490000000 1.0
C      1  0.6258190000000  0.4785990000000  0.4872940000000 1.0
C      1  0.5555350000000  0.6135640000000  0.4884520000000 1.0
C      1  0.4127290000000  0.5872160000000  0.4895550000000 1.0
C      1  0.5612600000000  0.5699810000000  0.4903890000000 1.0
C      1  0.4539270000000  0.5790560000000  0.4897670000000 1.0
C      1  0.4090900000000  0.4813500000000  0.4894210000000 1.0
C      1  0.4902370000000  0.4128320000000  0.4922410000000 1.0
C      1  0.5871410000000  0.4595900000000  0.4881270000000 1.0
C      1  0.5259660000000  0.4929090000000  0.5980250000000 1.0
C      1  0.5151290000000  0.5218280000000  0.6012650000000 1.0
C      1  0.4848170000000  0.5192580000000  0.6027540000000 1.0
C      1  0.4762270000000  0.4904290000000  0.5994160000000 1.0
C      1  0.5017680000000  0.4742820000000  0.5972470000000 1.0
C      1  0.5739890000000  0.5300710000000  0.4305330000000 1.0
C      1  0.4942950000000  0.5785470000000  0.4298430000000 1.0
C      1  0.4232130000000  0.5180930000000  0.4283290000000 1.0
C      1  0.4580350000000  0.4315300000000  0.4301280000000 1.0
C      1  0.5517550000000  0.4385400000000  0.4286450000000 1.0
C      1  0.4434470000000  0.4617180000000  0.5458620000000 1.0
C      1  0.5211240000000  0.4345740000000  0.5452970000000 1.0
C      1  0.5691880000000  0.4997220000000  0.5431050000000 1.0
C      1  0.5160880000000  0.5523190000000  0.5424410000000 1.0
C      1  0.4435610000000  0.5418080000000  0.5402980000000 1.0
C      1  0.5951920000000  0.5083580000000  0.4472270000000 1.0
C      1  0.5203970000000  0.5917350000000  0.4482080000000 1.0
C      1  0.4183280000000  0.5486570000000  0.4445460000000 1.0
C      1  0.4287760000000  0.4370020000000  0.4479420000000 1.0
C      1  0.5370060000000  0.4115940000000  0.4474300000000 1.0
C      1  0.4842210000000  0.4675720000000  0.4436640000000 1.0
C      1  0.5256890000000  0.4737360000000  0.4427760000000 1.0
C      1  0.5329090000000  0.5149510000000  0.4453370000000 1.0
C      1  0.4956670000000  0.5341290000000  0.4438010000000 1.0
C      1  0.4654860000000  0.5050610000000  0.4437980000000 1.0
C      1  0.5480850000000  0.5164930000000  0.5313690000000 1.0
C      1  0.4927390000000  0.5347380000000  0.5342420000000 1.0
C      1  0.4552520000000  0.5156620000000  0.5299130000000 1.0
C      1  0.4730090000000  0.4706260000000  0.5421470000000 1.0
C      1  0.5322760000000  0.4594650000000  0.5326500000000 1.0
C      1  0.5748960000000  0.5844460000000  0.5378720000000 1.0
C      1  0.4462710000000  0.5930620000000  0.5397370000000 1.0
C      1  0.3906220000000  0.4788410000000  0.5373890000000 1.0
C      1  0.4871110000000  0.3917810000000  0.5394220000000 1.0
C      1  0.6049310000000  0.4506480000000  0.5360190000000 1.0
C      1  0.5878770000000  0.4956360000000  0.5212120000000 1.0
C      1  0.5226720000000  0.5726590000000  0.5222500000000 1.0
C      1  0.4277650000000  0.5492950000000  0.5172330000000 1.0
C      1  0.4316040000000  0.4508320000000  0.5212960000000 1.0
C      1  0.5279550000000  0.4195390000000  0.5203680000000 1.0
C      1  0.5680450000000  0.5765760000000  0.4628490000000 1.0
C      1  0.4510540000000  0.5889960000000  0.4620910000000 1.0
C      1  0.3998540000000  0.4789250000000  0.4618130000000 1.0
C      1  0.4879360000000  0.4006670000000  0.4654260000000 1.0
C      1  0.5946300000000  0.4563500000000  0.4600920000000 1.0
C      1  0.5667910000000  0.4605630000000  0.5896290000000 1.0
C      1  0.5577050000000  0.5499320000000  0.5918440000000 1.0
C      1  0.4711860000000  0.5688330000000  0.5967380000000 1.0
C      1  0.4248620000000  0.4965370000000  0.5908610000000 1.0
C      1  0.4803340000000  0.4267830000000  0.5941830000000 1.0
C      1  0.4804760000000  0.5745660000000  0.5000810000000 1.0
C      1  0.4172900000000  0.5076010000000  0.4969510000000 1.0
C      1  0.4688380000000  0.4299440000000  0.5016420000000 1.0
C      1  0.5647600000000  0.4442500000000  0.4972690000000 1.0
C      1  0.5716550000000  0.5447090000000  0.4982340000000 1.0
C      1  0.5283450000000  0.5460450000000  0.5901150000000 1.0
C      1  0.4664940000000  0.5416990000000  0.6064490000000 1.0
C      1  0.4501210000000  0.4816640000000  0.5889390000000 1.0
C      1  0.5029720000000  0.4454040000000  0.5917920000000 1.0
C      1  0.5526660000000  0.4863440000000  0.5872310000000 1.0
C      1  0.4304050000000  0.5396600000000  0.5660030000000 1.0
C      1  0.4401810000000  0.4455130000000  0.5700770000000 1.0
C      1  0.5362640000000  0.4274380000000  0.5690490000000 1.0
C      1  0.5798000000000  0.5116140000000  0.5676210000000 1.0
C      1  0.5138310000000  0.5610460000000  0.5697200000000 1.0
C      1  0.5511710000000  0.6020060000000  0.4598550000000 1.0
C      1  0.4211620000000  0.5809350000000  0.4603060000000 1.0
C      1  0.3982280000000  0.4482980000000  0.4602710000000 1.0
C      1  0.5154020000000  0.3869760000000  0.4624410000000 1.0
C      1  0.6135860000000  0.4806410000000  0.4587810000000 1.0
C      1  0.5320400000000  0.4641250000000  0.4139440000000 1.0
C      1  0.5443650000000  0.5191400000000  0.4171230000000 1.0
C      1  0.4958160000000  0.5463170000000  0.4153970000000 1.0
C      1  0.4543210000000  0.5090310000000  0.4150440000000 1.0
C      1  0.4765980000000  0.4579550000000  0.4152510000000 1.0
C      1  0.4744430000000  0.4380880000000  0.5302260000000 1.0
C      1  0.5591560000000  0.4526620000000  0.5245520000000 1.0
C      1  0.5617950000000  0.5408690000000  0.5248340000000 1.0
C      1  0.4781400000000  0.5616430000000  0.5270740000000 1.0
C      1  0.4280580000000  0.5050720000000  0.5236780000000 1.0
C      1  0.5079740000000  0.4235530000000  0.4307260000000 1.0
C      1  0.5754260000000  0.4842040000000  0.4291310000000 1.0
C      1  0.5379110000000  0.5653340000000  0.4310750000000 1.0
C      1  0.4494510000000  0.5559730000000  0.4291910000000 1.0
C      1  0.4307600000000  0.4680840000000  0.4298590000000 1.0
C      1  0.3886300000000  0.4680530000000  0.5087180000000 1.0
C      1  0.4968900000000  0.3891490000000  0.5108330000000 1.0
C      1  0.6121490000000  0.4575390000000  0.5069180000000 1.0
C      1  0.5685730000000  0.5934520000000  0.5091040000000 1.0
C      1  0.4360510000000  0.5949360000000  0.5104600000000 1.0
C      1  0.5134900000000  0.5697160000000  0.4710730000000 1.0
C      1  0.4348080000000  0.5358780000000  0.4684180000000 1.0
C      1  0.4466760000000  0.4507990000000  0.4710950000000 1.0
C      1  0.5330470000000  0.4331910000000  0.4706540000000 1.0
C      1  0.5751290000000  0.5080860000000  0.4719920000000 1.0
C      1  0.4435720000000  0.5074130000000  0.4641070000000 1.0
C      1  0.4759380000000  0.4492190000000  0.4650320000000 1.0
C      1  0.5427380000000  0.4605020000000  0.4632880000000 1.0
C      1  0.5508930000000  0.5257860000000  0.4670160000000 1.0
C      1  0.4891790000000  0.5537840000000  0.4646490000000 1.0
C      1  0.5595650000000  0.5533420000000  0.4473580000000 1.0
C      1  0.4678250000000  0.5718190000000  0.4460770000000 1.0
C      1  0.4205100000000  0.4909800000000  0.4454400000000 1.0
C      1  0.4833730000000  0.4221940000000  0.4470770000000 1.0
C      1  0.5704990000000  0.4595090000000  0.4445800000000 1.0
C      1  0.5007650000000  0.4989460000000  0.4500680000000 1.0
C      1  0.4778610000000  0.5056690000000  0.5501410000000 1.0
C      1  0.5047750000000  0.4920600000000  0.4800170000000 1.0
END
