TITL C-862503-991-1226 2.5004366677619e-05 125000 -258.379698509048 0 0 58 (C5) n - 1
REM
REM in /home/nfs/bkarasulu/CARBON/AIRSS/Generating-Clusters/TERSOFF/Higher-Symm/FIRE-HFTN
REM
REM
REM
REM
REM
REM ./C.cell (b20cbc046b6831c77cfcea5457e17084)
REM AIRSS Version 0.9.1 bugfix July 2018 build 013d7b7c2542+ Fri, 06 Jul 2018 19:26:36 +0100
REM compiler GCC version 9.2.1 20190827 (Red Hat 9.2.1-1)
REM options -cpp -mtune=generic -march=x86-64 -g -O0 -fpre-include=/usr/include/finclude/math-vector-fortran.h
REM seed 55533589 -1350431685 1497906439 741560742 -1742144366 1149392550 -1059460681 1382884629 -977266453 -1657044754 1777257013 -1008414709 -55043511 867475278 -2107066885 -1681311422 -576792866 -404564400 -1430200798 -1490709834 -1129381341 1085462533 -1210071867 1822354516 -400354076 -1351183622 1108376582 380787121 66161606 -487510466 -1404668857 -1893811264 2118583533
REM
CELL 1.54180   50.00000   50.00000   50.00000   90.00000   90.00000   90.00000
LATT -1
SFAC C  
C      1  0.5122080000000  0.4489160000000  0.4544670000000 1.0
C      1  0.4597730000000  0.4489160000000  0.4748330000000 1.0
C      1  0.4629380000000  0.4489160000000  0.5309950000000 1.0
C      1  0.5173300000000  0.4489160000000  0.5453390000000 1.0
C      1  0.5477800000000  0.4489160000000  0.4980420000000 1.0
C      1  0.5122080000000  0.5529430000000  0.5470030000000 1.0
C      1  0.4597730000000  0.5529430000000  0.5266370000000 1.0
C      1  0.4629390000000  0.5529430000000  0.4704750000000 1.0
C      1  0.5173300000000  0.5529430000000  0.4561310000000 1.0
C      1  0.5477800000000  0.5529430000000  0.5034280000000 1.0
C      1  0.4892800000000  0.5734420000000  0.5282450000000 1.0
C      1  0.5228550000000  0.5734410000000  0.5194370000000 1.0
C      1  0.5248530000000  0.5734410000000  0.4847840000000 1.0
C      1  0.4925140000000  0.5734410000000  0.4721740000000 1.0
C      1  0.4705280000000  0.5734420000000  0.4990350000000 1.0
C      1  0.4892800000000  0.4284170000000  0.4732250000000 1.0
C      1  0.5228550000000  0.4284170000000  0.4820330000000 1.0
C      1  0.5248530000000  0.4284170000000  0.5166870000000 1.0
C      1  0.4925130000000  0.4284170000000  0.5292960000000 1.0
C      1  0.4705280000000  0.4284170000000  0.5024350000000 1.0
C      1  0.5001110000000  0.5260400000000  0.4486600000000 1.0
C      1  0.4505120000000  0.5260400000000  0.4845430000000 1.0
C      1  0.4693120000000  0.5260400000000  0.5428030000000 1.0
C      1  0.5305300000000  0.5260400000000  0.5429260000000 1.0
C      1  0.5495650000000  0.5260390000000  0.4847430000000 1.0
C      1  0.5001100000000  0.4758190000000  0.5528100000000 1.0
C      1  0.4505120000000  0.4758190000000  0.5169270000000 1.0
C      1  0.4693120000000  0.4758190000000  0.4586670000000 1.0
C      1  0.5305300000000  0.4758190000000  0.4585440000000 1.0
C      1  0.5495650000000  0.4758190000000  0.5167280000000 1.0
C      1  0.4389220000000  0.5154950000000  0.5441730000000 1.0
C      1  0.5224420000000  0.5154950000000  0.5722520000000 1.0
C      1  0.5749560000000  0.5154950000000  0.5014970000000 1.0
C      1  0.5238910000000  0.5154950000000  0.4296890000000 1.0
C      1  0.4398180000000  0.5154950000000  0.4560640000000 1.0
C      1  0.4389230000000  0.4863640000000  0.4572960000000 1.0
C      1  0.5224430000000  0.4863640000000  0.4292180000000 1.0
C      1  0.5749560000000  0.4863640000000  0.4999740000000 1.0
C      1  0.5238910000000  0.4863640000000  0.5717820000000 1.0
C      1  0.4398170000000  0.4863640000000  0.5454050000000 1.0
C      1  0.5426340000000  0.5320200000000  0.4545580000000 1.0
C      1  0.4692620000000  0.5320200000000  0.4459240000000 1.0
C      1  0.4383770000000  0.5320200000000  0.5130370000000 1.0
C      1  0.4926610000000  0.5320200000000  0.5631490000000 1.0
C      1  0.5570950000000  0.5320200000000  0.5270080000000 1.0
C      1  0.5426340000000  0.4698390000000  0.5469120000000 1.0
C      1  0.4692620000000  0.4698390000000  0.5555460000000 1.0
C      1  0.4383770000000  0.4698390000000  0.4884330000000 1.0
C      1  0.4926610000000  0.4698390000000  0.4383210000000 1.0
C      1  0.5570960000000  0.4698390000000  0.4744630000000 1.0
C      1  0.5355770000000  0.5009290000000  0.5007350000000 1.0
C      1  0.5109980000000  0.5009290000000  0.4669050000000 1.0
C      1  0.4712280000000  0.5009290000000  0.4798270000000 1.0
C      1  0.5109980000000  0.5009290000000  0.5345650000000 1.0
C      1  0.4712280000000  0.5009290000000  0.5216430000000 1.0
C      1  0.5000060000000  0.4685000000000  0.5007350000000 1.0
C      1  0.5000060000000  0.5333590000000  0.5007350000000 1.0
C      1  0.5000060000000  0.5009290000000  0.5007350000000 1.0
END
