TITL C-862131-2149-1431 0.000601434882996203 125000 -473.133033163814 0 0 85 (Ci) n - 1
REM
REM in /home/nfs/bkarasulu/CARBON/AIRSS/Generating-Clusters/TERSOFF/Higher-Symm/FIRE-HFTN
REM
REM
REM
REM
REM
REM ./C.cell (b20cbc046b6831c77cfcea5457e17084)
REM AIRSS Version 0.9.1 bugfix July 2018 build 013d7b7c2542+ Fri, 06 Jul 2018 19:26:36 +0100
REM compiler GCC version 9.2.1 20190827 (Red Hat 9.2.1-1)
REM options -cpp -mtune=generic -march=x86-64 -g -O0 -fpre-include=/usr/include/finclude/math-vector-fortran.h
REM seed 1583081055 -1841005616 -2130713560 440555360 281584939 809260650 -147625556 594961802 1482878750 -1860816227 2027975830 -1273154668 105002955 -1153661791 -1398994438 790643504 781969383 -1603266737 -1393967969 -83362565 1465633682 546227526 567435978 1186820828 -1889125468 -786175870 -1995034542 -1896067917 1167413410 1154520930 1421658678 1240030168 1575214633
REM
CELL 1.54180   50.00000   50.00000   50.00000   90.00000   90.00000   90.00000
LATT -1
SFAC C  
C      1  0.4554930000000  0.4950540000000  0.4915840000000 1.0
C      1  0.5450370000000  0.5049760000000  0.5092430000000 1.0
C      1  0.5047650000000  0.5757120000000  0.4691220000000 1.0
C      1  0.4957650000000  0.4243180000000  0.5317050000000 1.0
C      1  0.5071620000000  0.4803630000000  0.4395900000000 1.0
C      1  0.4933690000000  0.5196670000000  0.5612370000000 1.0
C      1  0.5079290000000  0.5462200000000  0.5565530000000 1.0
C      1  0.4926010000000  0.4538100000000  0.4442740000000 1.0
C      1  0.4650070000000  0.4629030000000  0.5574850000000 1.0
C      1  0.5355240000000  0.5371270000000  0.4433420000000 1.0
C      1  0.4825950000000  0.5516500000000  0.4259650000000 1.0
C      1  0.5179350000000  0.4483800000000  0.5748630000000 1.0
C      1  0.4184310000000  0.5204760000000  0.4550300000000 1.0
C      1  0.5821000000000  0.4795550000000  0.5457970000000 1.0
C      1  0.5536770000000  0.4865230000000  0.5868550000000 1.0
C      1  0.4468530000000  0.5135070000000  0.4139720000000 1.0
C      1  0.5030560000000  0.5815570000000  0.5196980000000 1.0
C      1  0.4974740000000  0.4184730000000  0.4811290000000 1.0
C      1  0.4858390000000  0.5199440000000  0.4611560000000 1.0
C      1  0.5146920000000  0.4800870000000  0.5396710000000 1.0
C      1  0.4826110000000  0.5613110000000  0.4546650000000 1.0
C      1  0.5179190000000  0.4387190000000  0.5461630000000 1.0
C      1  0.5049480000000  0.4984950000000  0.5790090000000 1.0
C      1  0.4955820000000  0.5015350000000  0.4218190000000 1.0
C      1  0.5759770000000  0.4973730000000  0.5693940000000 1.0
C      1  0.4245540000000  0.5026570000000  0.4314340000000 1.0
C      1  0.4700320000000  0.5341750000000  0.5193860000000 1.0
C      1  0.5304990000000  0.4658550000000  0.4814410000000 1.0
C      1  0.5378320000000  0.4280240000000  0.5107780000000 1.0
C      1  0.4626990000000  0.5720070000000  0.4900490000000 1.0
C      1  0.5771210000000  0.4697710000000  0.4969400000000 1.0
C      1  0.4234090000000  0.5302590000000  0.5038870000000 1.0
C      1  0.5531130000000  0.5555330000000  0.4984620000000 1.0
C      1  0.4474170000000  0.4444970000000  0.5023660000000 1.0
C      1  0.5122350000000  0.4124470000000  0.5074500000000 1.0
C      1  0.4882960000000  0.5875830000000  0.4933780000000 1.0
C      1  0.5459910000000  0.5090290000000  0.4258870000000 1.0
C      1  0.4545390000000  0.4910010000000  0.5749400000000 1.0
C      1  0.5023140000000  0.5290950000000  0.4338380000000 1.0
C      1  0.4982160000000  0.4709360000000  0.5669890000000 1.0
C      1  0.5474410000000  0.4743400000000  0.5041610000000 1.0
C      1  0.4530900000000  0.5256900000000  0.4966670000000 1.0
C      1  0.4517690000000  0.4992450000000  0.5338710000000 1.0
C      1  0.5487620000000  0.5007850000000  0.4669560000000 1.0
C      1  0.5366320000000  0.4328240000000  0.4503840000000 1.0
C      1  0.4638990000000  0.5672060000000  0.5504430000000 1.0
C      1  0.5155890000000  0.5023480000000  0.4672400000000 1.0
C      1  0.4849410000000  0.4976820000000  0.5335880000000 1.0
C      1  0.5390340000000  0.4556430000000  0.5284010000000 1.0
C      1  0.4614960000000  0.5443870000000  0.4724270000000 1.0
C      1  0.4391040000000  0.4732220000000  0.5370380000000 1.0
C      1  0.5614260000000  0.5268080000000  0.4637900000000 1.0
C      1  0.5642160000000  0.5275440000000  0.4953490000000 1.0
C      1  0.4363140000000  0.4724860000000  0.5054780000000 1.0
C      1  0.4543670000000  0.5388600000000  0.5476990000000 1.0
C      1  0.5461640000000  0.4611710000000  0.4531290000000 1.0
C      1  0.5483590000000  0.5604240000000  0.5277130000000 1.0
C      1  0.4521720000000  0.4396070000000  0.4731150000000 1.0
C      1  0.4392890000000  0.5423710000000  0.4511820000000 1.0
C      1  0.5612410000000  0.4576600000000  0.5496460000000 1.0
C      1  0.4926690000000  0.5705590000000  0.5466110000000 1.0
C      1  0.5078610000000  0.4294710000000  0.4542160000000 1.0
C      1  0.4529350000000  0.5416240000000  0.4237460000000 1.0
C      1  0.5475950000000  0.4584060000000  0.5770810000000 1.0
C      1  0.5121320000000  0.5558660000000  0.5070380000000 1.0
C      1  0.4883990000000  0.4441640000000  0.4937890000000 1.0
C      1  0.5688850000000  0.4764630000000  0.4681370000000 1.0
C      1  0.4316450000000  0.5235670000000  0.5326910000000 1.0
C      1  0.4743180000000  0.4872790000000  0.4701480000000 1.0
C      1  0.5262130000000  0.5127510000000  0.5306790000000 1.0
C      1  0.5360850000000  0.4805480000000  0.4316310000000 1.0
C      1  0.4644460000000  0.5194820000000  0.5691960000000 1.0
C      1  0.4683400000000  0.4394650000000  0.5303580000000 1.0
C      1  0.5321900000000  0.5605650000000  0.4704690000000 1.0
C      1  0.5012740000000  0.5312000000000  0.5151730000000 1.0
C      1  0.4992560000000  0.4688310000000  0.4856540000000 1.0
C      1  0.5302400000000  0.5024940000000  0.5926670000000 1.0
C      1  0.4702900000000  0.4975360000000  0.4081610000000 1.0
C      1  0.4108340000000  0.5118280000000  0.4831370000000 1.0
C      1  0.5896960000000  0.4882020000000  0.5176900000000 1.0
C      1  0.4662600000000  0.4596120000000  0.4563740000000 1.0
C      1  0.5342700000000  0.5404180000000  0.5444530000000 1.0
C      1  0.5889400000000  0.5166960000000  0.5094650000000 1.0
C      1  0.4115900000000  0.4833340000000  0.4913620000000 1.0
C      1  0.5002650000000  0.5000150000000  0.5004140000000 1.0
END
