TITL C-862500-986-1221 3463.5081485643 125000 -1117.54948694089 0 0 189 (C1) n - 1
REM
REM in /home/nfs/bkarasulu/CARBON/AIRSS/Generating-Clusters/TERSOFF/Higher-Symm/FIRE-HFTN
REM
REM
REM
REM
REM
REM ./C.cell (b20cbc046b6831c77cfcea5457e17084)
REM AIRSS Version 0.9.1 bugfix July 2018 build 013d7b7c2542+ Fri, 06 Jul 2018 19:26:36 +0100
REM compiler GCC version 9.2.1 20190827 (Red Hat 9.2.1-1)
REM options -cpp -mtune=generic -march=x86-64 -g -O0 -fpre-include=/usr/include/finclude/math-vector-fortran.h
REM seed 565787332 2022046454 2144960816 -1908331467 777853416 1047205112 -1476879652 -665535858 1817301142 -163019931 -590098275 1973170970 -1629242775 -1325884634 322170334 421590039 1689030377 -1658715097 -1097338881 -311234896 1111080130 771329545 -627364014 -44324871 1659308457 1821984303 2084705998 1912158486 1009309104 -395495485 1060865478 -1599952130 89833374
REM
CELL 1.54180   50.00000   50.00000   50.00000   90.00000   90.00000   90.00000
LATT -1
SFAC C  
C      1  0.4002040000000  0.4574040000000  0.5620750000000 1.0
C      1  0.4955670000000  0.4826750000000  0.4627910000000 1.0
C      1  0.5236440000000  0.6285630000000  0.5303360000000 1.0
C      1  0.4908750000000  0.6068220000000  0.5680020000000 1.0
C      1  0.5139190000000  0.5895270000000  0.4795010000000 1.0
C      1  0.4865790000000  0.6047250000000  0.4430850000000 1.0
C      1  0.5404500000000  0.5703220000000  0.4027630000000 1.0
C      1  0.4607340000000  0.5299230000000  0.5172590000000 1.0
C      1  0.4274080000000  0.5501510000000  0.4318070000000 1.0
C      1  0.5274780000000  0.4562840000000  0.4381070000000 1.0
C      1  0.4742170000000  0.5144650000000  0.6051780000000 1.0
C      1  0.4997410000000  0.5621100000000  0.3726330000000 1.0
C      1  0.5418470000000  0.5869430000000  0.5436660000000 1.0
C      1  0.5564320000000  0.5297890000000  0.6008840000000 1.0
C      1  0.4701560000000  0.4965800000000  0.3756400000000 1.0
C      1  0.5020930000000  0.3877630000000  0.4615960000000 1.0
C      1  0.4370560000000  0.4658600000000  0.4887410000000 1.0
C      1  0.4791310000000  0.3857140000000  0.5267640000000 1.0
C      1  0.4800330000000  0.4191200000000  0.5687110000000 1.0
C      1  0.5512670000000  0.4813550000000  0.5793110000000 1.0
C      1  0.5607970000000  0.4420420000000  0.4168970000000 1.0
C      1  0.4362570000000  0.5067590000000  0.4013980000000 1.0
C      1  0.3799420000000  0.4796880000000  0.5667280000000 1.0
C      1  0.5934840000000  0.5756070000000  0.4862310000000 1.0
C      1  0.4181290000000  0.5187540000000  0.4986810000000 1.0
C      1  0.5632350000000  0.4546220000000  0.5818390000000 1.0
C      1  0.4085150000000  0.5363920000000  0.5200710000000 1.0
C      1  0.4155680000000  0.4869090000000  0.4497610000000 1.0
C      1  0.4234080000000  0.6001110000000  0.4906480000000 1.0
C      1  0.4704000000000  0.4639690000000  0.4020910000000 1.0
C      1  0.4534070000000  0.4046530000000  0.4631120000000 1.0
C      1  0.6109010000000  0.5510240000000  0.4893230000000 1.0
C      1  0.5143430000000  0.4568370000000  0.5670580000000 1.0
C      1  0.5310650000000  0.3926820000000  0.4631560000000 1.0
C      1  0.4497490000000  0.4317190000000  0.5237270000000 1.0
C      1  0.6134980000000  0.4973960000000  0.4925690000000 1.0
C      1  0.5248700000000  0.3919480000000  0.5125260000000 1.0
C      1  0.5111750000000  0.4198630000000  0.3801750000000 1.0
C      1  0.4442530000000  0.4468430000000  0.5841980000000 1.0
C      1  0.5410830000000  0.4961550000000  0.4141010000000 1.0
C      1  0.4506870000000  0.4664330000000  0.4638830000000 1.0
C      1  0.5427030000000  0.4177960000000  0.5501620000000 1.0
C      1  0.5227990000000  0.5690830000000  0.5868220000000 1.0
C      1  0.4641430000000  0.4369960000000  0.4144020000000 1.0
C      1  0.5216510000000  0.4834150000000  0.5816700000000 1.0
C      1  0.5054350000000  0.5557820000000  0.4411260000000 1.0
C      1  0.4865660000000  0.4210070000000  0.4253610000000 1.0
C      1  0.4230420000000  0.5292350000000  0.4729560000000 1.0
C      1  0.5541800000000  0.4901650000000  0.5094700000000 1.0
C      1  0.5442620000000  0.5809950000000  0.5717200000000 1.0
C      1  0.4334840000000  0.5120120000000  0.4531530000000 1.0
C      1  0.5820750000000  0.4216810000000  0.4674590000000 1.0
C      1  0.4047410000000  0.4247690000000  0.4638760000000 1.0
C      1  0.4835850000000  0.4106930000000  0.4547870000000 1.0
C      1  0.3959420000000  0.4771450000000  0.4711940000000 1.0
C      1  0.5199400000000  0.4145970000000  0.5318920000000 1.0
C      1  0.4852240000000  0.5160480000000  0.3931970000000 1.0
C      1  0.5833540000000  0.5309600000000  0.5185920000000 1.0
C      1  0.3853940000000  0.5055780000000  0.5504180000000 1.0
C      1  0.4998040000000  0.6132220000000  0.5391830000000 1.0
C      1  0.4336670000000  0.4864160000000  0.6115240000000 1.0
C      1  0.4387580000000  0.4398290000000  0.4303970000000 1.0
C      1  0.4720850000000  0.4942780000000  0.5644090000000 1.0
C      1  0.4249420000000  0.4761450000000  0.5521630000000 1.0
C      1  0.4551740000000  0.6154960000000  0.5295030000000 1.0
C      1  0.6058310000000  0.5231530000000  0.4784440000000 1.0
C      1  0.4779560000000  0.4609310000000  0.4641980000000 1.0
C      1  0.5754260000000  0.4635960000000  0.4363940000000 1.0
C      1  0.4277770000000  0.5527810000000  0.5377790000000 1.0
C      1  0.4732160000000  0.5755470000000  0.5209440000000 1.0
C      1  0.6237960000000  0.4777720000000  0.5409650000000 1.0
C      1  0.4030190000000  0.4451800000000  0.5121590000000 1.0
C      1  0.4665500000000  0.4526280000000  0.5350060000000 1.0
C      1  0.4834280000000  0.5211030000000  0.4744140000000 1.0
C      1  0.6022170000000  0.4323080000000  0.5186160000000 1.0
C      1  0.4434230000000  0.5117750000000  0.3724720000000 1.0
C      1  0.5463500000000  0.3985490000000  0.4398990000000 1.0
C      1  0.5924470000000  0.4037190000000  0.4469740000000 1.0
C      1  0.4694980000000  0.4608870000000  0.5897530000000 1.0
C      1  0.4816590000000  0.6215180000000  0.4668370000000 1.0
C      1  0.4928630000000  0.4058390000000  0.5448520000000 1.0
C      1  0.5041660000000  0.5221150000000  0.6095300000000 1.0
C      1  0.5333780000000  0.5428640000000  0.4337480000000 1.0
C      1  0.5174790000000  0.4787890000000  0.4196310000000 1.0
C      1  0.5800740000000  0.5331190000000  0.5817200000000 1.0
C      1  0.5004440000000  0.3747160000000  0.5093220000000 1.0
C      1  0.6004050000000  0.4714840000000  0.4212780000000 1.0
C      1  0.4262670000000  0.5152680000000  0.6069430000000 1.0
C      1  0.4619440000000  0.6158600000000  0.5592630000000 1.0
C      1  0.5209420000000  0.6320680000000  0.4998380000000 1.0
C      1  0.4813220000000  0.5146470000000  0.4237340000000 1.0
C      1  0.3850410000000  0.4929690000000  0.5211910000000 1.0
C      1  0.5268500000000  0.5194390000000  0.5378450000000 1.0
C      1  0.4986630000000  0.4712510000000  0.3976600000000 1.0
C      1  0.5309770000000  0.4558020000000  0.4680720000000 1.0
C      1  0.4764820000000  0.5592400000000  0.5716450000000 1.0
C      1  0.5657980000000  0.4641350000000  0.5139360000000 1.0
C      1  0.4162810000000  0.5044230000000  0.5566120000000 1.0
C      1  0.5132870000000  0.4403550000000  0.4864900000000 1.0
C      1  0.5052500000000  0.5400830000000  0.4669200000000 1.0
C      1  0.4386490000000  0.4151400000000  0.5448250000000 1.0
C      1  0.4551790000000  0.4730360000000  0.5521900000000 1.0
C      1  0.4508190000000  0.5554510000000  0.5839100000000 1.0
C      1  0.4353570000000  0.5252610000000  0.5503900000000 1.0
C      1  0.5318440000000  0.5458550000000  0.5437620000000 1.0
C      1  0.5682310000000  0.4057420000000  0.5430570000000 1.0
C      1  0.5486270000000  0.6266340000000  0.4879720000000 1.0
C      1  0.5689280000000  0.4095040000000  0.4920390000000 1.0
C      1  0.5906060000000  0.5975650000000  0.5070500000000 1.0
C      1  0.4853030000000  0.5216950000000  0.5326570000000 1.0
C      1  0.5827430000000  0.4112410000000  0.5182740000000 1.0
C      1  0.4287890000000  0.6075670000000  0.5188510000000 1.0
C      1  0.5063960000000  0.5839670000000  0.4507090000000 1.0
C      1  0.4315200000000  0.4211330000000  0.4510100000000 1.0
C      1  0.5056060000000  0.4967700000000  0.4889790000000 1.0
C      1  0.5284700000000  0.5691880000000  0.4963430000000 1.0
C      1  0.6029790000000  0.4688840000000  0.4837680000000 1.0
C      1  0.4185480000000  0.5258760000000  0.4164330000000 1.0
C      1  0.5627920000000  0.4962890000000  0.5586900000000 1.0
C      1  0.5467560000000  0.5007760000000  0.5355570000000 1.0
C      1  0.4798390000000  0.5444760000000  0.4312150000000 1.0
C      1  0.5402920000000  0.4197720000000  0.4219870000000 1.0
C      1  0.5362600000000  0.5249010000000  0.4108210000000 1.0
C      1  0.4529200000000  0.5400910000000  0.3671120000000 1.0
C      1  0.4640420000000  0.5366490000000  0.4896740000000 1.0
C      1  0.5129190000000  0.4202090000000  0.4092810000000 1.0
C      1  0.4977120000000  0.6134050000000  0.4913980000000 1.0
C      1  0.6021030000000  0.5187320000000  0.5361480000000 1.0
C      1  0.5474130000000  0.5342440000000  0.4594090000000 1.0
C      1  0.5007950000000  0.4945960000000  0.4369590000000 1.0
C      1  0.4277300000000  0.5629400000000  0.5672800000000 1.0
C      1  0.6202690000000  0.5002310000000  0.5220290000000 1.0
C      1  0.4989650000000  0.4939230000000  0.5195650000000 1.0
C      1  0.4647080000000  0.4853110000000  0.6083570000000 1.0
C      1  0.5070430000000  0.4644340000000  0.5342140000000 1.0
C      1  0.4955020000000  0.5790270000000  0.5794160000000 1.0
C      1  0.5275120000000  0.5414040000000  0.5988320000000 1.0
C      1  0.4266740000000  0.4900360000000  0.5040910000000 1.0
C      1  0.5713870000000  0.5129520000000  0.5002040000000 1.0
C      1  0.4501780000000  0.5331040000000  0.6027190000000 1.0
C      1  0.5402470000000  0.4401240000000  0.5684850000000 1.0
C      1  0.5931030000000  0.4575990000000  0.5090420000000 1.0
C      1  0.4106300000000  0.5642430000000  0.4533780000000 1.0
C      1  0.4220460000000  0.4620990000000  0.5975910000000 1.0
C      1  0.4937540000000  0.5563270000000  0.5295080000000 1.0
C      1  0.4548970000000  0.5538070000000  0.4438450000000 1.0
C      1  0.5298350000000  0.5432450000000  0.4827580000000 1.0
C      1  0.5366020000000  0.4935940000000  0.4854320000000 1.0
C      1  0.4882410000000  0.4353240000000  0.4724210000000 1.0
C      1  0.3831570000000  0.4966050000000  0.4906350000000 1.0
C      1  0.5849860000000  0.4518740000000  0.4630980000000 1.0
C      1  0.5150520000000  0.5781230000000  0.3912640000000 1.0
C      1  0.4494500000000  0.4831970000000  0.4149090000000 1.0
C      1  0.5660240000000  0.6148310000000  0.5092040000000 1.0
C      1  0.4533760000000  0.3910940000000  0.5137050000000 1.0
C      1  0.5830150000000  0.5710460000000  0.5474090000000 1.0
C      1  0.4933590000000  0.3691130000000  0.4818820000000 1.0
C      1  0.3939580000000  0.4377520000000  0.5406110000000 1.0
C      1  0.4524990000000  0.5591380000000  0.4739160000000 1.0
C      1  0.4645440000000  0.5106410000000  0.4508270000000 1.0
C      1  0.5881500000000  0.5602020000000  0.5737640000000 1.0
C      1  0.5512960000000  0.5049290000000  0.4618510000000 1.0
C      1  0.5804840000000  0.5382540000000  0.4038760000000 1.0
C      1  0.4795360000000  0.5427920000000  0.3801730000000 1.0
C      1  0.5147870000000  0.4944090000000  0.6079040000000 1.0
C      1  0.4813160000000  0.6045370000000  0.5170540000000 1.0
C      1  0.5700050000000  0.5540540000000  0.5282740000000 1.0
C      1  0.5993380000000  0.5910320000000  0.5344310000000 1.0
C      1  0.4359080000000  0.4689780000000  0.4374980000000 1.0
C      1  0.5886360000000  0.5111910000000  0.3976330000000 1.0
C      1  0.5148190000000  0.4404750000000  0.5167400000000 1.0
C      1  0.5056380000000  0.4329010000000  0.6093550000000 1.0
C      1  0.5898500000000  0.5085540000000  0.5627040000000 1.0
C      1  0.4475570000000  0.3859730000000  0.4852670000000 1.0
C      1  0.5596920000000  0.5528580000000  0.3900040000000 1.0
C      1  0.5918450000000  0.4552620000000  0.5748790000000 1.0
C      1  0.5487160000000  0.6131480000000  0.5335620000000 1.0
C      1  0.4256880000000  0.5728040000000  0.4789330000000 1.0
C      1  0.3969320000000  0.4481000000000  0.4812910000000 1.0
C      1  0.4319090000000  0.4403730000000  0.5031980000000 1.0
C      1  0.5426810000000  0.3962090000000  0.4894640000000 1.0
C      1  0.4097010000000  0.4749440000000  0.5234920000000 1.0
C      1  0.4496970000000  0.4198440000000  0.5710260000000 1.0
C      1  0.5014200000000  0.4964920000000  0.5621330000000 1.0
C      1  0.6058670000000  0.4794850000000  0.5648800000000 1.0
C      1  0.5579720000000  0.4890650000000  0.4374220000000 1.0
C      1  0.5240080000000  0.5681760000000  0.5262380000000 1.0
C      1  0.4446630000000  0.5686870000000  0.5184190000000 1.0
C      1  0.4936590000000  0.4427300000000  0.5838900000000 1.0
END
