TITL C-862130-1496-1221 8.45611079417769e-06 125000 -908.072175066931 0 0 160 (C5) n - 1
REM
REM in /home/nfs/bkarasulu/CARBON/AIRSS/Generating-Clusters/TERSOFF/Higher-Symm/FIRE-HFTN
REM
REM
REM
REM
REM
REM ./C.cell (b20cbc046b6831c77cfcea5457e17084)
REM AIRSS Version 0.9.1 bugfix July 2018 build 013d7b7c2542+ Fri, 06 Jul 2018 19:26:36 +0100
REM compiler GCC version 9.2.1 20190827 (Red Hat 9.2.1-1)
REM options -cpp -mtune=generic -march=x86-64 -g -O0 -fpre-include=/usr/include/finclude/math-vector-fortran.h
REM seed -481483109 1342192014 154385577 -1375907991 712215009 1028098286 -59940595 22321086 1053163732 419092631 -1697243002 1202050412 -2104630742 1373537270 -206279463 1350961273 -1345835027 -2072033095 -324785872 973018015 1819934371 -167848972 1732908183 41412214 1557138663 516766902 1507950260 1589004336 1350896571 881207372 -1001318123 670008549 1041230493
REM
CELL 1.54180   50.00000   50.00000   50.00000   90.00000   90.00000   90.00000
LATT -1
SFAC C  
C      1  0.4328580000000  0.4862450000000  0.5459440000000 1.0
C      1  0.5229470000000  0.4862460000000  0.5780530000000 1.0
C      1  0.5813230000000  0.4862440000000  0.5022960000000 1.0
C      1  0.5273140000000  0.4862430000000  0.4233670000000 1.0
C      1  0.4355570000000  0.4862440000000  0.4503420000000 1.0
C      1  0.5442440000000  0.4555400000000  0.5590410000000 1.0
C      1  0.5698220000000  0.4555390000000  0.4761660000000 1.0
C      1  0.4989080000000  0.4555380000000  0.4262300000000 1.0
C      1  0.4295020000000  0.4555390000000  0.4782430000000 1.0
C      1  0.4575220000000  0.4555410000000  0.5603240000000 1.0
C      1  0.4934210000000  0.4546640000000  0.5907370000000 1.0
C      1  0.5842620000000  0.4546630000000  0.5342970000000 1.0
C      1  0.5586560000000  0.4546610000000  0.4304610000000 1.0
C      1  0.4519890000000  0.4546610000000  0.4227270000000 1.0
C      1  0.4116720000000  0.4546630000000  0.5217830000000 1.0
C      1  0.5532910000000  0.4219130000000  0.5189600000000 1.0
C      1  0.5344980000000  0.4219120000000  0.4551770000000 1.0
C      1  0.4680300000000  0.4219120000000  0.4533400000000 1.0
C      1  0.4457420000000  0.4219130000000  0.5159880000000 1.0
C      1  0.4984370000000  0.4219140000000  0.5565430000000 1.0
C      1  0.4472380000000  0.5638330000000  0.5329450000000 1.0
C      1  0.5150290000000  0.5638340000000  0.5603600000000 1.0
C      1  0.5620510000000  0.5638320000000  0.5043580000000 1.0
C      1  0.5233210000000  0.5638310000000  0.4423320000000 1.0
C      1  0.4523620000000  0.5638320000000  0.4600000000000 1.0
C      1  0.3955050000000  0.5059670000000  0.5324840000000 1.0
C      1  0.4986040000000  0.5059680000000  0.6094190000000 1.0
C      1  0.6036320000000  0.5059660000000  0.5351400000000 1.0
C      1  0.5654450000000  0.5059640000000  0.4122990000000 1.0
C      1  0.4368150000000  0.5059640000000  0.4106570000000 1.0
C      1  0.4233690000000  0.4346750000000  0.4984810000000 1.0
C      1  0.4748740000000  0.4346760000000  0.5724110000000 1.0
C      1  0.5611010000000  0.4346750000000  0.5462740000000 1.0
C      1  0.5628890000000  0.4346740000000  0.4561890000000 1.0
C      1  0.4777660000000  0.4346730000000  0.4266510000000 1.0
C      1  0.4976560000000  0.5119850000000  0.3702410000000 1.0
C      1  0.3758670000000  0.5119870000000  0.4621320000000 1.0
C      1  0.4256260000000  0.5119900000000  0.6063550000000 1.0
C      1  0.5781670000000  0.5119890000000  0.6035990000000 1.0
C      1  0.6226840000000  0.5119860000000  0.4576720000000 1.0
C      1  0.4628230000000  0.5054100000000  0.4565740000000 1.0
C      1  0.4472110000000  0.5054110000000  0.5219380000000 1.0
C      1  0.5045520000000  0.5054120000000  0.5569840000000 1.0
C      1  0.5556020000000  0.5054110000000  0.5132800000000 1.0
C      1  0.5298120000000  0.5054100000000  0.4512230000000 1.0
C      1  0.4746270000000  0.5174710000000  0.5101790000000 1.0
C      1  0.5018400000000  0.5174710000000  0.5272760000000 1.0
C      1  0.5265100000000  0.5174710000000  0.5066780000000 1.0
C      1  0.5145440000000  0.5174700000000  0.4768510000000 1.0
C      1  0.4824780000000  0.5174710000000  0.4790140000000 1.0
C      1  0.4742880000000  0.3883040000000  0.5496080000000 1.0
C      1  0.5392330000000  0.3883030000000  0.5397840000000 1.0
C      1  0.5499580000000  0.3883020000000  0.4749830000000 1.0
C      1  0.4916430000000  0.3883020000000  0.4447570000000 1.0
C      1  0.4448760000000  0.3883030000000  0.4908780000000 1.0
C      1  0.5740210000000  0.5333050000000  0.4585550000000 1.0
C      1  0.4834580000000  0.5333040000000  0.4167940000000 1.0
C      1  0.4157550000000  0.5333060000000  0.4900200000000 1.0
C      1  0.4644760000000  0.5333070000000  0.5770370000000 1.0
C      1  0.5622900000000  0.5333070000000  0.5575910000000 1.0
C      1  0.5139480000000  0.5490240000000  0.5879030000000 1.0
C      1  0.5879120000000  0.5490220000000  0.5138980000000 1.0
C      1  0.5403850000000  0.5490210000000  0.4206840000000 1.0
C      1  0.4370470000000  0.5490210000000  0.4370810000000 1.0
C      1  0.4207080000000  0.5490230000000  0.5404290000000 1.0
C      1  0.4779300000000  0.5004110000000  0.5709200000000 1.0
C      1  0.5606290000000  0.5004100000000  0.5429050000000 1.0
C      1  0.5595400000000  0.5004090000000  0.4555970000000 1.0
C      1  0.4761690000000  0.5004090000000  0.4296530000000 1.0
C      1  0.4257320000000  0.5004100000000  0.5009260000000 1.0
C      1  0.4419690000000  0.5249510000000  0.4710940000000 1.0
C      1  0.4545760000000  0.5249530000000  0.5462580000000 1.0
C      1  0.5299580000000  0.5249530000000  0.5574950000000 1.0
C      1  0.5639390000000  0.5249510000000  0.4892750000000 1.0
C      1  0.5095590000000  0.5249510000000  0.4358760000000 1.0
C      1  0.4124280000000  0.5327550000000  0.4423180000000 1.0
C      1  0.4180800000000  0.5327570000000  0.5654610000000 1.0
C      1  0.5369430000000  0.5327570000000  0.5981380000000 1.0
C      1  0.6047520000000  0.5327550000000  0.4951910000000 1.0
C      1  0.5277970000000  0.5327540000000  0.3988890000000 1.0
C      1  0.3953980000000  0.5344110000000  0.4671370000000 1.0
C      1  0.4364220000000  0.5344130000000  0.5893270000000 1.0
C      1  0.5653090000000  0.5344120000000  0.5880700000000 1.0
C      1  0.6039420000000  0.5344100000000  0.4651020000000 1.0
C      1  0.4989310000000  0.5344090000000  0.3903610000000 1.0
C      1  0.4899150000000  0.5331470000000  0.5962730000000 1.0
C      1  0.5884450000000  0.5331460000000  0.5393410000000 1.0
C      1  0.5647470000000  0.5331440000000  0.4280410000000 1.0
C      1  0.4515720000000  0.5331440000000  0.4161850000000 1.0
C      1  0.4053220000000  0.5331460000000  0.5201570000000 1.0
C      1  0.5433870000000  0.5800120000000  0.4582350000000 1.0
C      1  0.4736880000000  0.5800120000000  0.4458290000000 1.0
C      1  0.4403510000000  0.5800130000000  0.5082840000000 1.0
C      1  0.4894480000000  0.5800140000000  0.5592880000000 1.0
C      1  0.5531270000000  0.5800130000000  0.5283560000000 1.0
C      1  0.5297780000000  0.4507490000000  0.4161250000000 1.0
C      1  0.4294310000000  0.4507500000000  0.4457610000000 1.0
C      1  0.4266080000000  0.4507520000000  0.5503540000000 1.0
C      1  0.5252090000000  0.4507520000000  0.5853610000000 1.0
C      1  0.5889720000000  0.4507510000000  0.5024030000000 1.0
C      1  0.5216090000000  0.4946770000000  0.3732000000000 1.0
C      1  0.3860840000000  0.4946780000000  0.4402650000000 1.0
C      1  0.4079860000000  0.4946810000000  0.5898820000000 1.0
C      1  0.5570490000000  0.4946810000000  0.6152850000000 1.0
C      1  0.6272720000000  0.4946780000000  0.4813680000000 1.0
C      1  0.4737830000000  0.5506560000000  0.5155390000000 1.0
C      1  0.5066780000000  0.5506560000000  0.5297360000000 1.0
C      1  0.5303450000000  0.5506560000000  0.5028370000000 1.0
C      1  0.5120760000000  0.5506550000000  0.4720160000000 1.0
C      1  0.4771190000000  0.5506550000000  0.4798670000000 1.0
C      1  0.4385950000000  0.4216680000000  0.5443000000000 1.0
C      1  0.5231540000000  0.4216680000000  0.5720900000000 1.0
C      1  0.5757150000000  0.4216670000000  0.5002570000000 1.0
C      1  0.5236400000000  0.4216660000000  0.4280700000000 1.0
C      1  0.4388940000000  0.4216660000000  0.4552910000000 1.0
C      1  0.4832700000000  0.4832400000000  0.5958320000000 1.0
C      1  0.5859720000000  0.4832380000000  0.5455250000000 1.0
C      1  0.5698630000000  0.4832360000000  0.4323040000000 1.0
C      1  0.4572060000000  0.4832360000000  0.4126370000000 1.0
C      1  0.4036880000000  0.4832380000000  0.5137030000000 1.0
C      1  0.4651950000000  0.5635760000000  0.5588300000000 1.0
C      1  0.5451970000000  0.5635750000000  0.5512810000000 1.0
C      1  0.5627390000000  0.5635740000000  0.4728610000000 1.0
C      1  0.4935780000000  0.5635730000000  0.4319450000000 1.0
C      1  0.4332930000000  0.5635750000000  0.4850770000000 1.0
C      1  0.6082820000000  0.5032260000000  0.5041320000000 1.0
C      1  0.5373910000000  0.5032240000000  0.3982950000000 1.0
C      1  0.4148270000000  0.5032250000000  0.4330110000000 1.0
C      1  0.4099690000000  0.5032280000000  0.5603030000000 1.0
C      1  0.5295310000000  0.5032280000000  0.6042590000000 1.0
C      1  0.4985560000000  0.4788960000000  0.4725590000000 1.0
C      1  0.4734550000000  0.4788970000000  0.4928940000000 1.0
C      1  0.4850380000000  0.4788970000000  0.5230500000000 1.0
C      1  0.5172980000000  0.4788970000000  0.5213530000000 1.0
C      1  0.5256520000000  0.4788960000000  0.4901470000000 1.0
C      1  0.4676770000000  0.4817200000000  0.5496350000000 1.0
C      1  0.5372170000000  0.4817200000000  0.5460800000000 1.0
C      1  0.5553250000000  0.4817190000000  0.4788440000000 1.0
C      1  0.4969750000000  0.4817180000000  0.4408460000000 1.0
C      1  0.4428060000000  0.4817190000000  0.4845970000000 1.0
C      1  0.4894950000000  0.6178730000000  0.4767330000000 1.0
C      1  0.4746280000000  0.6178740000000  0.5028000000000 1.0
C      1  0.4948250000000  0.6178740000000  0.5249940000000 1.0
C      1  0.5221740000000  0.6178740000000  0.5126450000000 1.0
C      1  0.5188800000000  0.6178730000000  0.4828170000000 1.0
C      1  0.4893060000000  0.6080020000000  0.5516720000000 1.0
C      1  0.5458410000000  0.6080010000000  0.5261370000000 1.0
C      1  0.5390250000000  0.6080000000000  0.4644790000000 1.0
C      1  0.4782790000000  0.6080000000000  0.4519070000000 1.0
C      1  0.4475510000000  0.6080010000000  0.5057950000000 1.0
C      1  0.4941120000000  0.4025070000000  0.5282460000000 1.0
C      1  0.5250420000000  0.4025060000000  0.5143300000000 1.0
C      1  0.5213650000000  0.4025060000000  0.4806130000000 1.0
C      1  0.4881620000000  0.4025060000000  0.4736910000000 1.0
C      1  0.4713180000000  0.4025060000000  0.5031300000000 1.0
C      1  0.4577140000000  0.4091970000000  0.5632270000000 1.0
C      1  0.5470630000000  0.4091970000000  0.5597550000000 1.0
C      1  0.5713720000000  0.4091950000000  0.4737060000000 1.0
C      1  0.4970470000000  0.4091940000000  0.4239970000000 1.0
C      1  0.4268020000000  0.4091960000000  0.4793230000000 1.0
END
