TITL C-862500-986-838 1.53966211820406 125000 -184.545667391137 0 0 37 (C1) n - 1
REM
REM in /home/nfs/bkarasulu/CARBON/AIRSS/Generating-Clusters/TERSOFF/Higher-Symm/FIRE-HFTN
REM
REM
REM
REM
REM
REM ./C.cell (b20cbc046b6831c77cfcea5457e17084)
REM AIRSS Version 0.9.1 bugfix July 2018 build 013d7b7c2542+ Fri, 06 Jul 2018 19:26:36 +0100
REM compiler GCC version 9.2.1 20190827 (Red Hat 9.2.1-1)
REM options -cpp -mtune=generic -march=x86-64 -g -O0 -fpre-include=/usr/include/finclude/math-vector-fortran.h
REM seed 883602516 1116683749 1451888149 -1747142657 551933505 586440849 1994582261 1926084249 -763163596 51166393 114834312 -1901329536 626429107 342147025 1835663288 2094820 -1308599342 -435245131 1791029789 1402306975 -1957920150 -921815031 968909069 1242521498 1348998374 377077791 -200728990 1660679757 1878175402 1523676871 -455540142 -1365392091 511688077
REM
CELL 1.54180   50.00000   50.00000   50.00000   90.00000   90.00000   90.00000
LATT -1
SFAC C  
C      1  0.5210720000000  0.4547450000000  0.5407680000000 1.0
C      1  0.5447250000000  0.4735600000000  0.5424640000000 1.0
C      1  0.5444920000000  0.5035580000000  0.5377260000000 1.0
C      1  0.5229380000000  0.5242560000000  0.5480500000000 1.0
C      1  0.4959330000000  0.5367070000000  0.5372020000000 1.0
C      1  0.4671450000000  0.5281040000000  0.5441120000000 1.0
C      1  0.4490370000000  0.5036860000000  0.5397590000000 1.0
C      1  0.4578750000000  0.4745810000000  0.5404950000000 1.0
C      1  0.4896140000000  0.4651690000000  0.5458160000000 1.0
C      1  0.5503970000000  0.4796150000000  0.4893010000000 1.0
C      1  0.5492070000000  0.5153940000000  0.4854470000000 1.0
C      1  0.5321750000000  0.5384720000000  0.4975870000000 1.0
C      1  0.5040540000000  0.5466070000000  0.4855130000000 1.0
C      1  0.4687790000000  0.5386960000000  0.4894920000000 1.0
C      1  0.4489980000000  0.5109660000000  0.4884110000000 1.0
C      1  0.4609340000000  0.4807070000000  0.4894340000000 1.0
C      1  0.4952190000000  0.4822920000000  0.4944370000000 1.0
C      1  0.5228440000000  0.4613780000000  0.4900700000000 1.0
C      1  0.5439530000000  0.4733240000000  0.4558170000000 1.0
C      1  0.5394990000000  0.5042480000000  0.4570860000000 1.0
C      1  0.5166400000000  0.5168190000000  0.4440970000000 1.0
C      1  0.4970550000000  0.5331930000000  0.4579790000000 1.0
C      1  0.4663460000000  0.5295760000000  0.4550300000000 1.0
C      1  0.4492290000000  0.5028510000000  0.4557320000000 1.0
C      1  0.4623380000000  0.4734810000000  0.4560520000000 1.0
C      1  0.4930850000000  0.4740200000000  0.4632870000000 1.0
C      1  0.5176700000000  0.4552500000000  0.4569050000000 1.0
C      1  0.4469120000000  0.4664620000000  0.5126610000000 1.0
C      1  0.4884170000000  0.4609410000000  0.5151080000000 1.0
C      1  0.5257420000000  0.4418900000000  0.5133410000000 1.0
C      1  0.5611570000000  0.4695360000000  0.5166090000000 1.0
C      1  0.5609270000000  0.5114820000000  0.5145490000000 1.0
C      1  0.5360970000000  0.5431570000000  0.5265360000000 1.0
C      1  0.4977430000000  0.5555690000000  0.5147940000000 1.0
C      1  0.4575500000000  0.5440930000000  0.5187810000000 1.0
C      1  0.4337810000000  0.5088580000000  0.5147070000000 1.0
C      1  0.5030060000000  0.5089290000000  0.5038140000000 1.0
END
