TITL C-862131-2149-19 0.000105317999361478 125000 -110.395697295443 0 0 23 (C3v) n - 1
REM
REM in /home/nfs/bkarasulu/CARBON/AIRSS/Generating-Clusters/TERSOFF/Higher-Symm/FIRE-HFTN
REM
REM
REM
REM
REM
REM ./C.cell (b20cbc046b6831c77cfcea5457e17084)
REM AIRSS Version 0.9.1 bugfix July 2018 build 013d7b7c2542+ Fri, 06 Jul 2018 19:26:36 +0100
REM compiler GCC version 9.2.1 20190827 (Red Hat 9.2.1-1)
REM options -cpp -mtune=generic -march=x86-64 -g -O0 -fpre-include=/usr/include/finclude/math-vector-fortran.h
REM seed -1447483986 -1685559801 148148836 -1528133893 1100235867 -385975369 31132123 875150671 1402016202 -751142146 -1127707314 1640086181 1508658427 100207138 -1964681673 -1674188658 1389291676 -2144619493 156071357 2091586769 -791530373 1529968197 2095598923 -934427638 -918499188 -2005602190 -1171959623 516210765 994754328 795725409 968192145 -484570765 -2135765056
REM
CELL 1.54180   50.00000   50.00000   50.00000   90.00000   90.00000   90.00000
LATT -1
SFAC C  
C      1  0.5097510000000  0.4678580000000  0.5322350000000 1.0
C      1  0.4660300000000  0.5047470000000  0.5322350000000 1.0
C      1  0.5198380000000  0.5241660000000  0.5322350000000 1.0
C      1  0.4710220000000  0.5038520000000  0.4500710000000 1.0
C      1  0.5165670000000  0.5202900000000  0.4500710000000 1.0
C      1  0.5080300000000  0.4726280000000  0.4500710000000 1.0
C      1  0.4661960000000  0.4834170000000  0.5055040000000 1.0
C      1  0.5012820000000  0.5346870000000  0.5055040000000 1.0
C      1  0.5281410000000  0.4786660000000  0.5055040000000 1.0
C      1  0.4821810000000  0.4795340000000  0.5441490000000 1.0
C      1  0.4899280000000  0.5227850000000  0.5441490000000 1.0
C      1  0.5235110000000  0.4944500000000  0.5441480000000 1.0
C      1  0.5188760000000  0.4425740000000  0.5444890000000 1.0
C      1  0.4395720000000  0.5094860000000  0.5444890000000 1.0
C      1  0.5371720000000  0.5447100000000  0.5444890000000 1.0
C      1  0.4735900000000  0.5246920000000  0.5055040000000 1.0
C      1  0.5333320000000  0.5076460000000  0.5055040000000 1.0
C      1  0.4886980000000  0.4644310000000  0.5055040000000 1.0
C      1  0.4666550000000  0.5046350000000  0.4807350000000 1.0
C      1  0.5194280000000  0.5236800000000  0.4807350000000 1.0
C      1  0.5095360000000  0.4684550000000  0.4807350000000 1.0
C      1  0.4985400000000  0.4989230000000  0.4401570000000 1.0
C      1  0.4985400000000  0.4989230000000  0.4821450000000 1.0
END
