TITL C-862133-5440-389 4.99574601214203 125000 -1026.43237401305 0 0 182 (Ci) n - 1
REM
REM in /home/nfs/bkarasulu/CARBON/AIRSS/Generating-Clusters/TERSOFF/Higher-Symm/FIRE-HFTN
REM
REM
REM
REM
REM
REM ./C.cell (b20cbc046b6831c77cfcea5457e17084)
REM AIRSS Version 0.9.1 bugfix July 2018 build 013d7b7c2542+ Fri, 06 Jul 2018 19:26:36 +0100
REM compiler GCC version 9.2.1 20190827 (Red Hat 9.2.1-1)
REM options -cpp -mtune=generic -march=x86-64 -g -O0 -fpre-include=/usr/include/finclude/math-vector-fortran.h
REM seed 1766522991 -311774094 596742436 175091049 -1237603067 171708591 2013888755 629494758 1017123691 -679301079 -105339148 1166166516 -538552654 139642940 -1968816173 44963785 -601025618 653587636 1395856580 721264073 -1155843748 561448317 635775776 1905274130 -2050007530 337303961 -935073122 -43989187 1276574745 -856510657 277870899 1596603419 1975717108
REM
CELL 1.54180   50.00000   50.00000   50.00000   90.00000   90.00000   90.00000
LATT -1
SFAC C  
C      1  0.4428230000000  0.5787080000000  0.5205000000000 1.0
C      1  0.5571770000000  0.4212920000000  0.4795000000000 1.0
C      1  0.5460010000000  0.5285420000000  0.4079910000000 1.0
C      1  0.4539990000000  0.4714580000000  0.5920090000000 1.0
C      1  0.3810580000000  0.5183770000000  0.4664030000000 1.0
C      1  0.6189420000000  0.4816230000000  0.5335970000000 1.0
C      1  0.4492670000000  0.4175010000000  0.4875280000000 1.0
C      1  0.5507330000000  0.5824990000000  0.5124720000000 1.0
C      1  0.4791690000000  0.5637050000000  0.4870080000000 1.0
C      1  0.5208310000000  0.4362950000000  0.5129920000000 1.0
C      1  0.4485050000000  0.4964680000000  0.5789700000000 1.0
C      1  0.5514950000000  0.5035320000000  0.4210300000000 1.0
C      1  0.4723390000000  0.5118920000000  0.4017670000000 1.0
C      1  0.5276610000000  0.4881080000000  0.5982330000000 1.0
C      1  0.5073460000000  0.4759940000000  0.4090840000000 1.0
C      1  0.4926540000000  0.5240060000000  0.5909160000000 1.0
C      1  0.6024990000000  0.4745460000000  0.5098710000000 1.0
C      1  0.3975010000000  0.5254540000000  0.4901290000000 1.0
C      1  0.4632150000000  0.5396730000000  0.4015870000000 1.0
C      1  0.5367850000000  0.4603270000000  0.5984130000000 1.0
C      1  0.4488110000000  0.4043900000000  0.4617880000000 1.0
C      1  0.5511890000000  0.5956100000000  0.5382120000000 1.0
C      1  0.5519160000000  0.4920610000000  0.5263580000000 1.0
C      1  0.4480840000000  0.5079390000000  0.4736420000000 1.0
C      1  0.4324320000000  0.4263930000000  0.3912520000000 1.0
C      1  0.5675680000000  0.5736070000000  0.6087480000000 1.0
C      1  0.5214870000000  0.5390880000000  0.4966630000000 1.0
C      1  0.4785130000000  0.4609120000000  0.5033370000000 1.0
C      1  0.6095870000000  0.4675770000000  0.5575770000000 1.0
C      1  0.3904130000000  0.5324230000000  0.4424230000000 1.0
C      1  0.5734730000000  0.5466370000000  0.4430680000000 1.0
C      1  0.4265270000000  0.4533630000000  0.5569320000000 1.0
C      1  0.4227380000000  0.5085890000000  0.4945630000000 1.0
C      1  0.5772620000000  0.4914110000000  0.5054370000000 1.0
C      1  0.5089900000000  0.5603930000000  0.4152080000000 1.0
C      1  0.4910100000000  0.4396070000000  0.5847920000000 1.0
C      1  0.5865590000000  0.4658860000000  0.4285700000000 1.0
C      1  0.4134410000000  0.5341140000000  0.5714300000000 1.0
C      1  0.4962820000000  0.6030160000000  0.5095160000000 1.0
C      1  0.5037180000000  0.3969840000000  0.4904840000000 1.0
C      1  0.6025970000000  0.5485800000000  0.4497400000000 1.0
C      1  0.3974030000000  0.4514200000000  0.5502600000000 1.0
C      1  0.5997370000000  0.5265940000000  0.5524580000000 1.0
C      1  0.4002630000000  0.4734060000000  0.4475420000000 1.0
C      1  0.5275290000000  0.5941000000000  0.5537420000000 1.0
C      1  0.4724710000000  0.4059000000000  0.4462580000000 1.0
C      1  0.4321330000000  0.5536340000000  0.4792440000000 1.0
C      1  0.5678670000000  0.4463660000000  0.5207560000000 1.0
C      1  0.4698390000000  0.4201050000000  0.5629200000000 1.0
C      1  0.5301610000000  0.5798950000000  0.4370800000000 1.0
C      1  0.5389110000000  0.4631220000000  0.4449280000000 1.0
C      1  0.4610890000000  0.5368780000000  0.5550720000000 1.0
C      1  0.4969680000000  0.3950900000000  0.4598660000000 1.0
C      1  0.5030320000000  0.6049100000000  0.5401340000000 1.0
C      1  0.4482220000000  0.4961800000000  0.4457490000000 1.0
C      1  0.5517780000000  0.5038200000000  0.5542510000000 1.0
C      1  0.5825640000000  0.4019150000000  0.5187710000000 1.0
C      1  0.4174360000000  0.5980850000000  0.4812290000000 1.0
C      1  0.5073820000000  0.4664600000000  0.5098030000000 1.0
C      1  0.4926180000000  0.5335400000000  0.4901970000000 1.0
C      1  0.3895600000000  0.5682090000000  0.5030920000000 1.0
C      1  0.6104400000000  0.4317910000000  0.4969080000000 1.0
C      1  0.5427170000000  0.6030930000000  0.4941020000000 1.0
C      1  0.4572830000000  0.3969070000000  0.5058980000000 1.0
C      1  0.4256910000000  0.4297110000000  0.4966690000000 1.0
C      1  0.5743090000000  0.5702890000000  0.5033310000000 1.0
C      1  0.6047630000000  0.4388660000000  0.5512440000000 1.0
C      1  0.3952370000000  0.5611340000000  0.4487560000000 1.0
C      1  0.6237410000000  0.5000280000000  0.4465730000000 1.0
C      1  0.3762590000000  0.4999720000000  0.5534270000000 1.0
C      1  0.4077640000000  0.4463550000000  0.4588380000000 1.0
C      1  0.5922360000000  0.5536450000000  0.5411620000000 1.0
C      1  0.4419760000000  0.4397950000000  0.4166280000000 1.0
C      1  0.5580240000000  0.5602050000000  0.5833720000000 1.0
C      1  0.5339570000000  0.4936280000000  0.4440540000000 1.0
C      1  0.4660430000000  0.5063720000000  0.5559460000000 1.0
C      1  0.4368370000000  0.4679980000000  0.5098520000000 1.0
C      1  0.5631630000000  0.5320020000000  0.4901480000000 1.0
C      1  0.4053910000000  0.4244280000000  0.5351100000000 1.0
C      1  0.5946090000000  0.5755720000000  0.4648900000000 1.0
C      1  0.4226850000000  0.6006940000000  0.5107230000000 1.0
C      1  0.5773150000000  0.3993060000000  0.4892770000000 1.0
C      1  0.4702850000000  0.5332830000000  0.5142630000000 1.0
C      1  0.5297150000000  0.4667170000000  0.4857370000000 1.0
C      1  0.4425390000000  0.5499630000000  0.5747160000000 1.0
C      1  0.5574610000000  0.4500370000000  0.4252840000000 1.0
C      1  0.4070130000000  0.5698930000000  0.4750860000000 1.0
C      1  0.5929870000000  0.4301070000000  0.5249140000000 1.0
C      1  0.5630320000000  0.5865130000000  0.4510350000000 1.0
C      1  0.4369680000000  0.4134870000000  0.5489650000000 1.0
C      1  0.4915890000000  0.4200330000000  0.3992250000000 1.0
C      1  0.5084110000000  0.5799670000000  0.6007750000000 1.0
C      1  0.5828940000000  0.5430180000000  0.5106930000000 1.0
C      1  0.4171060000000  0.4569820000000  0.4893070000000 1.0
C      1  0.6105220000000  0.4598770000000  0.4838390000000 1.0
C      1  0.3894780000000  0.5401230000000  0.5161610000000 1.0
C      1  0.5220310000000  0.4415390000000  0.5818040000000 1.0
C      1  0.4779690000000  0.5584610000000  0.4181960000000 1.0
C      1  0.5609400000000  0.5288580000000  0.5884380000000 1.0
C      1  0.4390600000000  0.4711420000000  0.4115620000000 1.0
C      1  0.4678540000000  0.5824060000000  0.5359530000000 1.0
C      1  0.5321460000000  0.4175940000000  0.4640470000000 1.0
C      1  0.4997320000000  0.5109420000000  0.5592100000000 1.0
C      1  0.5002680000000  0.4890580000000  0.4407900000000 1.0
C      1  0.5173220000000  0.4228950000000  0.5372080000000 1.0
C      1  0.4826780000000  0.5771050000000  0.4627920000000 1.0
C      1  0.5350930000000  0.4038720000000  0.4390690000000 1.0
C      1  0.4649070000000  0.5961280000000  0.5609310000000 1.0
C      1  0.4963710000000  0.4599490000000  0.4519850000000 1.0
C      1  0.5036290000000  0.5400510000000  0.5480150000000 1.0
C      1  0.4993720000000  0.4846840000000  0.6079940000000 1.0
C      1  0.5006280000000  0.5153160000000  0.3920060000000 1.0
C      1  0.6137520000000  0.5706100000000  0.5177490000000 1.0
C      1  0.3862480000000  0.4293900000000  0.4822510000000 1.0
C      1  0.4878900000000  0.4182570000000  0.5367910000000 1.0
C      1  0.5121100000000  0.5817430000000  0.4632090000000 1.0
C      1  0.4699730000000  0.5426820000000  0.5957030000000 1.0
C      1  0.5300270000000  0.4573180000000  0.4042970000000 1.0
C      1  0.4212350000000  0.4890440000000  0.4313880000000 1.0
C      1  0.5787650000000  0.5109560000000  0.5686120000000 1.0
C      1  0.4230150000000  0.5093500000000  0.5846590000000 1.0
C      1  0.5769850000000  0.4906500000000  0.4153410000000 1.0
C      1  0.6176500000000  0.5254780000000  0.4611280000000 1.0
C      1  0.3823500000000  0.4745220000000  0.5388720000000 1.0
C      1  0.4722600000000  0.4247340000000  0.4221440000000 1.0
C      1  0.5277400000000  0.5752660000000  0.5778560000000 1.0
C      1  0.4511730000000  0.5594570000000  0.5000720000000 1.0
C      1  0.5488270000000  0.4405430000000  0.4999280000000 1.0
C      1  0.4797340000000  0.5711980000000  0.6025710000000 1.0
C      1  0.5202660000000  0.4288020000000  0.3974290000000 1.0
C      1  0.5731870000000  0.4414920000000  0.4632260000000 1.0
C      1  0.4268130000000  0.5585080000000  0.5367740000000 1.0
C      1  0.5415990000000  0.5151500000000  0.6066900000000 1.0
C      1  0.4584010000000  0.4848500000000  0.3933100000000 1.0
C      1  0.5417160000000  0.5126230000000  0.4984390000000 1.0
C      1  0.4582840000000  0.4873770000000  0.5015610000000 1.0
C      1  0.4806450000000  0.4641650000000  0.5979500000000 1.0
C      1  0.5193550000000  0.5358350000000  0.4020500000000 1.0
C      1  0.4729080000000  0.4998460000000  0.4298060000000 1.0
C      1  0.5270920000000  0.5001540000000  0.5701940000000 1.0
C      1  0.4030740000000  0.5732590000000  0.5472670000000 1.0
C      1  0.5969260000000  0.4267410000000  0.4527330000000 1.0
C      1  0.4838920000000  0.3982100000000  0.5139980000000 1.0
C      1  0.5161080000000  0.6017900000000  0.4860020000000 1.0
C      1  0.4715410000000  0.4391120000000  0.4833750000000 1.0
C      1  0.5284590000000  0.5608880000000  0.5166250000000 1.0
C      1  0.5534800000000  0.4599100000000  0.5425810000000 1.0
C      1  0.4465200000000  0.5400900000000  0.4574190000000 1.0
C      1  0.4566890000000  0.5806520000000  0.5836930000000 1.0
C      1  0.5433110000000  0.4193480000000  0.4163070000000 1.0
C      1  0.6096200000000  0.4736470000000  0.4506920000000 1.0
C      1  0.3903800000000  0.5263530000000  0.5493080000000 1.0
C      1  0.4613210000000  0.5078690000000  0.5237970000000 1.0
C      1  0.5386790000000  0.4921310000000  0.4762030000000 1.0
C      1  0.5918440000000  0.4836650000000  0.5761450000000 1.0
C      1  0.4081560000000  0.5163350000000  0.4238550000000 1.0
C      1  0.5148710000000  0.5274510000000  0.6100240000000 1.0
C      1  0.4851290000000  0.4725490000000  0.3899760000000 1.0
C      1  0.5273460000000  0.5542860000000  0.4702320000000 1.0
C      1  0.4726540000000  0.4457140000000  0.5297680000000 1.0
C      1  0.6159940000000  0.5111930000000  0.5324440000000 1.0
C      1  0.3840060000000  0.4888070000000  0.4675560000000 1.0
C      1  0.5210230000000  0.4464820000000  0.4628100000000 1.0
C      1  0.4789770000000  0.5535180000000  0.5371900000000 1.0
C      1  0.5761410000000  0.5701890000000  0.5600290000000 1.0
C      1  0.4238590000000  0.4298110000000  0.4399710000000 1.0
C      1  0.6107860000000  0.5857330000000  0.4894750000000 1.0
C      1  0.3892140000000  0.4142670000000  0.5105250000000 1.0
C      1  0.5967920000000  0.5161380000000  0.5096630000000 1.0
C      1  0.4032080000000  0.4838620000000  0.4903370000000 1.0
C      1  0.4229510000000  0.5300490000000  0.5231880000000 1.0
C      1  0.5770490000000  0.4699510000000  0.4768120000000 1.0
C      1  0.6042430000000  0.4095320000000  0.4765850000000 1.0
C      1  0.3957570000000  0.5904680000000  0.5234150000000 1.0
C      1  0.4679670000000  0.5604290000000  0.4446540000000 1.0
C      1  0.5320330000000  0.4395710000000  0.5553460000000 1.0
C      1  0.5636290000000  0.5485660000000  0.4167060000000 1.0
C      1  0.4363710000000  0.4514340000000  0.5832940000000 1.0
C      1  0.5563050000000  0.5477590000000  0.4667360000000 1.0
C      1  0.4436950000000  0.4522410000000  0.5332640000000 1.0
C      1  0.5108500000000  0.4881830000000  0.5333720000000 1.0
C      1  0.4891500000000  0.5118170000000  0.4666280000000 1.0
END
