TITL C-862504-1170-302 772459.215556599 125000 -1142.30210171878 0 0 195 (C2) n - 1
REM
REM in /home/nfs/bkarasulu/CARBON/AIRSS/Generating-Clusters/TERSOFF/Higher-Symm/FIRE-HFTN
REM
REM
REM
REM
REM
REM ./C.cell (b20cbc046b6831c77cfcea5457e17084)
REM AIRSS Version 0.9.1 bugfix July 2018 build 013d7b7c2542+ Fri, 06 Jul 2018 19:26:36 +0100
REM compiler GCC version 9.2.1 20190827 (Red Hat 9.2.1-1)
REM options -cpp -mtune=generic -march=x86-64 -g -O0 -fpre-include=/usr/include/finclude/math-vector-fortran.h
REM seed -592118815 -327537911 -1603502469 -871238117 1771550912 -1417523353 146164680 -382692216 873964993 803581544 404037227 -1752094053 226672614 -1670534619 -820724966 1556546527 -2127045751 -913566907 -1350384500 -62595047 900663468 144264349 -631111818 -1712013802 1920717373 -176661560 -658140352 -274646873 850636418 -1373546759 -580779400 -1828364892 -1324993419
REM
CELL 1.54180   50.00000   50.00000   50.00000   90.00000   90.00000   90.00000
LATT -1
SFAC C  
C      1  0.4466700000000  0.4754360000000  0.4424760000000 1.0
C      1  0.4466700000000  0.5248070000000  0.5574810000000 1.0
C      1  0.4137310000000  0.4534150000000  0.4753080000000 1.0
C      1  0.4137330000000  0.5468310000000  0.5246490000000 1.0
C      1  0.4115370000000  0.5116570000000  0.4070840000000 1.0
C      1  0.4115470000000  0.4885630000000  0.5928790000000 1.0
C      1  0.6169130000000  0.5551490000000  0.4805510000000 1.0
C      1  0.6169130000000  0.4450930000000  0.5194070000000 1.0
C      1  0.5233550000000  0.6113420000000  0.5317940000000 1.0
C      1  0.5233570000000  0.3888990000000  0.4681620000000 1.0
C      1  0.6286580000000  0.5236700000000  0.5194280000000 1.0
C      1  0.6286580000000  0.4765720000000  0.4805300000000 1.0
C      1  0.4452340000000  0.4614440000000  0.5605430000000 1.0
C      1  0.4452420000000  0.5387920000000  0.4394080000000 1.0
C      1  0.4249630000000  0.5303710000000  0.3893450000000 1.0
C      1  0.4249930000000  0.4698460000000  0.6105990000000 1.0
C      1  0.4765030000000  0.5317580000000  0.5191050000000 1.0
C      1  0.4765020000000  0.4684820000000  0.4808520000000 1.0
C      1  0.5346290000000  0.3953670000000  0.5469340000000 1.0
C      1  0.5346300000000  0.6048750000000  0.4530230000000 1.0
C      1  0.4904820000000  0.4576320000000  0.4572210000000 1.0
C      1  0.4904820000000  0.5426090000000  0.5427360000000 1.0
C      1  0.5569570000000  0.4161670000000  0.3806460000000 1.0
C      1  0.5569540000000  0.5840780000000  0.6193110000000 1.0
C      1  0.4927220000000  0.5718040000000  0.5421910000000 1.0
C      1  0.4927230000000  0.4284370000000  0.4577650000000 1.0
C      1  0.5208810000000  0.5237420000000  0.5803650000000 1.0
C      1  0.5208810000000  0.4765000000000  0.4195930000000 1.0
C      1  0.5164210000000  0.4135040000000  0.5624940000000 1.0
C      1  0.5164220000000  0.5867380000000  0.4374630000000 1.0
C      1  0.4046750000000  0.5666340000000  0.5033080000000 1.0
C      1  0.4046720000000  0.4336110000000  0.4966480000000 1.0
C      1  0.6068410000000  0.5367040000000  0.5451290000000 1.0
C      1  0.6068410000000  0.4635380000000  0.4548290000000 1.0
C      1  0.5395490000000  0.4257310000000  0.4351840000000 1.0
C      1  0.5395480000000  0.5745110000000  0.5647720000000 1.0
C      1  0.4554180000000  0.6044000000000  0.5295810000000 1.0
C      1  0.4554160000000  0.3958440000000  0.4703740000000 1.0
C      1  0.5799420000000  0.5416180000000  0.4661130000000 1.0
C      1  0.5799420000000  0.4586230000000  0.5338450000000 1.0
C      1  0.4647720000000  0.5494160000000  0.5979070000000 1.0
C      1  0.4647640000000  0.4508300000000  0.4020440000000 1.0
C      1  0.5744410000000  0.4253690000000  0.5609050000000 1.0
C      1  0.5744420000000  0.5748720000000  0.4390530000000 1.0
C      1  0.4124330000000  0.4874620000000  0.5637840000000 1.0
C      1  0.4124360000000  0.5127790000000  0.4361780000000 1.0
C      1  0.5242690000000  0.5536980000000  0.5203940000000 1.0
C      1  0.5242690000000  0.4465430000000  0.4795640000000 1.0
C      1  0.4232960000000  0.4214050000000  0.5166630000000 1.0
C      1  0.4232970000000  0.5788340000000  0.4832890000000 1.0
C      1  0.6299520000000  0.5066090000000  0.4704800000000 1.0
C      1  0.6299520000000  0.4936330000000  0.5294780000000 1.0
C      1  0.5289270000000  0.4351440000000  0.5776310000000 1.0
C      1  0.5289270000000  0.5650980000000  0.4223260000000 1.0
C      1  0.5226620000000  0.4736390000000  0.4907630000000 1.0
C      1  0.5226600000000  0.5266010000000  0.5091960000000 1.0
C      1  0.4789220000000  0.4861080000000  0.6023110000000 1.0
C      1  0.4789200000000  0.5141370000000  0.3976470000000 1.0
C      1  0.5244420000000  0.3823410000000  0.5229420000000 1.0
C      1  0.5244420000000  0.6179000000000  0.4770160000000 1.0
C      1  0.4603320000000  0.4222550000000  0.4035860000000 1.0
C      1  0.4603420000000  0.5779910000000  0.5963660000000 1.0
C      1  0.4618490000000  0.5499530000000  0.4599900000000 1.0
C      1  0.4618460000000  0.4502850000000  0.5399640000000 1.0
C      1  0.5532330000000  0.5547960000000  0.4326100000000 1.0
C      1  0.5532330000000  0.4454450000000  0.5673480000000 1.0
C      1  0.5637640000000  0.5975910000000  0.4550900000000 1.0
C      1  0.5637630000000  0.4026510000000  0.5448670000000 1.0
C      1  0.4615410000000  0.5516490000000  0.5019500000000 1.0
C      1  0.4615400000000  0.4485900000000  0.4980050000000 1.0
C      1  0.5794210000000  0.4402220000000  0.4870140000000 1.0
C      1  0.5794210000000  0.5600190000000  0.5129440000000 1.0
C      1  0.3789250000000  0.5080760000000  0.5206830000000 1.0
C      1  0.3789240000000  0.4921720000000  0.4792770000000 1.0
C      1  0.6077020000000  0.4948810000000  0.4491030000000 1.0
C      1  0.6077020000000  0.5053610000000  0.5508550000000 1.0
C      1  0.4269670000000  0.5978340000000  0.5329510000000 1.0
C      1  0.4269650000000  0.4024150000000  0.4670050000000 1.0
C      1  0.5237200000000  0.4325050000000  0.4111050000000 1.0
C      1  0.5237180000000  0.5677370000000  0.5888520000000 1.0
C      1  0.4627950000000  0.6209540000000  0.4693790000000 1.0
C      1  0.4627950000000  0.3792860000000  0.5305790000000 1.0
C      1  0.5633710000000  0.4189630000000  0.4964780000000 1.0
C      1  0.5633710000000  0.5812780000000  0.5034790000000 1.0
C      1  0.4868400000000  0.5839350000000  0.4425620000000 1.0
C      1  0.4868400000000  0.4163080000000  0.5573940000000 1.0
C      1  0.4950430000000  0.5268810000000  0.5670300000000 1.0
C      1  0.4950430000000  0.4733600000000  0.4329280000000 1.0
C      1  0.4726140000000  0.5657980000000  0.4225490000000 1.0
C      1  0.4726140000000  0.4344480000000  0.5774050000000 1.0
C      1  0.5999600000000  0.4398550000000  0.5495470000000 1.0
C      1  0.5999600000000  0.5603860000000  0.4504110000000 1.0
C      1  0.3762020000000  0.4358090000000  0.5034030000000 1.0
C      1  0.3762040000000  0.5644380000000  0.4965560000000 1.0
C      1  0.4910040000000  0.4137860000000  0.5049150000000 1.0
C      1  0.4910040000000  0.5864530000000  0.4950410000000 1.0
C      1  0.4174470000000  0.5581470000000  0.3858370000000 1.0
C      1  0.4174820000000  0.4420690000000  0.6141120000000 1.0
C      1  0.4516120000000  0.5709290000000  0.4792500000000 1.0
C      1  0.4516110000000  0.4293090000000  0.5207040000000 1.0
C      1  0.4722330000000  0.4977830000000  0.4847970000000 1.0
C      1  0.4722320000000  0.5024560000000  0.5151620000000 1.0
C      1  0.4068190000000  0.5566190000000  0.5583770000000 1.0
C      1  0.4068150000000  0.4436300000000  0.4415800000000 1.0
C      1  0.5467970000000  0.5250170000000  0.5659290000000 1.0
C      1  0.5467970000000  0.4752250000000  0.4340290000000 1.0
C      1  0.4422380000000  0.5461970000000  0.5385450000000 1.0
C      1  0.4422370000000  0.4540450000000  0.4614100000000 1.0
C      1  0.3927600000000  0.4711690000000  0.5502220000000 1.0
C      1  0.3927660000000  0.5290760000000  0.4497400000000 1.0
C      1  0.4518880000000  0.4993090000000  0.5974620000000 1.0
C      1  0.4518840000000  0.5009390000000  0.4024960000000 1.0
C      1  0.4765830000000  0.5853120000000  0.5219320000000 1.0
C      1  0.4765840000000  0.4149280000000  0.4780230000000 1.0
C      1  0.6285250000000  0.5291210000000  0.4898950000000 1.0
C      1  0.6285250000000  0.4711210000000  0.5100630000000 1.0
C      1  0.3755660000000  0.5198300000000  0.4708390000000 1.0
C      1  0.3755650000000  0.4804180000000  0.5291190000000 1.0
C      1  0.4989770000000  0.5004180000000  0.3802880000000 1.0
C      1  0.4989800000000  0.4998240000000  0.6196700000000 1.0
C      1  0.4942240000000  0.4880210000000  0.5281820000000 1.0
C      1  0.4942250000000  0.5122180000000  0.4717780000000 1.0
C      1  0.5562220000000  0.5991120000000  0.5695420000000 1.0
C      1  0.5562240000000  0.4011310000000  0.4304140000000 1.0
C      1  0.5332210000000  0.4626570000000  0.3738210000000 1.0
C      1  0.5332200000000  0.5375870000000  0.6261360000000 1.0
C      1  0.4349910000000  0.5003970000000  0.5487790000000 1.0
C      1  0.4349920000000  0.4998440000000  0.4511820000000 1.0
C      1  0.4434530000000  0.5072340000000  0.4778030000000 1.0
C      1  0.4434520000000  0.4930070000000  0.5221570000000 1.0
C      1  0.5697570000000  0.5108930000000  0.5337220000000 1.0
C      1  0.5697570000000  0.4893480000000  0.4662360000000 1.0
C      1  0.5648520000000  0.3972220000000  0.4022130000000 1.0
C      1  0.5648500000000  0.6030220000000  0.5977430000000 1.0
C      1  0.4466110000000  0.5290050000000  0.5870090000000 1.0
C      1  0.4466060000000  0.4712420000000  0.4129470000000 1.0
C      1  0.5237880000000  0.5133590000000  0.6098500000000 1.0
C      1  0.5237860000000  0.4868850000000  0.3901080000000 1.0
C      1  0.5169860000000  0.3977160000000  0.4992760000000 1.0
C      1  0.5169860000000  0.6025240000000  0.5006810000000 1.0
C      1  0.5178670000000  0.5856120000000  0.5469070000000 1.0
C      1  0.5178690000000  0.4146290000000  0.4530490000000 1.0
C      1  0.4050160000000  0.4808260000000  0.4855800000000 1.0
C      1  0.4050170000000  0.5194190000000  0.5143790000000 1.0
C      1  0.5817030000000  0.4472500000000  0.4595440000000 1.0
C      1  0.5817030000000  0.5529920000000  0.5404130000000 1.0
C      1  0.5350580000000  0.5780740000000  0.5066400000000 1.0
C      1  0.5350580000000  0.4221670000000  0.4933170000000 1.0
C      1  0.4151180000000  0.4148910000000  0.4431510000000 1.0
C      1  0.4151200000000  0.5853570000000  0.5568040000000 1.0
C      1  0.5734330000000  0.4014610000000  0.5173970000000 1.0
C      1  0.5734330000000  0.5987800000000  0.4825610000000 1.0
C      1  0.4228640000000  0.4478030000000  0.5728550000000 1.0
C      1  0.4228750000000  0.5524330000000  0.4270900000000 1.0
C      1  0.5141380000000  0.5506220000000  0.4026410000000 1.0
C      1  0.5141370000000  0.4496200000000  0.5973160000000 1.0
C      1  0.5352570000000  0.5644840000000  0.6146810000000 1.0
C      1  0.5352590000000  0.4357600000000  0.3852760000000 1.0
C      1  0.5881570000000  0.5394320000000  0.4950580000000 1.0
C      1  0.5881570000000  0.4608100000000  0.5049000000000 1.0
C      1  0.5638410000000  0.4958990000000  0.4211450000000 1.0
C      1  0.5638410000000  0.5043440000000  0.5788130000000 1.0
C      1  0.5033990000000  0.4402780000000  0.5154650000000 1.0
C      1  0.5034000000000  0.5599620000000  0.4844930000000 1.0
C      1  0.3632180000000  0.4604950000000  0.5118090000000 1.0
C      1  0.3632180000000  0.5397550000000  0.4881470000000 1.0
C      1  0.4160460000000  0.5394370000000  0.5822220000000 1.0
C      1  0.4160410000000  0.4608140000000  0.4177360000000 1.0
C      1  0.4895780000000  0.4594630000000  0.5329490000000 1.0
C      1  0.4895800000000  0.5407750000000  0.4670090000000 1.0
C      1  0.5463850000000  0.5071290000000  0.4612690000000 1.0
C      1  0.5463850000000  0.4931120000000  0.5386890000000 1.0
C      1  0.4730480000000  0.5933280000000  0.4699110000000 1.0
C      1  0.4730470000000  0.4069130000000  0.5300450000000 1.0
C      1  0.5481320000000  0.3805260000000  0.4510990000000 1.0
C      1  0.5481300000000  0.6197160000000  0.5488570000000 1.0
C      1  0.5211770000000  0.4986860000000  0.4745910000000 1.0
C      1  0.5211760000000  0.5015540000000  0.5253680000000 1.0
C      1  0.5535360000000  0.4649690000000  0.5438970000000 1.0
C      1  0.5535360000000  0.5352720000000  0.4560610000000 1.0
C      1  0.5846510000000  0.5122590000000  0.5081750000000 1.0
C      1  0.5846510000000  0.4879820000000  0.4917830000000 1.0
C      1  0.4662080000000  0.4058500000000  0.4267050000000 1.0
C      1  0.4662010000000  0.5943930000000  0.5732400000000 1.0
C      1  0.5566610000000  0.5505880000000  0.5567410000000 1.0
C      1  0.5566620000000  0.4496530000000  0.4432160000000 1.0
C      1  0.4864140000000  0.4566170000000  0.5937870000000 1.0
C      1  0.4864150000000  0.5436280000000  0.4061680000000 1.0
C      1  0.5872590000000  0.5089060000000  0.4334470000000 1.0
C      1  0.5872590000000  0.4913370000000  0.5665110000000 1.0
C      1  0.5494130000000  0.4958960000000  0.6035430000000 1.0
C      1  0.5494110000000  0.5043480000000  0.3964160000000 1.0
C      1  0.4785900000000  0.6443100000000  0.4628160000000 1.0
C      1  0.4785910000000  0.3559310000000  0.5371420000000 1.0
C      1  0.4241280000000  0.5001220000000  0.4999800000000 1.0
END
