TITL C-862505-1648-291 0.000407310291234135 125000 -584.727947212532 0 0 111 (Cs) n - 1
REM
REM in /home/nfs/bkarasulu/CARBON/AIRSS/Generating-Clusters/TERSOFF/Higher-Symm/FIRE-HFTN
REM
REM
REM
REM
REM
REM ./C.cell (b20cbc046b6831c77cfcea5457e17084)
REM AIRSS Version 0.9.1 bugfix July 2018 build 013d7b7c2542+ Fri, 06 Jul 2018 19:26:36 +0100
REM compiler GCC version 9.2.1 20190827 (Red Hat 9.2.1-1)
REM options -cpp -mtune=generic -march=x86-64 -g -O0 -fpre-include=/usr/include/finclude/math-vector-fortran.h
REM seed -1502389722 -1921751851 1222272225 864210350 -74905609 2065251193 -1759009047 2131433807 112364803 27068187 980132024 -489673938 -675439101 -1701746007 2139516129 18027755 473619629 2063700045 -1313499108 -1714305128 607545546 -485728017 -1973488995 1090665496 1768429672 -323675237 -1288876942 -1940205209 -1145222637 -580316419 -1987859392 -1580509317 -1894729139
REM
CELL 1.54180   50.00000   50.00000   50.00000   90.00000   90.00000   90.00000
LATT -1
SFAC C  
C      1  0.4497210000000  0.4599330000000  0.5821180000000 1.0
C      1  0.4497880000000  0.5390820000000  0.4179020000000 1.0
C      1  0.5501830000000  0.4599330000000  0.5821190000000 1.0
C      1  0.5501170000000  0.5390830000000  0.4179030000000 1.0
C      1  0.4235390000000  0.5289340000000  0.4588730000000 1.0
C      1  0.4268800000000  0.4712080000000  0.5394710000000 1.0
C      1  0.5763650000000  0.5289350000000  0.4588740000000 1.0
C      1  0.5730240000000  0.4712090000000  0.5394720000000 1.0
C      1  0.5144070000000  0.5365060000000  0.4683040000000 1.0
C      1  0.5146220000000  0.4627740000000  0.5335250000000 1.0
C      1  0.4854980000000  0.5365060000000  0.4683040000000 1.0
C      1  0.4852820000000  0.4627740000000  0.5335250000000 1.0
C      1  0.5616980000000  0.5147400000000  0.4044640000000 1.0
C      1  0.5624390000000  0.4840080000000  0.5953960000000 1.0
C      1  0.4382070000000  0.5147400000000  0.4044630000000 1.0
C      1  0.4374640000000  0.4840080000000  0.5953950000000 1.0
C      1  0.5181360000000  0.5407790000000  0.5698340000000 1.0
C      1  0.5180520000000  0.4601010000000  0.4309000000000 1.0
C      1  0.4817670000000  0.5407790000000  0.5698340000000 1.0
C      1  0.4818540000000  0.4601010000000  0.4309000000000 1.0
C      1  0.5627150000000  0.4773610000000  0.4619820000000 1.0
C      1  0.5671450000000  0.5235210000000  0.5370230000000 1.0
C      1  0.4371900000000  0.4773610000000  0.4619810000000 1.0
C      1  0.4327590000000  0.5235210000000  0.5370220000000 1.0
C      1  0.5586700000000  0.4783820000000  0.4911230000000 1.0
C      1  0.5657730000000  0.5224450000000  0.5068480000000 1.0
C      1  0.4412350000000  0.4783820000000  0.4911220000000 1.0
C      1  0.4341320000000  0.5224440000000  0.5068470000000 1.0
C      1  0.5148830000000  0.4576980000000  0.4726790000000 1.0
C      1  0.5148180000000  0.5413310000000  0.5280120000000 1.0
C      1  0.4850230000000  0.4576980000000  0.4726790000000 1.0
C      1  0.4850860000000  0.5413310000000  0.5280110000000 1.0
C      1  0.4411180000000  0.5801870000000  0.4816580000000 1.0
C      1  0.4418930000000  0.4185690000000  0.5184250000000 1.0
C      1  0.5587860000000  0.5801870000000  0.4816590000000 1.0
C      1  0.5580120000000  0.4185700000000  0.5184250000000 1.0
C      1  0.5319090000000  0.5118930000000  0.4632350000000 1.0
C      1  0.5285430000000  0.4900020000000  0.5351910000000 1.0
C      1  0.4679960000000  0.5118930000000  0.4632340000000 1.0
C      1  0.4713610000000  0.4900020000000  0.5351910000000 1.0
C      1  0.4244790000000  0.4987250000000  0.5509180000000 1.0
C      1  0.4239500000000  0.5004580000000  0.4483180000000 1.0
C      1  0.5754250000000  0.4987250000000  0.5509190000000 1.0
C      1  0.5759550000000  0.5004580000000  0.4483190000000 1.0
C      1  0.5403780000000  0.5727050000000  0.4575620000000 1.0
C      1  0.5397440000000  0.4264930000000  0.5428160000000 1.0
C      1  0.4595270000000  0.5727050000000  0.4575620000000 1.0
C      1  0.4601600000000  0.4264920000000  0.5428150000000 1.0
C      1  0.4404200000000  0.5491140000000  0.4437740000000 1.0
C      1  0.4418100000000  0.4505710000000  0.5555560000000 1.0
C      1  0.5594850000000  0.5491150000000  0.4437750000000 1.0
C      1  0.5580940000000  0.4505720000000  0.5555570000000 1.0
C      1  0.4579210000000  0.5054990000000  0.5973740000000 1.0
C      1  0.4588310000000  0.4933040000000  0.4035950000000 1.0
C      1  0.5419820000000  0.5054990000000  0.5973740000000 1.0
C      1  0.5410750000000  0.4933050000000  0.4035960000000 1.0
C      1  0.5291070000000  0.4890260000000  0.5041840000000 1.0
C      1  0.5401000000000  0.5158490000000  0.4942070000000 1.0
C      1  0.4707980000000  0.4890260000000  0.5041840000000 1.0
C      1  0.4598040000000  0.5158490000000  0.4942060000000 1.0
C      1  0.5173520000000  0.5745360000000  0.4854220000000 1.0
C      1  0.5166710000000  0.4251770000000  0.5151210000000 1.0
C      1  0.4825520000000  0.5745360000000  0.4854220000000 1.0
C      1  0.4832340000000  0.4251770000000  0.5151210000000 1.0
C      1  0.4838470000000  0.4985320000000  0.5816770000000 1.0
C      1  0.4840230000000  0.5006430000000  0.4201780000000 1.0
C      1  0.5160560000000  0.4985320000000  0.5816770000000 1.0
C      1  0.5158820000000  0.5006430000000  0.4201780000000 1.0
C      1  0.5647150000000  0.4362940000000  0.4705340000000 1.0
C      1  0.5648120000000  0.5648530000000  0.5299900000000 1.0
C      1  0.4351910000000  0.4362930000000  0.4705330000000 1.0
C      1  0.4350920000000  0.5648520000000  0.5299890000000 1.0
C      1  0.5263380000000  0.4540220000000  0.5018320000000 1.0
C      1  0.5270280000000  0.5442930000000  0.4997250000000 1.0
C      1  0.4735670000000  0.4540220000000  0.5018320000000 1.0
C      1  0.4728760000000  0.5442920000000  0.4997250000000 1.0
C      1  0.5176320000000  0.5794890000000  0.4365750000000 1.0
C      1  0.5175440000000  0.4196970000000  0.5642160000000 1.0
C      1  0.4822730000000  0.5794890000000  0.4365750000000 1.0
C      1  0.4823610000000  0.4196970000000  0.5642160000000 1.0
C      1  0.5180660000000  0.4870420000000  0.4520110000000 1.0
C      1  0.5173600000000  0.5131050000000  0.5503630000000 1.0
C      1  0.4818400000000  0.4870420000000  0.4520110000000 1.0
C      1  0.4825440000000  0.5131050000000  0.5503630000000 1.0
C      1  0.4754520000000  0.4307500000000  0.4600830000000 1.0
C      1  0.4757590000000  0.5689280000000  0.5394860000000 1.0
C      1  0.5244540000000  0.4307500000000  0.4600830000000 1.0
C      1  0.5241450000000  0.5689280000000  0.5394860000000 1.0
C      1  0.4474090000000  0.4372340000000  0.4968200000000 1.0
C      1  0.4467630000000  0.5623750000000  0.5037150000000 1.0
C      1  0.5524960000000  0.4372340000000  0.4968210000000 1.0
C      1  0.5531410000000  0.5623750000000  0.5037160000000 1.0
C      1  0.4158450000000  0.5331870000000  0.4871250000000 1.0
C      1  0.4225240000000  0.4680360000000  0.5107820000000 1.0
C      1  0.5840600000000  0.5331880000000  0.4871260000000 1.0
C      1  0.5773800000000  0.4680370000000  0.5107830000000 1.0
C      1  0.4500790000000  0.5498930000000  0.5543620000000 1.0
C      1  0.4500190000000  0.4508650000000  0.4456380000000 1.0
C      1  0.5498240000000  0.5498930000000  0.5543630000000 1.0
C      1  0.5498860000000  0.4508660000000  0.4456380000000 1.0
C      1  0.5158010000000  0.5881420000000  0.5161770000000 1.0
C      1  0.5158930000000  0.4116100000000  0.4838830000000 1.0
C      1  0.4841030000000  0.5881410000000  0.5161770000000 1.0
C      1  0.4840130000000  0.4116100000000  0.4838830000000 1.0
C      1  0.4778700000000  0.4675700000000  0.5824060000000 1.0
C      1  0.4779330000000  0.5315040000000  0.4189970000000 1.0
C      1  0.5220340000000  0.4675710000000  0.5824060000000 1.0
C      1  0.5219730000000  0.5315040000000  0.4189970000000 1.0
C      1  0.4999530000000  0.5522930000000  0.4201440000000 1.0
C      1  0.4999520000000  0.4468280000000  0.5810370000000 1.0
C      1  0.4999520000000  0.4927040000000  0.4904310000000 1.0
END
