TITL C-862130-1496-211 0.000341867613492226 125000 -753.282687823992 0 0 136 (C5) n - 1
REM
REM in /home/nfs/bkarasulu/CARBON/AIRSS/Generating-Clusters/TERSOFF/Higher-Symm/FIRE-HFTN
REM
REM
REM
REM
REM
REM ./C.cell (b20cbc046b6831c77cfcea5457e17084)
REM AIRSS Version 0.9.1 bugfix July 2018 build 013d7b7c2542+ Fri, 06 Jul 2018 19:26:36 +0100
REM compiler GCC version 9.2.1 20190827 (Red Hat 9.2.1-1)
REM options -cpp -mtune=generic -march=x86-64 -g -O0 -fpre-include=/usr/include/finclude/math-vector-fortran.h
REM seed -875577895 -1097299648 -15109854 -2092319606 -941094847 -1941685955 333369106 -1367896668 -840271148 2059818250 -1078966668 -2026876160 -620095796 -856474113 1468719987 573083377 1378373452 -140245920 191253084 -1294919084 256700535 1941653812 127164278 1668050699 -628008682 864373517 1549465152 -580179834 -756042652 1564635639 -1960706532 220478653 -1682837368
REM
CELL 1.54180   50.00000   50.00000   50.00000   90.00000   90.00000   90.00000
LATT -1
SFAC C  
C      1  0.5078650000000  0.5585080000000  0.4963280000000 1.0
C      1  0.4466660000000  0.5257510000000  0.4963290000000 1.0
C      1  0.4589080000000  0.4574260000000  0.4963290000000 1.0
C      1  0.5276720000000  0.4479550000000  0.4963280000000 1.0
C      1  0.5579290000000  0.5104270000000  0.4963280000000 1.0
C      1  0.5912770000000  0.4776320000000  0.4685140000000 1.0
C      1  0.5493590000000  0.5800890000000  0.4685140000000 1.0
C      1  0.4389640000000  0.5718840000000  0.4685150000000 1.0
C      1  0.4126530000000  0.4643560000000  0.4685150000000 1.0
C      1  0.5067870000000  0.4061050000000  0.4685150000000 1.0
C      1  0.4386130000000  0.5129580000000  0.4635290000000 1.0
C      1  0.4685860000000  0.4458140000000  0.4635290000000 1.0
C      1  0.5417060000000  0.4535710000000  0.4635290000000 1.0
C      1  0.5569240000000  0.5255090000000  0.4635290000000 1.0
C      1  0.4932100000000  0.5622130000000  0.4635290000000 1.0
C      1  0.5901480000000  0.4816120000000  0.5231350000000 1.0
C      1  0.5452250000000  0.5802450000000  0.5231350000000 1.0
C      1  0.4375380000000  0.5680000000000  0.5231360000000 1.0
C      1  0.4159060000000  0.4618000000000  0.5231360000000 1.0
C      1  0.5102240000000  0.4084090000000  0.5231360000000 1.0
C      1  0.4049110000000  0.4535600000000  0.4959120000000 1.0
C      1  0.5146630000000  0.3954060000000  0.4959120000000 1.0
C      1  0.6038860000000  0.4818150000000  0.4959110000000 1.0
C      1  0.5492770000000  0.5933740000000  0.4959110000000 1.0
C      1  0.4263040000000  0.5759110000000  0.4959120000000 1.0
C      1  0.5337710000000  0.4427920000000  0.5766770000000 1.0
C      1  0.5647240000000  0.5146310000000  0.5766760000000 1.0
C      1  0.5059670000000  0.5662690000000  0.5766770000000 1.0
C      1  0.4386990000000  0.5263440000000  0.5766770000000 1.0
C      1  0.4558830000000  0.4500310000000  0.5766770000000 1.0
C      1  0.4659300000000  0.4292800000000  0.5097850000000 1.0
C      1  0.5566110000000  0.4459350000000  0.5097840000000 1.0
C      1  0.5687930000000  0.5373250000000  0.5097840000000 1.0
C      1  0.4856400000000  0.5771510000000  0.5097840000000 1.0
C      1  0.4220670000000  0.5103760000000  0.5097850000000 1.0
C      1  0.4515360000000  0.4877860000000  0.4326170000000 1.0
C      1  0.4965200000000  0.4503260000000  0.4326170000000 1.0
C      1  0.5460470000000  0.4815320000000  0.4326160000000 1.0
C      1  0.5316730000000  0.5382780000000  0.4326160000000 1.0
C      1  0.4732620000000  0.5421430000000  0.4326170000000 1.0
C      1  0.5645260000000  0.4679550000000  0.5273830000000 1.0
C      1  0.5502970000000  0.5516570000000  0.5273830000000 1.0
C      1  0.4662940000000  0.5639890000000  0.5273830000000 1.0
C      1  0.4286070000000  0.4879090000000  0.5273840000000 1.0
C      1  0.4893180000000  0.4285570000000  0.5273830000000 1.0
C      1  0.5295060000000  0.4162630000000  0.4486000000000 1.0
C      1  0.5886360000000  0.5023780000000  0.4485990000000 1.0
C      1  0.5250080000000  0.5852250000000  0.4485990000000 1.0
C      1  0.4265540000000  0.5503120000000  0.4486000000000 1.0
C      1  0.4293340000000  0.4458880000000  0.4486000000000 1.0
C      1  0.5127410000000  0.4791890000000  0.5807370000000 1.0
C      1  0.5236100000000  0.5058770000000  0.5807370000000 1.0
C      1  0.5015870000000  0.5244620000000  0.5807370000000 1.0
C      1  0.4771060000000  0.5092600000000  0.5807370000000 1.0
C      1  0.4839990000000  0.4812790000000  0.5807370000000 1.0
C      1  0.5461360000000  0.5247650000000  0.4100770000000 1.0
C      1  0.4905840000000  0.5517220000000  0.4100780000000 1.0
C      1  0.4477790000000  0.5072200000000  0.4100780000000 1.0
C      1  0.4768760000000  0.4527580000000  0.4100780000000 1.0
C      1  0.5376640000000  0.4636010000000  0.4100780000000 1.0
C      1  0.5226540000000  0.4631030000000  0.5573820000000 1.0
C      1  0.5419720000000  0.5103350000000  0.5573820000000 1.0
C      1  0.5030220000000  0.5433020000000  0.5573820000000 1.0
C      1  0.4596310000000  0.5164460000000  0.5573820000000 1.0
C      1  0.4717640000000  0.4668800000000  0.5573820000000 1.0
C      1  0.4796260000000  0.4319930000000  0.5887070000000 1.0
C      1  0.5582630000000  0.4598000000000  0.5887060000000 1.0
C      1  0.5561180000000  0.5431800000000  0.5887060000000 1.0
C      1  0.4761550000000  0.5669060000000  0.5887070000000 1.0
C      1  0.4288810000000  0.4981890000000  0.5887070000000 1.0
C      1  0.4975350000000  0.4731290000000  0.4780520000000 1.0
C      1  0.5246740000000  0.4895440000000  0.4780510000000 1.0
C      1  0.5174490000000  0.5204270000000  0.4780510000000 1.0
C      1  0.4858440000000  0.5230990000000  0.4780510000000 1.0
C      1  0.4735370000000  0.4938670000000  0.4780520000000 1.0
C      1  0.5356030000000  0.5440300000000  0.4849480000000 1.0
C      1  0.4690070000000  0.5476580000000  0.4849490000000 1.0
C      1  0.4449770000000  0.4854430000000  0.4849490000000 1.0
C      1  0.4967220000000  0.4433630000000  0.4849490000000 1.0
C      1  0.5527310000000  0.4795720000000  0.4849480000000 1.0
C      1  0.5592410000000  0.4163790000000  0.4550930000000 1.0
C      1  0.5977140000000  0.5306930000000  0.4550930000000 1.0
C      1  0.5008850000000  0.6026080000000  0.4550930000000 1.0
C      1  0.4025670000000  0.5327410000000  0.4550940000000 1.0
C      1  0.4386330000000  0.4176450000000  0.4550940000000 1.0
C      1  0.5917290000000  0.5152940000000  0.5633400000000 1.0
C      1  0.5136810000000  0.5921570000000  0.5633400000000 1.0
C      1  0.4164610000000  0.5416810000000  0.5633410000000 1.0
C      1  0.4344250000000  0.4336210000000  0.5633410000000 1.0
C      1  0.5427470000000  0.4173130000000  0.5633400000000 1.0
C      1  0.4459640000000  0.5310980000000  0.4329160000000 1.0
C      1  0.4536050000000  0.4584100000000  0.4329160000000 1.0
C      1  0.5250970000000  0.4432160000000  0.4329160000000 1.0
C      1  0.5616400000000  0.5065130000000  0.4329150000000 1.0
C      1  0.5127330000000  0.5608270000000  0.4329160000000 1.0
C      1  0.4629290000000  0.4071110000000  0.4917500000000 1.0
C      1  0.5767670000000  0.4362310000000  0.4917500000000 1.0
C      1  0.5842500000000  0.5534960000000  0.4917490000000 1.0
C      1  0.4750370000000  0.5968490000000  0.4917500000000 1.0
C      1  0.4000570000000  0.5063790000000  0.4917500000000 1.0
C      1  0.4715880000000  0.4112960000000  0.4627790000000 1.0
C      1  0.5754620000000  0.4457600000000  0.4627780000000 1.0
C      1  0.5747840000000  0.5552000000000  0.4627780000000 1.0
C      1  0.4704910000000  0.5883740000000  0.4627780000000 1.0
C      1  0.4067130000000  0.4994360000000  0.4627790000000 1.0
C      1  0.4963720000000  0.4539450000000  0.5416570000000 1.0
C      1  0.5425600000000  0.4825090000000  0.5416560000000 1.0
C      1  0.5296670000000  0.5352640000000  0.5416560000000 1.0
C      1  0.4755100000000  0.5393030000000  0.5416570000000 1.0
C      1  0.4549330000000  0.4890450000000  0.5416570000000 1.0
C      1  0.5233830000000  0.5121810000000  0.3933530000000 1.0
C      1  0.4955200000000  0.5261950000000  0.3933530000000 1.0
C      1  0.4735820000000  0.5040260000000  0.3933530000000 1.0
C      1  0.4878870000000  0.4763110000000  0.3933530000000 1.0
C      1  0.5186660000000  0.4813510000000  0.3933530000000 1.0
C      1  0.5376070000000  0.5965240000000  0.5465560000000 1.0
C      1  0.4197020000000  0.5657860000000  0.5465570000000 1.0
C      1  0.4125010000000  0.4441530000000  0.5465570000000 1.0
C      1  0.5259560000000  0.3997170000000  0.5465570000000 1.0
C      1  0.6032760000000  0.4938880000000  0.5465560000000 1.0
C      1  0.5279520000000  0.5535000000000  0.5960650000000 1.0
C      1  0.4576370000000  0.5433080000000  0.5960650000000 1.0
C      1  0.4456010000000  0.4732840000000  0.5960660000000 1.0
C      1  0.5084790000000  0.4401990000000  0.5960650000000 1.0
C      1  0.5593750000000  0.4897760000000  0.5960650000000 1.0
C      1  0.4709600000000  0.5208540000000  0.5172080000000 1.0
C      1  0.4710730000000  0.4790170000000  0.5172080000000 1.0
C      1  0.5108970000000  0.4661960000000  0.5172070000000 1.0
C      1  0.5353970000000  0.5001100000000  0.5172070000000 1.0
C      1  0.5107140000000  0.5338900000000  0.5172070000000 1.0
C      1  0.4748540000000  0.4944820000000  0.4472120000000 1.0
C      1  0.4973570000000  0.4745720000000  0.4472120000000 1.0
C      1  0.5232470000000  0.4898200000000  0.4472120000000 1.0
C      1  0.5167450000000  0.5191550000000  0.4472120000000 1.0
C      1  0.4868360000000  0.5220360000000  0.4472120000000 1.0
C      1  0.4998080000000  0.5000130000000  0.5101880000000 1.0
END
