TITL C-862501-1041-259 -0.00027372443682201 125000 -424.061573357255 0 0 75 (C2) n - 1
REM
REM in /home/nfs/bkarasulu/CARBON/AIRSS/Generating-Clusters/TERSOFF/Higher-Symm/FIRE-HFTN
REM
REM
REM
REM
REM
REM ./C.cell (b20cbc046b6831c77cfcea5457e17084)
REM AIRSS Version 0.9.1 bugfix July 2018 build 013d7b7c2542+ Fri, 06 Jul 2018 19:26:36 +0100
REM compiler GCC version 9.2.1 20190827 (Red Hat 9.2.1-1)
REM options -cpp -mtune=generic -march=x86-64 -g -O0 -fpre-include=/usr/include/finclude/math-vector-fortran.h
REM seed -1639021404 1227652959 -2122256183 139319200 971436914 2145028810 -1845469797 -318631981 -1586698436 91987948 1753627939 454947959 -1394078971 1847338518 -1910818082 1640698432 -1735126707 -1287344008 1850464648 -752887615 -1265595672 1082312727 -575856492 -1647865435 -1668287849 -1613572011 -456794159 -1730572067 2027518164 361389705 -1823605709 1640143255 -1965576678
REM
CELL 1.54180   50.00000   50.00000   50.00000   90.00000   90.00000   90.00000
LATT -1
SFAC C  
C      1  0.4973400000000  0.4629590000000  0.5525560000000 1.0
C      1  0.5027030000000  0.5356660000000  0.5525560000000 1.0
C      1  0.4920850000000  0.5113100000000  0.5665270000000 1.0
C      1  0.5079570000000  0.4873150000000  0.5665270000000 1.0
C      1  0.4447650000000  0.5593040000000  0.4766860000000 1.0
C      1  0.5552770000000  0.4393230000000  0.4766850000000 1.0
C      1  0.5201630000000  0.5775450000000  0.5203680000000 1.0
C      1  0.4798790000000  0.4210810000000  0.5203670000000 1.0
C      1  0.4638070000000  0.4109000000000  0.4975520000000 1.0
C      1  0.5362350000000  0.5877260000000  0.4975540000000 1.0
C      1  0.5017240000000  0.4592120000000  0.5105820000000 1.0
C      1  0.4983180000000  0.5394140000000  0.5105830000000 1.0
C      1  0.4240120000000  0.4399960000000  0.4852820000000 1.0
C      1  0.5760290000000  0.5586300000000  0.4852820000000 1.0
C      1  0.5895080000000  0.4862930000000  0.4837980000000 1.0
C      1  0.4105330000000  0.5123330000000  0.4837990000000 1.0
C      1  0.4756370000000  0.4683480000000  0.5245170000000 1.0
C      1  0.5244050000000  0.5302770000000  0.5245180000000 1.0
C      1  0.5449390000000  0.4625730000000  0.5472940000000 1.0
C      1  0.4551030000000  0.5360520000000  0.5472950000000 1.0
C      1  0.4852430000000  0.5423100000000  0.4331370000000 1.0
C      1  0.5147980000000  0.4563170000000  0.4331360000000 1.0
C      1  0.4882760000000  0.5687730000000  0.5145550000000 1.0
C      1  0.5117660000000  0.4298530000000  0.5145540000000 1.0
C      1  0.4795960000000  0.5546950000000  0.5448890000000 1.0
C      1  0.5204460000000  0.4439300000000  0.5448880000000 1.0
C      1  0.5050720000000  0.5233200000000  0.4219010000000 1.0
C      1  0.4949690000000  0.4753080000000  0.4219000000000 1.0
C      1  0.5360760000000  0.5565150000000  0.5380820000000 1.0
C      1  0.4639660000000  0.4421100000000  0.5380810000000 1.0
C      1  0.5718150000000  0.5045010000000  0.5276510000000 1.0
C      1  0.4282270000000  0.4941240000000  0.5276510000000 1.0
C      1  0.4470250000000  0.4856720000000  0.5651810000000 1.0
C      1  0.5530180000000  0.5129530000000  0.5651810000000 1.0
C      1  0.4777730000000  0.5177510000000  0.5020060000000 1.0
C      1  0.5222690000000  0.4808750000000  0.5020060000000 1.0
C      1  0.5647070000000  0.5821680000000  0.4977530000000 1.0
C      1  0.4353350000000  0.4164580000000  0.4977520000000 1.0
C      1  0.5646040000000  0.5317780000000  0.4872860000000 1.0
C      1  0.4354370000000  0.4668480000000  0.4872860000000 1.0
C      1  0.4363530000000  0.5294860000000  0.4731380000000 1.0
C      1  0.5636890000000  0.4691400000000  0.4731370000000 1.0
C      1  0.5109080000000  0.4772820000000  0.4738390000000 1.0
C      1  0.4891340000000  0.5213440000000  0.4738400000000 1.0
C      1  0.5163440000000  0.4999390000000  0.5273580000000 1.0
C      1  0.4836980000000  0.4986860000000  0.5273580000000 1.0
C      1  0.4518550000000  0.4560380000000  0.5628380000000 1.0
C      1  0.5481870000000  0.5425870000000  0.5628380000000 1.0
C      1  0.4494000000000  0.5250310000000  0.5005080000000 1.0
C      1  0.5506420000000  0.4735950000000  0.5005070000000 1.0
C      1  0.4379590000000  0.5361090000000  0.5243080000000 1.0
C      1  0.5620830000000  0.4625160000000  0.5243060000000 1.0
C      1  0.5349660000000  0.4915300000000  0.5540360000000 1.0
C      1  0.4650760000000  0.5070940000000  0.5540360000000 1.0
C      1  0.4752530000000  0.4140950000000  0.4713890000000 1.0
C      1  0.5247880000000  0.5845320000000  0.4713900000000 1.0
C      1  0.5919610000000  0.4896910000000  0.5128160000000 1.0
C      1  0.4080810000000  0.5089350000000  0.5128170000000 1.0
C      1  0.5529860000000  0.4942850000000  0.4495730000000 1.0
C      1  0.4470560000000  0.5043410000000  0.4495740000000 1.0
C      1  0.5259770000000  0.5106540000000  0.4424080000000 1.0
C      1  0.4740640000000  0.4879730000000  0.4424080000000 1.0
C      1  0.5171010000000  0.5590340000000  0.4606400000000 1.0
C      1  0.4829410000000  0.4395920000000  0.4606390000000 1.0
C      1  0.4260660000000  0.4889740000000  0.4691350000000 1.0
C      1  0.5739760000000  0.5096520000000  0.4691350000000 1.0
C      1  0.5103350000000  0.4490650000000  0.4626400000000 1.0
C      1  0.4897060000000  0.5495610000000  0.4626410000000 1.0
C      1  0.5540740000000  0.5230840000000  0.5136880000000 1.0
C      1  0.4459680000000  0.4755410000000  0.5136880000000 1.0
C      1  0.5268810000000  0.4323490000000  0.4819390000000 1.0
C      1  0.4731610000000  0.5662770000000  0.4819400000000 1.0
C      1  0.5356550000000  0.5389230000000  0.4514660000000 1.0
C      1  0.4643860000000  0.4597040000000  0.4514650000000 1.0
C      1  0.5000210000000  0.4993130000000  0.4585130000000 1.0
END
