TITL C-862502-1143-281 0.00328979412551819 125000 -689.945243784368 0 0 120 (C5) n - 1
REM
REM in /home/nfs/bkarasulu/CARBON/AIRSS/Generating-Clusters/TERSOFF/Higher-Symm/FIRE-HFTN
REM
REM
REM
REM
REM
REM ./C.cell (b20cbc046b6831c77cfcea5457e17084)
REM AIRSS Version 0.9.1 bugfix July 2018 build 013d7b7c2542+ Fri, 06 Jul 2018 19:26:36 +0100
REM compiler GCC version 9.2.1 20190827 (Red Hat 9.2.1-1)
REM options -cpp -mtune=generic -march=x86-64 -g -O0 -fpre-include=/usr/include/finclude/math-vector-fortran.h
REM seed 1750086424 -1380787497 354054265 -1118882411 1573521321 -997857759 1178104395 948278881 1128611481 -437083513 1464831164 1671825047 -2047730584 353146495 -1922422627 -989678605 -1573091622 -162851001 250237184 -234102391 403704479 -1680024038 -447139771 -2073959659 675621865 -1893221279 -2143444602 -2064272097 2022997805 1415420901 1761187606 751908334 -1240465938
REM
CELL 1.54180   50.00000   50.00000   50.00000   90.00000   90.00000   90.00000
LATT -1
SFAC C  
C      1  0.4773140000000  0.4315090000000  0.5715640000000 1.0
C      1  0.4278510000000  0.5004110000000  0.5715650000000 1.0
C      1  0.4780960000000  0.5687450000000  0.5715640000000 1.0
C      1  0.5586120000000  0.5420760000000  0.5715640000000 1.0
C      1  0.5581290000000  0.4572590000000  0.5715640000000 1.0
C      1  0.5091950000000  0.5560970000000  0.4099450000000 1.0
C      1  0.5561930000000  0.5085890000000  0.4099450000000 1.0
C      1  0.5255330000000  0.4492110000000  0.4099450000000 1.0
C      1  0.4595870000000  0.4600220000000  0.4099450000000 1.0
C      1  0.4494900000000  0.5260810000000  0.4099450000000 1.0
C      1  0.5621910000000  0.5598620000000  0.5481650000000 1.0
C      1  0.5761500000000  0.4593510000000  0.5481650000000 1.0
C      1  0.4848730000000  0.4150160000000  0.5481660000000 1.0
C      1  0.4145010000000  0.4881260000000  0.5481660000000 1.0
C      1  0.4622860000000  0.5776450000000  0.5481660000000 1.0
C      1  0.4970600000000  0.5584540000000  0.4599260000000 1.0
C      1  0.5546850000000  0.5208590000000  0.4599260000000 1.0
C      1  0.5367370000000  0.4544370000000  0.4599260000000 1.0
C      1  0.4680190000000  0.4509820000000  0.4599260000000 1.0
C      1  0.4434980000000  0.5152680000000  0.4599260000000 1.0
C      1  0.4897800000000  0.5672160000000  0.4298030000000 1.0
C      1  0.5607670000000  0.5304900000000  0.4298020000000 1.0
C      1  0.5477760000000  0.4516280000000  0.4298020000000 1.0
C      1  0.4687590000000  0.4396150000000  0.4298030000000 1.0
C      1  0.4329160000000  0.5110510000000  0.4298030000000 1.0
C      1  0.4986420000000  0.5268570000000  0.4611080000000 1.0
C      1  0.5251230000000  0.5095910000000  0.4611080000000 1.0
C      1  0.5168850000000  0.4790700000000  0.4611080000000 1.0
C      1  0.4853120000000  0.4774740000000  0.4611080000000 1.0
C      1  0.4740370000000  0.5070080000000  0.4611080000000 1.0
C      1  0.4329130000000  0.4640040000000  0.4253430000000 1.0
C      1  0.4450340000000  0.5526800000000  0.4253430000000 1.0
C      1  0.5331160000000  0.5685540000000  0.4253420000000 1.0
C      1  0.5754320000000  0.4896890000000  0.4253420000000 1.0
C      1  0.5135030000000  0.4250730000000  0.4253420000000 1.0
C      1  0.5192840000000  0.5182090000000  0.5991050000000 1.0
C      1  0.5232780000000  0.4872880000000  0.5991050000000 1.0
C      1  0.4951040000000  0.4739340000000  0.5991060000000 1.0
C      1  0.4736970000000  0.4966030000000  0.5991060000000 1.0
C      1  0.4886410000000  0.5239660000000  0.5991060000000 1.0
C      1  0.5284520000000  0.5913230000000  0.4972030000000 1.0
C      1  0.5956450000000  0.5011610000000  0.4972020000000 1.0
C      1  0.5306600000000  0.4093950000000  0.4972020000000 1.0
C      1  0.4233040000000  0.4428420000000  0.4972030000000 1.0
C      1  0.4219390000000  0.5552790000000  0.4972030000000 1.0
C      1  0.5443340000000  0.5540620000000  0.5257120000000 1.0
C      1  0.5651160000000  0.4745420000000  0.5257120000000 1.0
C      1  0.4959110000000  0.4302040000000  0.5257120000000 1.0
C      1  0.4323570000000  0.4823210000000  0.5257130000000 1.0
C      1  0.4622840000000  0.5588700000000  0.5257130000000 1.0
C      1  0.5959980000000  0.5676430000000  0.5079860000000 1.0
C      1  0.5939980000000  0.4296030000000  0.5079860000000 1.0
C      1  0.4620960000000  0.3888490000000  0.5079860000000 1.0
C      1  0.3825760000000  0.5017020000000  0.5079870000000 1.0
C      1  0.4653320000000  0.6122020000000  0.5079870000000 1.0
C      1  0.5539200000000  0.4518760000000  0.4840070000000 1.0
C      1  0.4708940000000  0.4338470000000  0.4840080000000 1.0
C      1  0.4280910000000  0.5072390000000  0.4840080000000 1.0
C      1  0.4846640000000  0.5706270000000  0.4840080000000 1.0
C      1  0.5624310000000  0.5364100000000  0.4840070000000 1.0
C      1  0.4443820000000  0.4498910000000  0.5228650000000 1.0
C      1  0.4351570000000  0.5374110000000  0.5228650000000 1.0
C      1  0.5155430000000  0.5732300000000  0.5228640000000 1.0
C      1  0.5744490000000  0.5078480000000  0.5228640000000 1.0
C      1  0.5304700000000  0.4316200000000  0.5228640000000 1.0
C      1  0.4190370000000  0.4880130000000  0.4219300000000 1.0
C      1  0.4635800000000  0.5732960000000  0.4219300000000 1.0
C      1  0.5584540000000  0.5572870000000  0.4219290000000 1.0
C      1  0.5725460000000  0.4621090000000  0.4219290000000 1.0
C      1  0.4863810000000  0.4192960000000  0.4219290000000 1.0
C      1  0.4139760000000  0.4709860000000  0.5030760000000 1.0
C      1  0.4458230000000  0.5728480000000  0.5030760000000 1.0
C      1  0.5525410000000  0.5740360000000  0.5030760000000 1.0
C      1  0.5866490000000  0.4729090000000  0.5030750000000 1.0
C      1  0.5010110000000  0.4092210000000  0.5030760000000 1.0
C      1  0.4675000000000  0.3930590000000  0.5372940000000 1.0
C      1  0.3882500000000  0.4978630000000  0.5372950000000 1.0
C      1  0.4634350000000  0.6056200000000  0.5372940000000 1.0
C      1  0.5891520000000  0.5674140000000  0.5372940000000 1.0
C      1  0.5916640000000  0.4360440000000  0.5372940000000 1.0
C      1  0.4761760000000  0.5125690000000  0.4023610000000 1.0
C      1  0.5045910000000  0.5265420000000  0.4023610000000 1.0
C      1  0.5266610000000  0.5038350000000  0.4023610000000 1.0
C      1  0.5118850000000  0.4758280000000  0.4023610000000 1.0
C      1  0.4806840000000  0.4812270000000  0.4023610000000 1.0
C      1  0.4384420000000  0.4567400000000  0.4532550000000 1.0
C      1  0.4398350000000  0.5451770000000  0.4532550000000 1.0
C      1  0.5243730000000  0.5711800000000  0.4532550000000 1.0
C      1  0.5752280000000  0.4988150000000  0.4532540000000 1.0
C      1  0.5221200000000  0.4280870000000  0.4532550000000 1.0
C      1  0.4901690000000  0.5602350000000  0.5110980000000 1.0
C      1  0.5542490000000  0.5279630000000  0.5110970000000 1.0
C      1  0.5433580000000  0.4570470000000  0.5110970000000 1.0
C      1  0.4725480000000  0.4454910000000  0.5110980000000 1.0
C      1  0.4396750000000  0.5092640000000  0.5110980000000 1.0
C      1  0.5845760000000  0.4485780000000  0.4851270000000 1.0
C      1  0.4772300000000  0.4036730000000  0.4851280000000 1.0
C      1  0.4013510000000  0.4918890000000  0.4851280000000 1.0
C      1  0.4618020000000  0.5913140000000  0.4851280000000 1.0
C      1  0.5750410000000  0.5645460000000  0.4851270000000 1.0
C      1  0.5315600000000  0.5300730000000  0.5737830000000 1.0
C      1  0.5383540000000  0.4792780000000  0.5737830000000 1.0
C      1  0.4921450000000  0.4571200000000  0.5737830000000 1.0
C      1  0.4567920000000  0.4942210000000  0.5737830000000 1.0
C      1  0.4811520000000  0.5393080000000  0.5737830000000 1.0
C      1  0.4343320000000  0.4353890000000  0.5474280000000 1.0
C      1  0.4182590000000  0.5424880000000  0.5474280000000 1.0
C      1  0.5151500000000  0.5908700000000  0.5474270000000 1.0
C      1  0.5911050000000  0.5136720000000  0.5474270000000 1.0
C      1  0.5411560000000  0.4175800000000  0.5474270000000 1.0
C      1  0.4486750000000  0.4333400000000  0.5721400000000 1.0
C      1  0.4207420000000  0.5282150000000  0.5721400000000 1.0
C      1  0.5023420000000  0.5840980000000  0.5721400000000 1.0
C      1  0.5807060000000  0.5237610000000  0.5721390000000 1.0
C      1  0.5475380000000  0.4305870000000  0.5721390000000 1.0
C      1  0.4745670000000  0.4962440000000  0.5497760000000 1.0
C      1  0.4885690000000  0.5230280000000  0.5497760000000 1.0
C      1  0.5183690000000  0.5179880000000  0.5497760000000 1.0
C      1  0.5227840000000  0.4880890000000  0.5497760000000 1.0
C      1  0.4957130000000  0.4746510000000  0.5497760000000 1.0
END
