TITL C-862506-1665-52 0.053247551812803 125000 -113.796907140647 0 0 21 (C1) n - 1
REM
REM in /home/nfs/bkarasulu/CARBON/AIRSS/Generating-Clusters/TERSOFF/Higher-Symm/FIRE-HFTN
REM
REM
REM
REM
REM
REM ./C.cell (b20cbc046b6831c77cfcea5457e17084)
REM AIRSS Version 0.9.1 bugfix July 2018 build 013d7b7c2542+ Fri, 06 Jul 2018 19:26:36 +0100
REM compiler GCC version 9.2.1 20190827 (Red Hat 9.2.1-1)
REM options -cpp -mtune=generic -march=x86-64 -g -O0 -fpre-include=/usr/include/finclude/math-vector-fortran.h
REM seed -1385243368 1697743649 1512527836 -1697458598 1417140486 180887634 -1530165182 -1619477403 -425892574 1475360313 -2126801347 1346714409 -325837448 -207762837 -1229083954 1278759909 -636496897 910296628 -443708482 -2052903618 1058860413 -2146267346 -1502358172 -1571280761 -1068704712 -802854972 1636348855 1806291892 1800537168 1472153474 -887508033 -366963799 251629788
REM
CELL 1.54180   50.00000   50.00000   50.00000   90.00000   90.00000   90.00000
LATT -1
SFAC C  
C      1  0.5058740000000  0.5346610000000  0.4503890000000 1.0
C      1  0.4865810000000  0.4405920000000  0.5398690000000 1.0
C      1  0.4993510000000  0.5259400000000  0.5007620000000 1.0
C      1  0.5066870000000  0.4729890000000  0.5045990000000 1.0
C      1  0.5420360000000  0.5116230000000  0.4776570000000 1.0
C      1  0.4608190000000  0.4813910000000  0.5230810000000 1.0
C      1  0.5649550000000  0.5133000000000  0.5220840000000 1.0
C      1  0.4401300000000  0.4882880000000  0.4782180000000 1.0
C      1  0.4505980000000  0.4667670000000  0.4621990000000 1.0
C      1  0.5575480000000  0.5404310000000  0.5297200000000 1.0
C      1  0.5303510000000  0.5492370000000  0.5357650000000 1.0
C      1  0.4767570000000  0.4548280000000  0.4658710000000 1.0
C      1  0.5515410000000  0.4976270000000  0.5015910000000 1.0
C      1  0.4539680000000  0.4996180000000  0.5009870000000 1.0
C      1  0.5001990000000  0.4689380000000  0.4758330000000 1.0
C      1  0.5082890000000  0.5494910000000  0.5167010000000 1.0
C      1  0.4697180000000  0.5241810000000  0.4971300000000 1.0
C      1  0.5366810000000  0.4735810000000  0.5092010000000 1.0
C      1  0.4845070000000  0.4642170000000  0.5232000000000 1.0
C      1  0.5157550000000  0.5242280000000  0.4756050000000 1.0
C      1  0.5062150000000  0.5016450000000  0.5161460000000 1.0
END
