TITL C-862128-1543-346 4.01368350209123e-06 125000 -196.132948341094 0 0 40 (C5) n - 1
REM
REM in /home/nfs/bkarasulu/CARBON/AIRSS/Generating-Clusters/TERSOFF/Higher-Symm/FIRE-HFTN
REM
REM
REM
REM
REM
REM ./C.cell (b20cbc046b6831c77cfcea5457e17084)
REM AIRSS Version 0.9.1 bugfix July 2018 build 013d7b7c2542+ Fri, 06 Jul 2018 19:26:36 +0100
REM compiler GCC version 9.2.1 20190827 (Red Hat 9.2.1-1)
REM options -cpp -mtune=generic -march=x86-64 -g -O0 -fpre-include=/usr/include/finclude/math-vector-fortran.h
REM seed -491977463 1405622394 1378244148 -1853399666 -778712846 438588946 1977265926 -1463306546 272468968 912520248 -906521192 1510742168 -1693845574 -1615907937 -603727159 91299641 385114966 -1895908234 -488548791 -2112383483 1040556686 -1367319397 -583191616 -18632527 -594628948 -1819594311 -1519912862 -120294430 -563170632 1023334413 -673134559 655340775 1979689874
REM
CELL 1.54180   50.00000   50.00000   50.00000   90.00000   90.00000   90.00000
LATT -1
SFAC C  
C      1  0.4800300000000  0.4477410000000  0.4566290000000 1.0
C      1  0.5435550000000  0.4649370000000  0.4565910000000 1.0
C      1  0.5469500000000  0.5304300000000  0.4566650000000 1.0
C      1  0.4853170000000  0.5539650000000  0.4565790000000 1.0
C      1  0.4441490000000  0.5029200000000  0.4566450000000 1.0
C      1  0.4800300000000  0.4477410000000  0.5433710000000 1.0
C      1  0.5435550000000  0.4649370000000  0.5434090000000 1.0
C      1  0.5469500000000  0.5304300000000  0.5433350000000 1.0
C      1  0.4853170000000  0.5539650000000  0.5434210000000 1.0
C      1  0.4441490000000  0.5029200000000  0.5433550000000 1.0
C      1  0.5108270000000  0.4467690000000  0.5145540000000 1.0
C      1  0.5539610000000  0.4936240000000  0.5145510000000 1.0
C      1  0.5224630000000  0.5494850000000  0.5145550000000 1.0
C      1  0.4600790000000  0.5368310000000  0.5145520000000 1.0
C      1  0.4526650000000  0.4732940000000  0.5145540000000 1.0
C      1  0.5108270000000  0.4467690000000  0.4854460000000 1.0
C      1  0.5539610000000  0.4936240000000  0.4854490000000 1.0
C      1  0.5224630000000  0.5494850000000  0.4854450000000 1.0
C      1  0.4600790000000  0.5368310000000  0.4854480000000 1.0
C      1  0.4526650000000  0.4732940000000  0.4854460000000 1.0
C      1  0.4849530000000  0.5243060000000  0.4684430000000 1.0
C      1  0.4721610000000  0.4931670000000  0.4684600000000 1.0
C      1  0.4978860000000  0.4714170000000  0.4684590000000 1.0
C      1  0.5264670000000  0.4891880000000  0.4684420000000 1.0
C      1  0.5185420000000  0.5219310000000  0.4684700000000 1.0
C      1  0.4849530000000  0.5243060000000  0.5315570000000 1.0
C      1  0.4721610000000  0.4931670000000  0.5315400000000 1.0
C      1  0.4978860000000  0.4714170000000  0.5315410000000 1.0
C      1  0.5264670000000  0.4891880000000  0.5315580000000 1.0
C      1  0.5185420000000  0.5219310000000  0.5315300000000 1.0
C      1  0.4361680000000  0.5279320000000  0.4698900000000 1.0
C      1  0.4537830000000  0.4478070000000  0.4698920000000 1.0
C      1  0.5354220000000  0.4399940000000  0.4698890000000 1.0
C      1  0.5680980000000  0.5148620000000  0.4698910000000 1.0
C      1  0.5065240000000  0.5694030000000  0.4698910000000 1.0
C      1  0.4361680000000  0.5279320000000  0.5301100000000 1.0
C      1  0.4537830000000  0.4478070000000  0.5301080000000 1.0
C      1  0.5354220000000  0.4399940000000  0.5301110000000 1.0
C      1  0.5680980000000  0.5148620000000  0.5301090000000 1.0
C      1  0.5065240000000  0.5694030000000  0.5301090000000 1.0
END
