TITL C-862130-1496-917 4.38735058993569 125000 -1093.47073637199 0 0 191 (C3) n - 1
REM
REM in /home/nfs/bkarasulu/CARBON/AIRSS/Generating-Clusters/TERSOFF/Higher-Symm/FIRE-HFTN
REM
REM
REM
REM
REM
REM ./C.cell (b20cbc046b6831c77cfcea5457e17084)
REM AIRSS Version 0.9.1 bugfix July 2018 build 013d7b7c2542+ Fri, 06 Jul 2018 19:26:36 +0100
REM compiler GCC version 9.2.1 20190827 (Red Hat 9.2.1-1)
REM options -cpp -mtune=generic -march=x86-64 -g -O0 -fpre-include=/usr/include/finclude/math-vector-fortran.h
REM seed -1748438586 -487191299 88269538 10446217 -1486938254 -1368401318 -1411168416 -468649070 1699825745 -55818547 1384370006 -1660073612 1336635613 937840971 703575435 2009209702 1868204258 1303645379 -1045495840 1049520524 388198750 -394569161 -614866404 968520425 1652198246 -1207669361 -1589306307 -131667770 -235249449 -442882673 -1684611746 -1951590756 -304065372
REM
CELL 1.54180   50.00000   50.00000   50.00000   90.00000   90.00000   90.00000
LATT -1
SFAC C  
C      1  0.5193310000000  0.3966420000000  0.4946950000000 1.0
C      1  0.5193310000000  0.5564890000000  0.4134470000000 1.0
C      1  0.5193310000000  0.5469290000000  0.5925030000000 1.0
C      1  0.5184950000000  0.4170750000000  0.4466080000000 1.0
C      1  0.5184950000000  0.5879180000000  0.4551860000000 1.0
C      1  0.5184950000000  0.4950680000000  0.5988510000000 1.0
C      1  0.4678560000000  0.4435770000000  0.5085860000000 1.0
C      1  0.4678560000000  0.5209920000000  0.4471480000000 1.0
C      1  0.4678560000000  0.5354910000000  0.5449110000000 1.0
C      1  0.4861770000000  0.4306960000000  0.5283570000000 1.0
C      1  0.4861770000000  0.5103110000000  0.4261070000000 1.0
C      1  0.4861770000000  0.5590540000000  0.5461810000000 1.0
C      1  0.4355410000000  0.5195740000000  0.5073560000000 1.0
C      1  0.4355410000000  0.4840590000000  0.5135780000000 1.0
C      1  0.4355410000000  0.4964280000000  0.4797100000000 1.0
C      1  0.5448030000000  0.5562410000000  0.4729640000000 1.0
C      1  0.5448030000000  0.4955100000000  0.5625290000000 1.0
C      1  0.5448030000000  0.4483100000000  0.4651520000000 1.0
C      1  0.5815420000000  0.5866270000000  0.5030720000000 1.0
C      1  0.5815420000000  0.4542430000000  0.5737900000000 1.0
C      1  0.5815420000000  0.4591910000000  0.4237830000000 1.0
C      1  0.4197330000000  0.4982560000000  0.5497240000000 1.0
C      1  0.4197330000000  0.4580260000000  0.4739320000000 1.0
C      1  0.4197330000000  0.5437790000000  0.4769880000000 1.0
C      1  0.4225940000000  0.4940470000000  0.3991590000000 1.0
C      1  0.4225940000000  0.5905230000000  0.5455700000000 1.0
C      1  0.4225940000000  0.4154900000000  0.5559150000000 1.0
C      1  0.4949310000000  0.5736540000000  0.4102390000000 1.0
C      1  0.4949310000000  0.5411250000000  0.6089720000000 1.0
C      1  0.4949310000000  0.3852810000000  0.4814340000000 1.0
C      1  0.4772680000000  0.4733420000000  0.4655900000000 1.0
C      1  0.4772680000000  0.5433450000000  0.4944230000000 1.0
C      1  0.4772680000000  0.4833730000000  0.5406310000000 1.0
C      1  0.4829860000000  0.3617590000000  0.5339330000000 1.0
C      1  0.4829860000000  0.5399500000000  0.3636180000000 1.0
C      1  0.4829860000000  0.5983510000000  0.6030930000000 1.0
C      1  0.4336350000000  0.5729610000000  0.5682640000000 1.0
C      1  0.4336350000000  0.4046180000000  0.5293590000000 1.0
C      1  0.4336350000000  0.5224820000000  0.4030220000000 1.0
C      1  0.4927910000000  0.6123080000000  0.5577680000000 1.0
C      1  0.4927910000000  0.3940340000000  0.5686820000000 1.0
C      1  0.4927920000000  0.4937190000000  0.3741940000000 1.0
C      1  0.5710050000000  0.5764200000000  0.5302390000000 1.0
C      1  0.5710040000000  0.4358190000000  0.5513670000000 1.0
C      1  0.5710050000000  0.4878210000000  0.4190390000000 1.0
C      1  0.4254880000000  0.5252300000000  0.5834920000000 1.0
C      1  0.4254880000000  0.4152950000000  0.4804090000000 1.0
C      1  0.4254880000000  0.5595350000000  0.4367440000000 1.0
C      1  0.4438310000000  0.4806120000000  0.3831540000000 1.0
C      1  0.4438310000000  0.6111020000000  0.5419380000000 1.0
C      1  0.4438310000000  0.4083460000000  0.5755530000000 1.0
C      1  0.4576620000000  0.4942770000000  0.4606720000000 1.0
C      1  0.4576620000000  0.5371370000000  0.5150120000000 1.0
C      1  0.4576620000000  0.4686470000000  0.5249600000000 1.0
C      1  0.5251520000000  0.4792220000000  0.5478590000000 1.0
C      1  0.5251520000000  0.4691580000000  0.4583820000000 1.0
C      1  0.5251520000000  0.5516800000000  0.4944050000000 1.0
C      1  0.5407030000000  0.4268810000000  0.4293050000000 1.0
C      1  0.5407030000000  0.5979990000000  0.4723300000000 1.0
C      1  0.5407030000000  0.4751800000000  0.5990100000000 1.0
C      1  0.4450460000000  0.5607380000000  0.4738760000000 1.0
C      1  0.4450460000000  0.4924720000000  0.5659670000000 1.0
C      1  0.4450460000000  0.4468510000000  0.4608020000000 1.0
C      1  0.5135180000000  0.5270900000000  0.5694290000000 1.0
C      1  0.5135180000000  0.4265440000000  0.4890510000000 1.0
C      1  0.5135180000000  0.5464270000000  0.4421650000000 1.0
C      1  0.6053300000000  0.5279830000000  0.5218310000000 1.0
C      1  0.6053300000000  0.4673190000000  0.5136230000000 1.0
C      1  0.6053300000000  0.5047590000000  0.4651910000000 1.0
C      1  0.6250520000000  0.5388110000000  0.4972650000000 1.0
C      1  0.6250520000000  0.4831790000000  0.5352840000000 1.0
C      1  0.6250520000000  0.4780700000000  0.4680960000000 1.0
C      1  0.5263960000000  0.5362470000000  0.5427550000000 1.0
C      1  0.5263960000000  0.4450670000000  0.5103180000000 1.0
C      1  0.5263960000000  0.5187470000000  0.4475720000000 1.0
C      1  0.5505340000000  0.5415740000000  0.5953650000000 1.0
C      1  0.5505340000000  0.3968410000000  0.4886260000000 1.0
C      1  0.5505350000000  0.5616460000000  0.4166540000000 1.0
C      1  0.4569900000000  0.6072710000000  0.5918990000000 1.0
C      1  0.4569900000000  0.3669940000000  0.5472540000000 1.0
C      1  0.4569910000000  0.5257960000000  0.3614910000000 1.0
C      1  0.4121850000000  0.4510170000000  0.5024290000000 1.0
C      1  0.4121850000000  0.5226040000000  0.4566690000000 1.0
C      1  0.4121850000000  0.5264400000000  0.5415460000000 1.0
C      1  0.4071820000000  0.4745340000000  0.5257170000000 1.0
C      1  0.4071820000000  0.4906780000000  0.4653920000000 1.0
C      1  0.4071820000000  0.5348480000000  0.5095350000000 1.0
C      1  0.5433250000000  0.5855510000000  0.5352390000000 1.0
C      1  0.5433250000000  0.4269230000000  0.5567750000000 1.0
C      1  0.5433250000000  0.4875870000000  0.4086310000000 1.0
C      1  0.5644460000000  0.5507450000000  0.5166260000000 1.0
C      1  0.5644460000000  0.4604450000000  0.5359390000000 1.0
C      1  0.5644460000000  0.4888700000000  0.4480800000000 1.0
C      1  0.5683310000000  0.5792170000000  0.4766500000000 1.0
C      1  0.5683310000000  0.4808300000000  0.5805850000000 1.0
C      1  0.5683310000000  0.4400130000000  0.4434110000000 1.0
C      1  0.4700360000000  0.5688900000000  0.4253370000000 1.0
C      1  0.4700360000000  0.5304320000000  0.5972970000000 1.0
C      1  0.4700360000000  0.4007390000000  0.4780110000000 1.0
C      1  0.5832580000000  0.5386140000000  0.5001430000000 1.0
C      1  0.5832580000000  0.4807850000000  0.5336740000000 1.0
C      1  0.5832580000000  0.4806610000000  0.4668270000000 1.0
C      1  0.5272660000000  0.5667560000000  0.5502200000000 1.0
C      1  0.5272660000000  0.4233470000000  0.5330080000000 1.0
C      1  0.5272660000000  0.5099570000000  0.4174170000000 1.0
C      1  0.4920040000000  0.5769260000000  0.5236990000000 1.0
C      1  0.4920040000000  0.4412290000000  0.5550750000000 1.0
C      1  0.4920040000000  0.4819050000000  0.4218700000000 1.0
C      1  0.5012970000000  0.4746810000000  0.3952070000000 1.0
C      1  0.5012970000000  0.6036290000000  0.5307750000000 1.0
C      1  0.5012970000000  0.4217500000000  0.5746630000000 1.0
C      1  0.4594260000000  0.4906070000000  0.6053820000000 1.0
C      1  0.4594270000000  0.4136490000000  0.4394800000000 1.0
C      1  0.4594270000000  0.5958040000000  0.4557830000000 1.0
C      1  0.4685920000000  0.4319350000000  0.4761440000000 1.0
C      1  0.4685920000000  0.5549090000000  0.4532870000000 1.0
C      1  0.4685910000000  0.5132170000000  0.5712140000000 1.0
C      1  0.5824290000000  0.5177670000000  0.4173230000000 1.0
C      1  0.5824290000000  0.5629330000000  0.5570300000000 1.0
C      1  0.5824290000000  0.4193600000000  0.5262920000000 1.0
C      1  0.4634680000000  0.6170160000000  0.5631610000000 1.0
C      1  0.4634680000000  0.3870090000000  0.5700630000000 1.0
C      1  0.4634680000000  0.4960350000000  0.3674200000000 1.0
C      1  0.4058990000000  0.5269060000000  0.3667830000000 1.0
C      1  0.4058980000000  0.6021330000000  0.5902150000000 1.0
C      1  0.4058980000000  0.3710220000000  0.5436470000000 1.0
C      1  0.4411470000000  0.5446380000000  0.5663970000000 1.0
C      1  0.4411470000000  0.4203960000000  0.5057640000000 1.0
C      1  0.4411480000000  0.5350270000000  0.4284840000000 1.0
C      1  0.4978940000000  0.4643630000000  0.4466240000000 1.0
C      1  0.4978940000000  0.5642600000000  0.4961310000000 1.0
C      1  0.4978940000000  0.4714370000000  0.5578900000000 1.0
C      1  0.5129100000000  0.4458190000000  0.6277010000000 1.0
C      1  0.5129110000000  0.4167150000000  0.3895320000000 1.0
C      1  0.5129110000000  0.6375270000000  0.4834120000000 1.0
C      1  0.5035650000000  0.3806540000000  0.5434020000000 1.0
C      1  0.5035660000000  0.5223020000000  0.3752480000000 1.0
C      1  0.5035660000000  0.5971040000000  0.5819950000000 1.0
C      1  0.4332880000000  0.5893930000000  0.5938900000000 1.0
C      1  0.4332880000000  0.3742090000000  0.5307760000000 1.0
C      1  0.4332890000000  0.5364590000000  0.3759780000000 1.0
C      1  0.5701420000000  0.4200230000000  0.4972640000000 1.0
C      1  0.5701420000000  0.5425740000000  0.4324110000000 1.0
C      1  0.5701420000000  0.5374630000000  0.5709700000000 1.0
C      1  0.3817170000000  0.4940500000000  0.4812440000000 1.0
C      1  0.3817170000000  0.5194340000000  0.5045300000000 1.0
C      1  0.3817170000000  0.4865760000000  0.5148700000000 1.0
C      1  0.4355410000000  0.5082380000000  0.6063030000000 1.0
C      1  0.4355410000000  0.4040370000000  0.4542870000000 1.0
C      1  0.4355410000000  0.5877860000000  0.4400540000000 1.0
C      1  0.4946370000000  0.4673990000000  0.6360370000000 1.0
C      1  0.4946370000000  0.3987060000000  0.4040530000000 1.0
C      1  0.4946370000000  0.6339560000000  0.4605550000000 1.0
C      1  0.5537240000000  0.5326590000000  0.4575190000000 1.0
C      1  0.5537240000000  0.5206770000000  0.5498290000000 1.0
C      1  0.5537240000000  0.4467250000000  0.4932970000000 1.0
C      1  0.5384030000000  0.4934810000000  0.4561780000000 1.0
C      1  0.5384030000000  0.5414270000000  0.5165700000000 1.0
C      1  0.5384020000000  0.4651530000000  0.5278970000000 1.0
C      1  0.6119260000000  0.5366620000000  0.4695140000000 1.0
C      1  0.6119260000000  0.5082870000000  0.5472990000000 1.0
C      1  0.6119260000000  0.4551110000000  0.4838330000000 1.0
C      1  0.5742850000000  0.4705920000000  0.4940510000000 1.0
C      1  0.5742850000000  0.5200720000000  0.4778120000000 1.0
C      1  0.5742840000000  0.5093960000000  0.5287820000000 1.0
C      1  0.4843120000000  0.5213740000000  0.4784020000000 1.0
C      1  0.4843120000000  0.5082340000000  0.5296140000000 1.0
C      1  0.4843120000000  0.4704530000000  0.4926280000000 1.0
C      1  0.4671890000000  0.4054790000000  0.4123790000000 1.0
C      1  0.4671890000000  0.6233590000000  0.4622580000000 1.0
C      1  0.4671880000000  0.4712230000000  0.6260080000000 1.0
C      1  0.5320280000000  0.4476680000000  0.6052390000000 1.0
C      1  0.5320280000000  0.4352430000000  0.4023650000000 1.0
C      1  0.5320280000000  0.6171490000000  0.4930410000000 1.0
C      1  0.5882940000000  0.5564910000000  0.4570540000000 1.0
C      1  0.5882940000000  0.5091630000000  0.5707010000000 1.0
C      1  0.5882940000000  0.4344060000000  0.4728900000000 1.0
C      1  0.4984360000000  0.4992470000000  0.5750820000000 1.0
C      1  0.4984370000000  0.4355700000000  0.4621120000000 1.0
C      1  0.4984370000000  0.5652440000000  0.4634510000000 1.0
C      1  0.5289980000000  0.6082970000000  0.5214430000000 1.0
C      1  0.5289980000000  0.4274970000000  0.5833710000000 1.0
C      1  0.5289980000000  0.4642660000000  0.3958300000000 1.0
C      1  0.3988680000000  0.3962140000000  0.5578270000000 1.0
C      1  0.3988680000000  0.5020300000000  0.3815100000000 1.0
C      1  0.3988680000000  0.6018170000000  0.5613080000000 1.0
C      1  0.5191170000000  0.5729530000000  0.5768230000000 1.0
C      1  0.5191170000000  0.3972090000000  0.5250730000000 1.0
C      1  0.5191170000000  0.5298980000000  0.3987490000000 1.0
C      1  0.4870170000000  0.5000200000000  0.5002150000000 1.0
C      1  0.5655940000000  0.5000200000000  0.5002150000000 1.0
END
