TITL C-862131-2149-411 -1029221.4150763 125000 -962.036253385537 0 0 171 (C1) n - 1
REM
REM in /home/nfs/bkarasulu/CARBON/AIRSS/Generating-Clusters/TERSOFF/Higher-Symm/FIRE-HFTN
REM
REM
REM
REM
REM
REM ./C.cell (b20cbc046b6831c77cfcea5457e17084)
REM AIRSS Version 0.9.1 bugfix July 2018 build 013d7b7c2542+ Fri, 06 Jul 2018 19:26:36 +0100
REM compiler GCC version 9.2.1 20190827 (Red Hat 9.2.1-1)
REM options -cpp -mtune=generic -march=x86-64 -g -O0 -fpre-include=/usr/include/finclude/math-vector-fortran.h
REM seed 1785855931 452325133 -1140986974 -876153494 -562896594 -1190847007 -1222555295 -2057155090 1227998564 -1762547671 -2019817375 1439617982 422186302 1321650363 1394974472 1184345914 1846498916 -463129650 1928999765 1267912472 612424150 -1910737301 -346338575 -1441812109 1643739689 1990953240 1299279093 564406054 1531213209 902483011 925425065 -479878267 -690852085
REM
CELL 1.54180   50.00000   50.00000   50.00000   90.00000   90.00000   90.00000
LATT -1
SFAC C  
C      1  0.4139370000000  0.4522710000000  0.4695660000000 1.0
C      1  0.4162220000000  0.4403870000000  0.4967650000000 1.0
C      1  0.4154350000000  0.4534660000000  0.5234960000000 1.0
C      1  0.4239630000000  0.4829290000000  0.5294880000000 1.0
C      1  0.4141070000000  0.5015040000000  0.5531460000000 1.0
C      1  0.4150310000000  0.5314150000000  0.5513640000000 1.0
C      1  0.4122240000000  0.5490590000000  0.5259090000000 1.0
C      1  0.4174520000000  0.5465360000000  0.4933070000000 1.0
C      1  0.4154440000000  0.5403100000000  0.4619200000000 1.0
C      1  0.4132420000000  0.5134980000000  0.4477630000000 1.0
C      1  0.4166810000000  0.4844040000000  0.4603220000000 1.0
C      1  0.6029200000000  0.4568780000000  0.4594360000000 1.0
C      1  0.5970130000000  0.4515340000000  0.4901790000000 1.0
C      1  0.6036960000000  0.4498300000000  0.5212830000000 1.0
C      1  0.5989890000000  0.4698780000000  0.5447790000000 1.0
C      1  0.6052480000000  0.4993670000000  0.5543990000000 1.0
C      1  0.5978930000000  0.5290120000000  0.5474910000000 1.0
C      1  0.6049340000000  0.5492480000000  0.5245360000000 1.0
C      1  0.5995760000000  0.5552220000000  0.4939000000000 1.0
C      1  0.6041880000000  0.5427940000000  0.4654380000000 1.0
C      1  0.5987020000000  0.5132130000000  0.4533140000000 1.0
C      1  0.6032750000000  0.4829880000000  0.4433090000000 1.0
C      1  0.5132050000000  0.5772400000000  0.5690960000000 1.0
C      1  0.5130630000000  0.6057010000000  0.5206460000000 1.0
C      1  0.5135750000000  0.5922230000000  0.4580480000000 1.0
C      1  0.5142440000000  0.5618390000000  0.4109310000000 1.0
C      1  0.5138870000000  0.5009610000000  0.3878760000000 1.0
C      1  0.5141690000000  0.4450660000000  0.4117380000000 1.0
C      1  0.5142640000000  0.4005750000000  0.4511830000000 1.0
C      1  0.5153980000000  0.3937200000000  0.5151490000000 1.0
C      1  0.5167830000000  0.4131180000000  0.5702160000000 1.0
C      1  0.5165640000000  0.4679850000000  0.6040880000000 1.0
C      1  0.5151530000000  0.5252010000000  0.6084620000000 1.0
C      1  0.4160660000000  0.4886370000000  0.5801780000000 1.0
C      1  0.4133970000000  0.5462420000000  0.5768690000000 1.0
C      1  0.4120370000000  0.5777520000000  0.5334330000000 1.0
C      1  0.4147640000000  0.5783950000000  0.4915270000000 1.0
C      1  0.4136990000000  0.5638800000000  0.4441220000000 1.0
C      1  0.4158600000000  0.5144990000000  0.4181730000000 1.0
C      1  0.4196480000000  0.4696490000000  0.4317690000000 1.0
C      1  0.4118940000000  0.4317100000000  0.4480070000000 1.0
C      1  0.4164200000000  0.4109880000000  0.4977830000000 1.0
C      1  0.4183240000000  0.4329450000000  0.5446820000000 1.0
C      1  0.4448360000000  0.4729480000000  0.5519540000000 1.0
C      1  0.5145520000000  0.5294620000000  0.4727690000000 1.0
C      1  0.5296640000000  0.5072650000000  0.4664950000000 1.0
C      1  0.5152050000000  0.4866160000000  0.4557060000000 1.0
C      1  0.5032470000000  0.4679670000000  0.4710240000000 1.0
C      1  0.5170760000000  0.4536240000000  0.4932100000000 1.0
C      1  0.5058460000000  0.4586270000000  0.5180800000000 1.0
C      1  0.5190030000000  0.4739210000000  0.5401670000000 1.0
C      1  0.5069010000000  0.4983910000000  0.5461580000000 1.0
C      1  0.5183570000000  0.5253480000000  0.5423270000000 1.0
C      1  0.5070380000000  0.5366780000000  0.5194380000000 1.0
C      1  0.5215910000000  0.5453910000000  0.4943460000000 1.0
C      1  0.5474060000000  0.5271160000000  0.5456320000000 1.0
C      1  0.5589610000000  0.5480740000000  0.5253950000000 1.0
C      1  0.5500990000000  0.5510380000000  0.4959230000000 1.0
C      1  0.5617810000000  0.5412100000000  0.4680620000000 1.0
C      1  0.5556360000000  0.5125880000000  0.4553910000000 1.0
C      1  0.5607060000000  0.4830720000000  0.4465270000000 1.0
C      1  0.5584010000000  0.4578500000000  0.4631720000000 1.0
C      1  0.5461010000000  0.4503410000000  0.4917340000000 1.0
C      1  0.5576100000000  0.4511500000000  0.5211440000000 1.0
C      1  0.5478920000000  0.4715280000000  0.5430470000000 1.0
C      1  0.5582820000000  0.4990450000000  0.5543380000000 1.0
C      1  0.5073120000000  0.5799690000000  0.5380620000000 1.0
C      1  0.5094620000000  0.5978480000000  0.4894010000000 1.0
C      1  0.5105790000000  0.5651830000000  0.4421870000000 1.0
C      1  0.5093640000000  0.5310750000000  0.4016360000000 1.0
C      1  0.5099970000000  0.4767020000000  0.4089890000000 1.0
C      1  0.5076340000000  0.4300160000000  0.4391610000000 1.0
C      1  0.5092760000000  0.4020100000000  0.4840760000000 1.0
C      1  0.5095440000000  0.4141810000000  0.5387960000000 1.0
C      1  0.5109010000000  0.4435200000000  0.5832850000000 1.0
C      1  0.5091940000000  0.4973330000000  0.5944960000000 1.0
C      1  0.5087380000000  0.5513380000000  0.5886660000000 1.0
C      1  0.5446770000000  0.5865810000000  0.4628620000000 1.0
C      1  0.5448890000000  0.5526780000000  0.4214470000000 1.0
C      1  0.5444220000000  0.5014260000000  0.4033420000000 1.0
C      1  0.5456050000000  0.4483150000000  0.4174780000000 1.0
C      1  0.5443530000000  0.4112340000000  0.4578050000000 1.0
C      1  0.5453740000000  0.4044280000000  0.5117790000000 1.0
C      1  0.5466020000000  0.4246740000000  0.5621230000000 1.0
C      1  0.5465280000000  0.4702750000000  0.5928070000000 1.0
C      1  0.5455740000000  0.5243560000000  0.5956730000000 1.0
C      1  0.5441890000000  0.5709570000000  0.5656990000000 1.0
C      1  0.5445360000000  0.5955110000000  0.5175520000000 1.0
C      1  0.5836790000000  0.4238200000000  0.4866940000000 1.0
C      1  0.5904700000000  0.4240150000000  0.5311740000000 1.0
C      1  0.5852200000000  0.4554200000000  0.5665920000000 1.0
C      1  0.5913050000000  0.4981220000000  0.5827280000000 1.0
C      1  0.5840100000000  0.5422330000000  0.5697980000000 1.0
C      1  0.5904000000000  0.5744000000000  0.5371650000000 1.0
C      1  0.5848490000000  0.5807960000000  0.4914040000000 1.0
C      1  0.5906990000000  0.5628030000000  0.4465980000000 1.0
C      1  0.5849380000000  0.5224020000000  0.4269470000000 1.0
C      1  0.5898670000000  0.4784340000000  0.4166750000000 1.0
C      1  0.5890590000000  0.4353430000000  0.4435880000000 1.0
C      1  0.4624680000000  0.5863090000000  0.5433900000000 1.0
C      1  0.4645780000000  0.5954770000000  0.4876350000000 1.0
C      1  0.4647350000000  0.5731360000000  0.4381910000000 1.0
C      1  0.4645700000000  0.5302580000000  0.4048690000000 1.0
C      1  0.4645140000000  0.4762920000000  0.4069840000000 1.0
C      1  0.4627600000000  0.4264260000000  0.4336970000000 1.0
C      1  0.4648200000000  0.3988640000000  0.4848320000000 1.0
C      1  0.4645570000000  0.4073300000000  0.5418350000000 1.0
C      1  0.4674080000000  0.4427250000000  0.5849930000000 1.0
C      1  0.4644530000000  0.4962890000000  0.6022600000000 1.0
C      1  0.4644810000000  0.5501320000000  0.5872840000000 1.0
C      1  0.4614640000000  0.4520810000000  0.4870350000000 1.0
C      1  0.4575440000000  0.4638960000000  0.5129580000000 1.0
C      1  0.4737960000000  0.4850450000000  0.5240750000000 1.0
C      1  0.4636720000000  0.5081410000000  0.5389120000000 1.0
C      1  0.4499100000000  0.5305880000000  0.5271210000000 1.0
C      1  0.4626610000000  0.5512480000000  0.5118460000000 1.0
C      1  0.4572790000000  0.5544320000000  0.4826460000000 1.0
C      1  0.4690370000000  0.5378620000000  0.4610670000000 1.0
C      1  0.4550920000000  0.5147450000000  0.4500730000000 1.0
C      1  0.4659030000000  0.4874800000000  0.4493250000000 1.0
C      1  0.4534280000000  0.4641650000000  0.4616780000000 1.0
C      1  0.4347950000000  0.5316610000000  0.4032950000000 1.0
C      1  0.4354240000000  0.4784640000000  0.4090920000000 1.0
C      1  0.4334970000000  0.4237240000000  0.4293230000000 1.0
C      1  0.4359970000000  0.3941090000000  0.4847390000000 1.0
C      1  0.4346900000000  0.4082900000000  0.5422550000000 1.0
C      1  0.4434030000000  0.4525640000000  0.5720510000000 1.0
C      1  0.4343670000000  0.4968550000000  0.6023030000000 1.0
C      1  0.4360710000000  0.5544670000000  0.5935490000000 1.0
C      1  0.4336870000000  0.5914560000000  0.5474270000000 1.0
C      1  0.4353760000000  0.5986090000000  0.4846510000000 1.0
C      1  0.4363710000000  0.5798860000000  0.4346660000000 1.0
C      1  0.4974340000000  0.5400540000000  0.4525530000000 1.0
C      1  0.5000980000000  0.5212400000000  0.4283570000000 1.0
C      1  0.5036920000000  0.4929310000000  0.4319050000000 1.0
C      1  0.4913510000000  0.4444950000000  0.4585340000000 1.0
C      1  0.4981070000000  0.4287710000000  0.4850790000000 1.0
C      1  0.4924850000000  0.4376580000000  0.5339840000000 1.0
C      1  0.4996170000000  0.4556740000000  0.5594510000000 1.0
C      1  0.4919120000000  0.5017100000000  0.5709680000000 1.0
C      1  0.4983860000000  0.5339020000000  0.5667880000000 1.0
C      1  0.4891920000000  0.5600690000000  0.5221410000000 1.0
C      1  0.5015920000000  0.5700720000000  0.4946440000000 1.0
C      1  0.4786880000000  0.4495930000000  0.4159550000000 1.0
C      1  0.4785010000000  0.4047220000000  0.4556790000000 1.0
C      1  0.4797270000000  0.3986580000000  0.5136820000000 1.0
C      1  0.4808150000000  0.4179280000000  0.5691330000000 1.0
C      1  0.4807630000000  0.4670760000000  0.6005640000000 1.0
C      1  0.4791700000000  0.5253390000000  0.6031350000000 1.0
C      1  0.4784530000000  0.5708680000000  0.5671490000000 1.0
C      1  0.4774170000000  0.5998930000000  0.5164520000000 1.0
C      1  0.4800820000000  0.5865070000000  0.4616430000000 1.0
C      1  0.4788740000000  0.5558170000000  0.4164040000000 1.0
C      1  0.4789680000000  0.5024230000000  0.3973730000000 1.0
C      1  0.5593230000000  0.5652370000000  0.4457390000000 1.0
C      1  0.5542590000000  0.5236350000000  0.4225150000000 1.0
C      1  0.5587100000000  0.4766450000000  0.4151080000000 1.0
C      1  0.5582840000000  0.4338610000000  0.4420120000000 1.0
C      1  0.5537780000000  0.4189720000000  0.4863080000000 1.0
C      1  0.5595660000000  0.4212560000000  0.5336590000000 1.0
C      1  0.5555910000000  0.4533420000000  0.5689780000000 1.0
C      1  0.5600220000000  0.4977400000000  0.5866320000000 1.0
C      1  0.5544230000000  0.5429980000000  0.5727090000000 1.0
C      1  0.5589360000000  0.5773640000000  0.5389190000000 1.0
C      1  0.5550330000000  0.5825820000000  0.4914150000000 1.0
C      1  0.5584480000000  0.4923830000000  0.5019910000000 1.0
C      1  0.5068450000000  0.4970100000000  0.5011080000000 1.0
C      1  0.5339080000000  0.5064010000000  0.5082600000000 1.0
C      1  0.4554660000000  0.4980500000000  0.4886060000000 1.0
C      1  0.4311200000000  0.4999550000000  0.5054060000000 1.0
C      1  0.4821540000000  0.5116210000000  0.4926700000000 1.0
END
