TITL C-862133-5440-638 427931.333567814 125000 -1076.97122191333 0 0 197 (C5) n - 1
REM
REM in /home/nfs/bkarasulu/CARBON/AIRSS/Generating-Clusters/TERSOFF/Higher-Symm/FIRE-HFTN
REM
REM
REM
REM
REM
REM ./C.cell (b20cbc046b6831c77cfcea5457e17084)
REM AIRSS Version 0.9.1 bugfix July 2018 build 013d7b7c2542+ Fri, 06 Jul 2018 19:26:36 +0100
REM compiler GCC version 9.2.1 20190827 (Red Hat 9.2.1-1)
REM options -cpp -mtune=generic -march=x86-64 -g -O0 -fpre-include=/usr/include/finclude/math-vector-fortran.h
REM seed 2067535658 -498366542 839728783 1187384056 -742418705 -222186183 580231825 899804719 -1320167955 1763619788 -1946416970 -191360908 -161124472 -2075428170 1992856812 322369006 375419653 -149861352 1417202477 -520578206 -808985160 1652628584 -874417764 896524480 1635940331 -2003345250 -995756685 838546372 -762088164 182320593 1165270487 371327236 1790222535
REM
CELL 1.54180   50.00000   50.00000   50.00000   90.00000   90.00000   90.00000
LATT -1
SFAC C  
C      1  0.4497030000000  0.5528280000000  0.4941800000000 1.0
C      1  0.4497020000000  0.5108280000000  0.4480130000000 1.0
C      1  0.4497020000000  0.4539420000000  0.4736970000000 1.0
C      1  0.4497110000000  0.4607850000000  0.5357260000000 1.0
C      1  0.4497050000000  0.5219050000000  0.5483860000000 1.0
C      1  0.5487750000000  0.5515140000000  0.5056160000000 1.0
C      1  0.5487730000000  0.5106190000000  0.5506750000000 1.0
C      1  0.5487740000000  0.4551320000000  0.5257050000000 1.0
C      1  0.5487820000000  0.4617340000000  0.4652170000000 1.0
C      1  0.5487790000000  0.5212970000000  0.4528020000000 1.0
C      1  0.5072570000000  0.5520810000000  0.5578100000000 1.0
C      1  0.5072580000000  0.5711100000000  0.4683800000000 1.0
C      1  0.5072570000000  0.4919420000000  0.4226560000000 1.0
C      1  0.5072630000000  0.4239930000000  0.4838100000000 1.0
C      1  0.5072570000000  0.4611680000000  0.5673420000000 1.0
C      1  0.4925930000000  0.5534650000000  0.4424070000000 1.0
C      1  0.4925930000000  0.5713320000000  0.5330060000000 1.0
C      1  0.4925910000000  0.4907130000000  0.5779810000000 1.0
C      1  0.4925990000000  0.4229980000000  0.5151940000000 1.0
C      1  0.4925950000000  0.4617870000000  0.4314130000000 1.0
C      1  0.5106950000000  0.5253910000000  0.4914880000000 1.0
C      1  0.5106940000000  0.4997950000000  0.4732770000000 1.0
C      1  0.5106950000000  0.4745660000000  0.4919930000000 1.0
C      1  0.5106950000000  0.4845700000000  0.5217710000000 1.0
C      1  0.5106940000000  0.5159810000000  0.5214600000000 1.0
C      1  0.4779430000000  0.5219400000000  0.5173230000000 1.0
C      1  0.4779450000000  0.4903410000000  0.5261580000000 1.0
C      1  0.4779460000000  0.4721730000000  0.4988400000000 1.0
C      1  0.4779440000000  0.4925420000000  0.4731190000000 1.0
C      1  0.4779430000000  0.5233000000000  0.4845430000000 1.0
C      1  0.4357710000000  0.4939130000000  0.4722310000000 1.0
C      1  0.4357720000000  0.4717460000000  0.4972670000000 1.0
C      1  0.4357740000000  0.4887040000000  0.5260840000000 1.0
C      1  0.4357670000000  0.5213520000000  0.5188570000000 1.0
C      1  0.4357710000000  0.5245700000000  0.4855770000000 1.0
C      1  0.5637120000000  0.4943410000000  0.5274090000000 1.0
C      1  0.5637160000000  0.4722290000000  0.5030350000000 1.0
C      1  0.5637180000000  0.4885780000000  0.4744740000000 1.0
C      1  0.5637130000000  0.5207910000000  0.4811960000000 1.0
C      1  0.5637110000000  0.5243550000000  0.5139110000000 1.0
C      1  0.5813680000000  0.5617900000000  0.5422360000000 1.0
C      1  0.5813700000000  0.5592930000000  0.4543470000000 1.0
C      1  0.5813750000000  0.4749390000000  0.4295580000000 1.0
C      1  0.5813710000000  0.4252970000000  0.5021340000000 1.0
C      1  0.5813640000000  0.4789750000000  0.5717670000000 1.0
C      1  0.4180450000000  0.5614600000000  0.4568660000000 1.0
C      1  0.4180450000000  0.5600530000000  0.5450750000000 1.0
C      1  0.4180490000000  0.4757280000000  0.5709930000000 1.0
C      1  0.4180490000000  0.4250240000000  0.4988140000000 1.0
C      1  0.4180410000000  0.4780090000000  0.4282750000000 1.0
C      1  0.4722210000000  0.5369400000000  0.5940530000000 1.0
C      1  0.4722220000000  0.6008920000000  0.4939880000000 1.0
C      1  0.4722220000000  0.5254890000000  0.4022360000000 1.0
C      1  0.4722190000000  0.4149470000000  0.4455870000000 1.0
C      1  0.4722310000000  0.4220150000000  0.5641500000000 1.0
C      1  0.5261070000000  0.5361480000000  0.4056730000000 1.0
C      1  0.5261040000000  0.6009210000000  0.5051890000000 1.0
C      1  0.5261050000000  0.5263010000000  0.5975410000000 1.0
C      1  0.5261080000000  0.4154060000000  0.5550960000000 1.0
C      1  0.5261080000000  0.4215050000000  0.4365280000000 1.0
C      1  0.4023760000000  0.5213340000000  0.4443460000000 1.0
C      1  0.4023750000000  0.4537090000000  0.4625790000000 1.0
C      1  0.4023850000000  0.4501240000000  0.5325330000000 1.0
C      1  0.4023820000000  0.5155520000000  0.5575340000000 1.0
C      1  0.4023740000000  0.5595570000000  0.5030410000000 1.0
C      1  0.5961330000000  0.5220540000000  0.5558410000000 1.0
C      1  0.5961340000000  0.4537540000000  0.5381830000000 1.0
C      1  0.5961430000000  0.4494500000000  0.4677710000000 1.0
C      1  0.5961430000000  0.5150830000000  0.4419090000000 1.0
C      1  0.5961370000000  0.5599550000000  0.4963430000000 1.0
C      1  0.4466410000000  0.4171120000000  0.5422620000000 1.0
C      1  0.4466240000000  0.5146140000000  0.5919430000000 1.0
C      1  0.4466260000000  0.5919880000000  0.5145670000000 1.0
C      1  0.4466280000000  0.5423170000000  0.4170630000000 1.0
C      1  0.4466170000000  0.4342410000000  0.4341870000000 1.0
C      1  0.5521240000000  0.4161890000000  0.4590250000000 1.0
C      1  0.5521100000000  0.5131100000000  0.4075710000000 1.0
C      1  0.5521060000000  0.5920010000000  0.4838570000000 1.0
C      1  0.5521130000000  0.5438250000000  0.5824650000000 1.0
C      1  0.5521070000000  0.4351630000000  0.5671110000000 1.0
C      1  0.5215870000000  0.5774120000000  0.5243510000000 1.0
C      1  0.5215870000000  0.5471080000000  0.4339520000000 1.0
C      1  0.5215910000000  0.4517860000000  0.4348430000000 1.0
C      1  0.5215890000000  0.4231650000000  0.5257770000000 1.0
C      1  0.5215860000000  0.5008160000000  0.5811000000000 1.0
C      1  0.4776190000000  0.5774980000000  0.4748690000000 1.0
C      1  0.4776190000000  0.5478890000000  0.5658940000000 1.0
C      1  0.4776200000000  0.4521790000000  0.5658580000000 1.0
C      1  0.4776230000000  0.4226370000000  0.4748060000000 1.0
C      1  0.4776160000000  0.5000810000000  0.4185830000000 1.0
C      1  0.4104910000000  0.4889180000000  0.5463940000000 1.0
C      1  0.4104840000000  0.5407340000000  0.5249300000000 1.0
C      1  0.4104860000000  0.5363310000000  0.4690170000000 1.0
C      1  0.4104840000000  0.4818000000000  0.4559290000000 1.0
C      1  0.4104890000000  0.4524950000000  0.5037560000000 1.0
C      1  0.5887270000000  0.4884490000000  0.4541140000000 1.0
C      1  0.5887230000000  0.5401150000000  0.4747840000000 1.0
C      1  0.5887190000000  0.5364270000000  0.5303100000000 1.0
C      1  0.5887190000000  0.4824780000000  0.5439610000000 1.0
C      1  0.5887250000000  0.4528240000000  0.4968720000000 1.0
C      1  0.5180890000000  0.5684300000000  0.5814840000000 1.0
C      1  0.5180910000000  0.5986740000000  0.4601410000000 1.0
C      1  0.5180910000000  0.4926230000000  0.3938960000000 1.0
C      1  0.5180990000000  0.3968530000000  0.4742690000000 1.0
C      1  0.5180830000000  0.4437020000000  0.5902070000000 1.0
C      1  0.4848740000000  0.5710500000000  0.4179140000000 1.0
C      1  0.4848780000000  0.6000640000000  0.5421600000000 1.0
C      1  0.4848650000000  0.4908970000000  0.6081310000000 1.0
C      1  0.4848830000000  0.3943710000000  0.5246720000000 1.0
C      1  0.4848760000000  0.4439200000000  0.4071250000000 1.0
C      1  0.6118380000000  0.5003170000000  0.5359570000000 1.0
C      1  0.6118390000000  0.5343260000000  0.5108720000000 1.0
C      1  0.6118420000000  0.5209780000000  0.4707770000000 1.0
C      1  0.6118440000000  0.4787220000000  0.4710790000000 1.0
C      1  0.6118400000000  0.4659510000000  0.5113670000000 1.0
C      1  0.3874630000000  0.4997130000000  0.4640210000000 1.0
C      1  0.3874640000000  0.5341710000000  0.4885520000000 1.0
C      1  0.3874650000000  0.5214870000000  0.5289160000000 1.0
C      1  0.3874690000000  0.4791810000000  0.5293210000000 1.0
C      1  0.3874660000000  0.4657220000000  0.4892240000000 1.0
C      1  0.4714550000000  0.4480020000000  0.5165140000000 1.0
C      1  0.4714560000000  0.4996930000000  0.5546030000000 1.0
C      1  0.4714490000000  0.5518820000000  0.5172390000000 1.0
C      1  0.4714500000000  0.5324630000000  0.4560370000000 1.0
C      1  0.4714510000000  0.4682580000000  0.4556010000000 1.0
C      1  0.5241150000000  0.4516540000000  0.4811770000000 1.0
C      1  0.5241120000000  0.5029990000000  0.4481440000000 1.0
C      1  0.5241130000000  0.5502850000000  0.4867700000000 1.0
C      1  0.5241100000000  0.5281580000000  0.5436810000000 1.0
C      1  0.5241100000000  0.4672030000000  0.5402210000000 1.0
C      1  0.5353010000000  0.4198080000000  0.4061230000000 1.0
C      1  0.5353040000000  0.3859720000000  0.5473060000000 1.0
C      1  0.5352960000000  0.5097950000000  0.6231300000000 1.0
C      1  0.5352980000000  0.6201590000000  0.5287920000000 1.0
C      1  0.5353010000000  0.5645390000000  0.3946680000000 1.0
C      1  0.4632320000000  0.4203750000000  0.5944560000000 1.0
C      1  0.4632250000000  0.3856170000000  0.4533850000000 1.0
C      1  0.4632210000000  0.5090040000000  0.3767540000000 1.0
C      1  0.4632220000000  0.6200370000000  0.4704390000000 1.0
C      1  0.4632190000000  0.5652520000000  0.6049810000000 1.0
C      1  0.5386220000000  0.4801910000000  0.5934810000000 1.0
C      1  0.5386260000000  0.5828170000000  0.5477900000000 1.0
C      1  0.5386300000000  0.5710670000000  0.4360570000000 1.0
C      1  0.5386350000000  0.4611880000000  0.4127050000000 1.0
C      1  0.5386280000000  0.4050180000000  0.5099880000000 1.0
C      1  0.4610670000000  0.4785180000000  0.4068700000000 1.0
C      1  0.4610700000000  0.5819760000000  0.4507440000000 1.0
C      1  0.4610700000000  0.5722160000000  0.5626950000000 1.0
C      1  0.4610740000000  0.4627350000000  0.5880090000000 1.0
C      1  0.4610740000000  0.4048330000000  0.4916920000000 1.0
C      1  0.4288340000000  0.4372880000000  0.4601200000000 1.0
C      1  0.4288540000000  0.4427210000000  0.5473760000000 1.0
C      1  0.4288460000000  0.5273890000000  0.5691650000000 1.0
C      1  0.4288350000000  0.5742820000000  0.4953760000000 1.0
C      1  0.4288380000000  0.5185950000000  0.4279760000000 1.0
C      1  0.5684300000000  0.4391270000000  0.5408010000000 1.0
C      1  0.5684440000000  0.4424360000000  0.4546610000000 1.0
C      1  0.5684390000000  0.5253770000000  0.4311840000000 1.0
C      1  0.5684340000000  0.5733350000000  0.5028190000000 1.0
C      1  0.5684300000000  0.5200260000000  0.5705630000000 1.0
C      1  0.5364080000000  0.3751690000000  0.5176550000000 1.0
C      1  0.5364010000000  0.4782590000000  0.6242380000000 1.0
C      1  0.5364050000000  0.6114720000000  0.5591300000000 1.0
C      1  0.5364180000000  0.5907030000000  0.4123050000000 1.0
C      1  0.5364200000000  0.4446670000000  0.3866910000000 1.0
C      1  0.4619950000000  0.3753670000000  0.4827900000000 1.0
C      1  0.4619920000000  0.4778690000000  0.3760950000000 1.0
C      1  0.4619920000000  0.6110460000000  0.4406230000000 1.0
C      1  0.4619900000000  0.5908270000000  0.5872140000000 1.0
C      1  0.4620080000000  0.4451770000000  0.6132930000000 1.0
C      1  0.5199750000000  0.6084480000000  0.4321680000000 1.0
C      1  0.5199720000000  0.4690390000000  0.3759560000000 1.0
C      1  0.5199770000000  0.3724980000000  0.4911460000000 1.0
C      1  0.5199610000000  0.4522270000000  0.6185860000000 1.0
C      1  0.5199680000000  0.5980540000000  0.5821440000000 1.0
C      1  0.4810150000000  0.6083430000000  0.5703010000000 1.0
C      1  0.4810190000000  0.4666970000000  0.6247150000000 1.0
C      1  0.4810210000000  0.3711340000000  0.5067680000000 1.0
C      1  0.4810170000000  0.4537570000000  0.3794890000000 1.0
C      1  0.4810150000000  0.6003730000000  0.4187360000000 1.0
C      1  0.5577590000000  0.5754400000000  0.4566360000000 1.0
C      1  0.5577650000000  0.4821070000000  0.4149050000000 1.0
C      1  0.5577660000000  0.4135770000000  0.4907800000000 1.0
C      1  0.5577560000000  0.4645610000000  0.5794050000000 1.0
C      1  0.5577600000000  0.5646010000000  0.5583060000000 1.0
C      1  0.4416590000000  0.5761070000000  0.5421660000000 1.0
C      1  0.4416600000000  0.4834580000000  0.5853680000000 1.0
C      1  0.4416680000000  0.4137480000000  0.5105960000000 1.0
C      1  0.4416530000000  0.4633070000000  0.4211900000000 1.0
C      1  0.4416590000000  0.5636550000000  0.4406980000000 1.0
C      1  0.4988150000000  0.5349590000000  0.6091240000000 1.0
C      1  0.4988140000000  0.6146120000000  0.5005350000000 1.0
C      1  0.4988230000000  0.5359370000000  0.3912060000000 1.0
C      1  0.4988290000000  0.4070770000000  0.5669310000000 1.0
C      1  0.4987970000000  0.4077260000000  0.4321960000000 1.0
C      1  0.3828750000000  0.5000550000000  0.5000060000000 1.0
C      1  0.6165690000000  0.5000580000000  0.5000110000000 1.0
END
