TITL C-862133-5440-945 0.314884090920649 125000 -774.776120728169 0 0 154 (C1) n - 1
REM
REM in /home/nfs/bkarasulu/CARBON/AIRSS/Generating-Clusters/TERSOFF/Higher-Symm/FIRE-HFTN
REM
REM
REM
REM
REM
REM ./C.cell (b20cbc046b6831c77cfcea5457e17084)
REM AIRSS Version 0.9.1 bugfix July 2018 build 013d7b7c2542+ Fri, 06 Jul 2018 19:26:36 +0100
REM compiler GCC version 9.2.1 20190827 (Red Hat 9.2.1-1)
REM options -cpp -mtune=generic -march=x86-64 -g -O0 -fpre-include=/usr/include/finclude/math-vector-fortran.h
REM seed 1791928211 1143958958 986478140 -449636677 724798234 2002782168 1541638418 -899025495 -750962129 1351600116 1545751115 281514921 574906847 -417599517 -1335552459 1421724848 509942439 169961073 1429116495 -1109619788 -484865665 1745427853 -1427001769 1191769508 -1226983688 273688747 -868487641 -2059425208 1015367577 1252769239 -1155286450 -1305266923 -1259015751
REM
CELL 1.54180   50.00000   50.00000   50.00000   90.00000   90.00000   90.00000
LATT -1
SFAC C  
C      1  0.6178400000000  0.4582380000000  0.5149930000000 1.0
C      1  0.4074720000000  0.4188540000000  0.5140170000000 1.0
C      1  0.4771390000000  0.6206000000000  0.5151050000000 1.0
C      1  0.6172110000000  0.4586140000000  0.4860170000000 1.0
C      1  0.4071420000000  0.4177240000000  0.4850620000000 1.0
C      1  0.4772580000000  0.6197750000000  0.4861790000000 1.0
C      1  0.4561850000000  0.4110090000000  0.5139660000000 1.0
C      1  0.4421920000000  0.5853560000000  0.5161300000000 1.0
C      1  0.6044530000000  0.5059810000000  0.5160890000000 1.0
C      1  0.4556500000000  0.4075980000000  0.4846190000000 1.0
C      1  0.4439560000000  0.5831540000000  0.4867950000000 1.0
C      1  0.6020400000000  0.5056620000000  0.4865720000000 1.0
C      1  0.4598510000000  0.6015260000000  0.4717630000000 1.0
C      1  0.6101650000000  0.4827990000000  0.4714720000000 1.0
C      1  0.4314070000000  0.4122410000000  0.4699120000000 1.0
C      1  0.4594400000000  0.6033880000000  0.5304780000000 1.0
C      1  0.6118370000000  0.4821330000000  0.5305150000000 1.0
C      1  0.4320910000000  0.4144010000000  0.5288270000000 1.0
C      1  0.5387630000000  0.4166010000000  0.5492860000000 1.0
C      1  0.4060050000000  0.5080530000000  0.5496570000000 1.0
C      1  0.5536920000000  0.5744660000000  0.5500250000000 1.0
C      1  0.5392940000000  0.4158870000000  0.4505140000000 1.0
C      1  0.4064430000000  0.5076130000000  0.4509170000000 1.0
C      1  0.5535220000000  0.5745910000000  0.4500650000000 1.0
C      1  0.4810780000000  0.5345930000000  0.4822920000000 1.0
C      1  0.5402950000000  0.4985290000000  0.4816580000000 1.0
C      1  0.4785570000000  0.4671840000000  0.4828870000000 1.0
C      1  0.4799590000000  0.5334110000000  0.5172730000000 1.0
C      1  0.5398790000000  0.4988020000000  0.5176600000000 1.0
C      1  0.4774950000000  0.4694750000000  0.5174420000000 1.0
C      1  0.5445480000000  0.4548790000000  0.4738930000000 1.0
C      1  0.4381440000000  0.4840780000000  0.4743870000000 1.0
C      1  0.5200320000000  0.5622800000000  0.4733290000000 1.0
C      1  0.5439630000000  0.4557040000000  0.5257130000000 1.0
C      1  0.4377370000000  0.4842420000000  0.5266510000000 1.0
C      1  0.5203670000000  0.5623080000000  0.5267020000000 1.0
C      1  0.4494350000000  0.5529650000000  0.5154760000000 1.0
C      1  0.5725470000000  0.5150930000000  0.5150110000000 1.0
C      1  0.4786820000000  0.4331640000000  0.5151920000000 1.0
C      1  0.4498190000000  0.5524840000000  0.4845790000000 1.0
C      1  0.5723500000000  0.5152730000000  0.4844570000000 1.0
C      1  0.4789330000000  0.4310050000000  0.4848840000000 1.0
C      1  0.3981950000000  0.4958190000000  0.5185190000000 1.0
C      1  0.5450730000000  0.5879190000000  0.5184590000000 1.0
C      1  0.5532210000000  0.4152530000000  0.5181290000000 1.0
C      1  0.3983890000000  0.4957450000000  0.4820350000000 1.0
C      1  0.5449990000000  0.5878780000000  0.4817240000000 1.0
C      1  0.5538050000000  0.4146740000000  0.4816430000000 1.0
C      1  0.5902660000000  0.5196220000000  0.4467330000000 1.0
C      1  0.4745710000000  0.4139130000000  0.4467840000000 1.0
C      1  0.4377310000000  0.5668010000000  0.4469980000000 1.0
C      1  0.5898820000000  0.5198580000000  0.5529540000000 1.0
C      1  0.4738270000000  0.4147250000000  0.5526090000000 1.0
C      1  0.4376750000000  0.5665710000000  0.5534210000000 1.0
C      1  0.5770870000000  0.4540040000000  0.4473940000000 1.0
C      1  0.4213100000000  0.4561270000000  0.4479650000000 1.0
C      1  0.5006500000000  0.5879570000000  0.4457490000000 1.0
C      1  0.5764260000000  0.4543200000000  0.5522850000000 1.0
C      1  0.4202110000000  0.4564400000000  0.5527760000000 1.0
C      1  0.5007560000000  0.5878670000000  0.5544130000000 1.0
C      1  0.5132040000000  0.5210010000000  0.4711930000000 1.0
C      1  0.5107190000000  0.4792590000000  0.4715390000000 1.0
C      1  0.4758460000000  0.5021390000000  0.4733010000000 1.0
C      1  0.5124710000000  0.5211620000000  0.5272340000000 1.0
C      1  0.5097060000000  0.4796310000000  0.5271060000000 1.0
C      1  0.4750030000000  0.5027510000000  0.5314210000000 1.0
C      1  0.4331120000000  0.5054740000000  0.4386100000000 1.0
C      1  0.5390130000000  0.5525440000000  0.4371650000000 1.0
C      1  0.5277850000000  0.4403620000000  0.4382440000000 1.0
C      1  0.4324830000000  0.5057260000000  0.5623480000000 1.0
C      1  0.5390510000000  0.5525420000000  0.5630050000000 1.0
C      1  0.5273400000000  0.4410510000000  0.5613780000000 1.0
C      1  0.4608790000000  0.5514310000000  0.5849850000000 1.0
C      1  0.5646990000000  0.5071150000000  0.5854260000000 1.0
C      1  0.4760430000000  0.4416770000000  0.5847340000000 1.0
C      1  0.4606140000000  0.5508470000000  0.4153160000000 1.0
C      1  0.5649230000000  0.5068430000000  0.4139030000000 1.0
C      1  0.4762490000000  0.4415280000000  0.4152060000000 1.0
C      1  0.4545950000000  0.5296430000000  0.4371760000000 1.0
C      1  0.5499100000000  0.5225280000000  0.4355900000000 1.0
C      1  0.4969380000000  0.4481000000000  0.4371240000000 1.0
C      1  0.4544120000000  0.5295730000000  0.5640020000000 1.0
C      1  0.5494640000000  0.5226500000000  0.5638870000000 1.0
C      1  0.4965430000000  0.4485580000000  0.5627260000000 1.0
C      1  0.4683000000000  0.5834960000000  0.4497120000000 1.0
C      1  0.5898000000000  0.4845630000000  0.4496230000000 1.0
C      1  0.4434600000000  0.4309170000000  0.4495770000000 1.0
C      1  0.4684510000000  0.5831460000000  0.5507690000000 1.0
C      1  0.5891330000000  0.4848370000000  0.5503830000000 1.0
C      1  0.4429990000000  0.4321210000000  0.5503710000000 1.0
C      1  0.4374300000000  0.5127260000000  0.5156380000000 1.0
C      1  0.5438910000000  0.5457480000000  0.5148500000000 1.0
C      1  0.5199380000000  0.4409330000000  0.5147900000000 1.0
C      1  0.4370860000000  0.5124810000000  0.4853030000000 1.0
C      1  0.5437360000000  0.5459470000000  0.4851180000000 1.0
C      1  0.5198230000000  0.4405920000000  0.4847080000000 1.0
C      1  0.4567330000000  0.4635890000000  0.5905640000000 1.0
C      1  0.4903460000000  0.5541410000000  0.5890910000000 1.0
C      1  0.5523080000000  0.4804600000000  0.5900810000000 1.0
C      1  0.4567070000000  0.4634300000000  0.4102120000000 1.0
C      1  0.4900930000000  0.5538460000000  0.4110060000000 1.0
C      1  0.5524140000000  0.4801720000000  0.4093960000000 1.0
C      1  0.5078280000000  0.5577700000000  0.4395030000000 1.0
C      1  0.5482160000000  0.4637860000000  0.4388400000000 1.0
C      1  0.4440840000000  0.4762470000000  0.4394240000000 1.0
C      1  0.5078600000000  0.5576810000000  0.5603510000000 1.0
C      1  0.5477010000000  0.4643440000000  0.5607850000000 1.0
C      1  0.4430520000000  0.4764280000000  0.5617820000000 1.0
C      1  0.5008270000000  0.4196900000000  0.5315630000000 1.0
C      1  0.4270580000000  0.5397990000000  0.5319870000000 1.0
C      1  0.5725010000000  0.5420880000000  0.5310130000000 1.0
C      1  0.5014300000000  0.4184520000000  0.4684740000000 1.0
C      1  0.4272200000000  0.5397200000000  0.4682640000000 1.0
C      1  0.5726010000000  0.5421070000000  0.4686150000000 1.0
C      1  0.5026950000000  0.4754200000000  0.4058660000000 1.0
C      1  0.4748920000000  0.5085410000000  0.4071330000000 1.0
C      1  0.5201660000000  0.5153180000000  0.4068520000000 1.0
C      1  0.5026350000000  0.4756450000000  0.5941180000000 1.0
C      1  0.4741590000000  0.5093520000000  0.5951430000000 1.0
C      1  0.5197250000000  0.5152910000000  0.5925780000000 1.0
C      1  0.4684710000000  0.4566940000000  0.4535820000000 1.0
C      1  0.4777440000000  0.5489210000000  0.4535840000000 1.0
C      1  0.5551370000000  0.4941370000000  0.4527150000000 1.0
C      1  0.4678430000000  0.4580770000000  0.5469580000000 1.0
C      1  0.4772210000000  0.5483530000000  0.5464410000000 1.0
C      1  0.5545210000000  0.4945390000000  0.5466710000000 1.0
C      1  0.5787790000000  0.4327860000000  0.5308530000000 1.0
C      1  0.4006750000000  0.4649850000000  0.5310580000000 1.0
C      1  0.5193270000000  0.6032020000000  0.5361200000000 1.0
C      1  0.5794980000000  0.4321850000000  0.4686760000000 1.0
C      1  0.4012690000000  0.4646000000000  0.4694320000000 1.0
C      1  0.5193260000000  0.6032050000000  0.4640110000000 1.0
C      1  0.3998100000000  0.5317490000000  0.4846150000000 1.0
C      1  0.5771150000000  0.5713650000000  0.4846060000000 1.0
C      1  0.5217180000000  0.3986660000000  0.4845290000000 1.0
C      1  0.3999640000000  0.5316530000000  0.5154750000000 1.0
C      1  0.5771380000000  0.5713410000000  0.5153720000000 1.0
C      1  0.5211160000000  0.3989890000000  0.5155180000000 1.0
C      1  0.5193380000000  0.5119380000000  0.4393960000000 1.0
C      1  0.5026100000000  0.4823380000000  0.4387260000000 1.0
C      1  0.4757250000000  0.5035980000000  0.4402170000000 1.0
C      1  0.5187370000000  0.5122810000000  0.5596960000000 1.0
C      1  0.5019750000000  0.4826900000000  0.5610850000000 1.0
C      1  0.4747620000000  0.5036050000000  0.5630060000000 1.0
C      1  0.5272250000000  0.4879960000000  0.3950220000000 1.0
C      1  0.4747410000000  0.4818160000000  0.3947420000000 1.0
C      1  0.4955950000000  0.5279340000000  0.3982520000000 1.0
C      1  0.5272970000000  0.4882260000000  0.6045970000000 1.0
C      1  0.4750820000000  0.4818700000000  0.6060660000000 1.0
C      1  0.4958940000000  0.5284390000000  0.6023830000000 1.0
C      1  0.5587300000000  0.4649380000000  0.4998350000000 1.0
C      1  0.5040300000000  0.5645800000000  0.5003710000000 1.0
C      1  0.4391160000000  0.4669410000000  0.5005780000000 1.0
C      1  0.5021980000000  0.5009060000000  0.4990100000000 1.0
END
