TITL C-862130-1496-485 9.98287094684455e-05 125000 -252.344787184778 0 0 53 (D3) n - 1
REM
REM in /home/nfs/bkarasulu/CARBON/AIRSS/Generating-Clusters/TERSOFF/Higher-Symm/FIRE-HFTN
REM
REM
REM
REM
REM
REM ./C.cell (b20cbc046b6831c77cfcea5457e17084)
REM AIRSS Version 0.9.1 bugfix July 2018 build 013d7b7c2542+ Fri, 06 Jul 2018 19:26:36 +0100
REM compiler GCC version 9.2.1 20190827 (Red Hat 9.2.1-1)
REM options -cpp -mtune=generic -march=x86-64 -g -O0 -fpre-include=/usr/include/finclude/math-vector-fortran.h
REM seed -1803583807 -1032734157 252336089 -1310683983 -1013142731 77509223 -1846210336 -1150876092 -74620550 805423614 1850083533 994470486 1288266031 1312671257 1226057217 108006127 1758358863 37411334 1969889830 990523089 -842969254 -763408452 726838366 -27393053 1964051345 -1414421891 -3160324 -1241586685 1618378127 -2097129095 -1777947434 1449021870 -1607526557
REM
CELL 1.54180   50.00000   50.00000   50.00000   90.00000   90.00000   90.00000
LATT -1
SFAC C  
C      1  0.4780020000000  0.4668570000000  0.5260120000000 1.0
C      1  0.4780020000000  0.4934470000000  0.4575240000000 1.0
C      1  0.4780020000000  0.5394650000000  0.5147960000000 1.0
C      1  0.5251430000000  0.5329890000000  0.5260120000000 1.0
C      1  0.5251430000000  0.5063990000000  0.4575240000000 1.0
C      1  0.5251430000000  0.4603810000000  0.5147960000000 1.0
C      1  0.5569930000000  0.5182000000000  0.5232440000000 1.0
C      1  0.5569930000000  0.4701730000000  0.5033720000000 1.0
C      1  0.5569930000000  0.5113960000000  0.4717160000000 1.0
C      1  0.4461520000000  0.4816460000000  0.5232440000000 1.0
C      1  0.4461520000000  0.5296730000000  0.5033720000000 1.0
C      1  0.4461520000000  0.4884500000000  0.4717160000000 1.0
C      1  0.4787600000000  0.4732070000000  0.5618350000000 1.0
C      1  0.4787600000000  0.4592490000000  0.4451120000000 1.0
C      1  0.4787600000000  0.5673130000000  0.4913850000000 1.0
C      1  0.5243840000000  0.5266380000000  0.5618350000000 1.0
C      1  0.5243840000000  0.5405970000000  0.4451120000000 1.0
C      1  0.5243840000000  0.4325330000000  0.4913850000000 1.0
C      1  0.4701230000000  0.5142680000000  0.5625430000000 1.0
C      1  0.4701230000000  0.4381050000000  0.4803180000000 1.0
C      1  0.4701230000000  0.5473960000000  0.4554710000000 1.0
C      1  0.5330220000000  0.4855770000000  0.5625430000000 1.0
C      1  0.5330220000000  0.5617410000000  0.4803180000000 1.0
C      1  0.5330220000000  0.4524500000000  0.4554710000000 1.0
C      1  0.4663910000000  0.5218250000000  0.4414290000000 1.0
C      1  0.4663910000000  0.5392140000000  0.5474190000000 1.0
C      1  0.4663910000000  0.4387300000000  0.5094840000000 1.0
C      1  0.5367530000000  0.4780210000000  0.4414290000000 1.0
C      1  0.5367530000000  0.4606310000000  0.5474190000000 1.0
C      1  0.5367530000000  0.5611160000000  0.5094840000000 1.0
C      1  0.4519940000000  0.5521370000000  0.4806290000000 1.0
C      1  0.4519940000000  0.4901100000000  0.5540710000000 1.0
C      1  0.4519940000000  0.4575210000000  0.4636330000000 1.0
C      1  0.5511500000000  0.4477090000000  0.4806280000000 1.0
C      1  0.5511500000000  0.5097350000000  0.5540710000000 1.0
C      1  0.5511500000000  0.5423250000000  0.4636330000000 1.0
C      1  0.5047110000000  0.5350200000000  0.4960050000000 1.0
C      1  0.5047110000000  0.4853530000000  0.5315580000000 1.0
C      1  0.5047110000000  0.4793960000000  0.4707690000000 1.0
C      1  0.4984340000000  0.4648260000000  0.4960050000000 1.0
C      1  0.4984340000000  0.5144930000000  0.5315580000000 1.0
C      1  0.4984340000000  0.5204500000000  0.4707690000000 1.0
C      1  0.5635020000000  0.4585470000000  0.5317430000000 1.0
C      1  0.5635020000000  0.4926390000000  0.4474620000000 1.0
C      1  0.5635020000000  0.5485820000000  0.5191270000000 1.0
C      1  0.4396420000000  0.5412990000000  0.5317430000000 1.0
C      1  0.4396420000000  0.5072060000000  0.4474620000000 1.0
C      1  0.4396420000000  0.4512640000000  0.5191270000000 1.0
C      1  0.5015720000000  0.4381810000000  0.4637970000000 1.0
C      1  0.5015720000000  0.5616650000000  0.4637970000000 1.0
C      1  0.5015720000000  0.4999230000000  0.5707370000000 1.0
C      1  0.5604440000000  0.4999230000000  0.4994440000000 1.0
C      1  0.4427000000000  0.4999230000000  0.4994440000000 1.0
END
