TITL C-862507-1800-75 0.00185478600703508 125000 -382.489747320142 0 0 67 (C1) n - 1
REM
REM in /home/nfs/bkarasulu/CARBON/AIRSS/Generating-Clusters/TERSOFF/Higher-Symm/FIRE-HFTN
REM
REM
REM
REM
REM
REM ./C.cell (b20cbc046b6831c77cfcea5457e17084)
REM AIRSS Version 0.9.1 bugfix July 2018 build 013d7b7c2542+ Fri, 06 Jul 2018 19:26:36 +0100
REM compiler GCC version 9.2.1 20190827 (Red Hat 9.2.1-1)
REM options -cpp -mtune=generic -march=x86-64 -g -O0 -fpre-include=/usr/include/finclude/math-vector-fortran.h
REM seed -1972514230 357826508 1157708668 -1735143933 -276204018 -1108792357 164572909 -178750335 412181486 -1519112909 193493052 430286581 -1336990704 -1309232818 346247861 69439545 1949025630 812971524 -1004981626 -1989638754 542289190 -243769590 -1857723375 181625508 -1839984160 2137669127 153992198 197003336 370826693 -384033723 -1372589620 -31477284 -1774497496
REM
CELL 1.54180   50.00000   50.00000   50.00000   90.00000   90.00000   90.00000
LATT -1
SFAC C  
C      1  0.4211400000000  0.5149590000000  0.5198080000000 1.0
C      1  0.4213050000000  0.4857370000000  0.5197680000000 1.0
C      1  0.5668370000000  0.5164520000000  0.4705410000000 1.0
C      1  0.5675770000000  0.4827570000000  0.4696590000000 1.0
C      1  0.4837410000000  0.4704200000000  0.5603040000000 1.0
C      1  0.4819160000000  0.5326080000000  0.5647170000000 1.0
C      1  0.5248230000000  0.4502840000000  0.5101920000000 1.0
C      1  0.5228030000000  0.5474030000000  0.5117690000000 1.0
C      1  0.5279520000000  0.5632420000000  0.5503160000000 1.0
C      1  0.5291690000000  0.4418630000000  0.5510980000000 1.0
C      1  0.5592470000000  0.5365330000000  0.4921860000000 1.0
C      1  0.5623370000000  0.4622410000000  0.4916390000000 1.0
C      1  0.4561340000000  0.4854800000000  0.5631680000000 1.0
C      1  0.4553020000000  0.5159660000000  0.5634370000000 1.0
C      1  0.5274880000000  0.4807750000000  0.5058430000000 1.0
C      1  0.5310910000000  0.5129740000000  0.5125650000000 1.0
C      1  0.5497920000000  0.5226670000000  0.4440220000000 1.0
C      1  0.5505800000000  0.4770630000000  0.4423910000000 1.0
C      1  0.4932910000000  0.5253870000000  0.4846230000000 1.0
C      1  0.4895540000000  0.4798350000000  0.4823560000000 1.0
C      1  0.5221560000000  0.5363760000000  0.4413470000000 1.0
C      1  0.5220820000000  0.4639270000000  0.4374300000000 1.0
C      1  0.4379440000000  0.5279340000000  0.5423820000000 1.0
C      1  0.4383020000000  0.4733770000000  0.5426140000000 1.0
C      1  0.4995550000000  0.5165920000000  0.4357450000000 1.0
C      1  0.4989400000000  0.4848270000000  0.4333590000000 1.0
C      1  0.4805820000000  0.5198570000000  0.5137660000000 1.0
C      1  0.4793110000000  0.4862200000000  0.5113060000000 1.0
C      1  0.4572470000000  0.5373650000000  0.5218850000000 1.0
C      1  0.4582460000000  0.4658370000000  0.5215920000000 1.0
C      1  0.4626820000000  0.5598470000000  0.4518860000000 1.0
C      1  0.4631950000000  0.4416410000000  0.4510650000000 1.0
C      1  0.4864920000000  0.5661990000000  0.4694360000000 1.0
C      1  0.4865480000000  0.4350550000000  0.4690610000000 1.0
C      1  0.4270960000000  0.4700700000000  0.4937910000000 1.0
C      1  0.4265960000000  0.5306060000000  0.4940160000000 1.0
C      1  0.4946850000000  0.5600140000000  0.5501540000000 1.0
C      1  0.4964990000000  0.4425840000000  0.5496500000000 1.0
C      1  0.4989590000000  0.5188220000000  0.5433000000000 1.0
C      1  0.4977730000000  0.4864710000000  0.5391860000000 1.0
C      1  0.5672410000000  0.5325420000000  0.5211280000000 1.0
C      1  0.5676210000000  0.4693910000000  0.5208890000000 1.0
C      1  0.4972770000000  0.5579620000000  0.5195160000000 1.0
C      1  0.4994080000000  0.4389520000000  0.5186600000000 1.0
C      1  0.5211730000000  0.5173220000000  0.4826660000000 1.0
C      1  0.5181660000000  0.4757950000000  0.4775030000000 1.0
C      1  0.5459120000000  0.4663070000000  0.5427570000000 1.0
C      1  0.5477220000000  0.5393140000000  0.5445170000000 1.0
C      1  0.4530450000000  0.5303810000000  0.4519300000000 1.0
C      1  0.4513350000000  0.4703320000000  0.4496390000000 1.0
C      1  0.5162110000000  0.5567610000000  0.4630420000000 1.0
C      1  0.5160680000000  0.4457840000000  0.4633700000000 1.0
C      1  0.5276440000000  0.4884360000000  0.5470270000000 1.0
C      1  0.5308380000000  0.5175990000000  0.5542660000000 1.0
C      1  0.4771730000000  0.5654780000000  0.4978900000000 1.0
C      1  0.4779280000000  0.4347730000000  0.4974470000000 1.0
C      1  0.4808290000000  0.5224540000000  0.4577930000000 1.0
C      1  0.4780470000000  0.4807130000000  0.4551150000000 1.0
C      1  0.5908850000000  0.4863660000000  0.5270260000000 1.0
C      1  0.5907360000000  0.5157990000000  0.5270120000000 1.0
C      1  0.4328550000000  0.5160690000000  0.4690170000000 1.0
C      1  0.4323030000000  0.4847200000000  0.4685590000000 1.0
C      1  0.4467410000000  0.5567380000000  0.5013070000000 1.0
C      1  0.4489160000000  0.4450200000000  0.5021450000000 1.0
C      1  0.5398890000000  0.4403140000000  0.4857670000000 1.0
C      1  0.5356800000000  0.5565910000000  0.4865430000000 1.0
C      1  0.5305370000000  0.4990810000000  0.4586670000000 1.0
END
