TITL C-862127-1500-616 -0.0130117424006564 125000 -563.180923386888 0 0 106 (C2) n - 1
REM
REM in /home/nfs/bkarasulu/CARBON/AIRSS/Generating-Clusters/TERSOFF/Higher-Symm/FIRE-HFTN
REM
REM
REM
REM
REM
REM ./C.cell (b20cbc046b6831c77cfcea5457e17084)
REM AIRSS Version 0.9.1 bugfix July 2018 build 013d7b7c2542+ Fri, 06 Jul 2018 19:26:36 +0100
REM compiler GCC version 9.2.1 20190827 (Red Hat 9.2.1-1)
REM options -cpp -mtune=generic -march=x86-64 -g -O0 -fpre-include=/usr/include/finclude/math-vector-fortran.h
REM seed -1638203870 -240763857 -1628185648 1128401694 1865151250 1782831096 -1733691124 774101360 -411726375 -1890094723 -174160249 -1474860393 -1624471013 353651638 -240612744 -1941266933 27636443 867364289 200607440 910975750 -547053409 -678286385 565490379 1336061986 -2038613426 1897873415 1908125246 -1429098490 -1661359289 1414735994 -1674202817 1395078936 -2061979176
REM
CELL 1.54180   50.00000   50.00000   50.00000   90.00000   90.00000   90.00000
LATT -1
SFAC C  
C      1  0.4703430000000  0.4196730000000  0.4519270000000 1.0
C      1  0.5296570000000  0.4196730000000  0.5480730000000 1.0
C      1  0.4706970000000  0.5818470000000  0.4525940000000 1.0
C      1  0.5293030000000  0.5818470000000  0.5474060000000 1.0
C      1  0.4259060000000  0.5493440000000  0.4476510000000 1.0
C      1  0.5740940000000  0.5493440000000  0.5523490000000 1.0
C      1  0.4275030000000  0.4577840000000  0.4428820000000 1.0
C      1  0.5724970000000  0.4577840000000  0.5571180000000 1.0
C      1  0.5234860000000  0.5742850000000  0.4424970000000 1.0
C      1  0.4765140000000  0.5742850000000  0.5575030000000 1.0
C      1  0.5246220000000  0.4259510000000  0.4446370000000 1.0
C      1  0.4753780000000  0.4259510000000  0.5553630000000 1.0
C      1  0.5900160000000  0.4865350000000  0.5117470000000 1.0
C      1  0.4099840000000  0.4865350000000  0.4882530000000 1.0
C      1  0.5902790000000  0.5170720000000  0.5097540000000 1.0
C      1  0.4097210000000  0.5170720000000  0.4902460000000 1.0
C      1  0.5039330000000  0.4335480000000  0.5369340000000 1.0
C      1  0.4960670000000  0.4335480000000  0.4630660000000 1.0
C      1  0.5043230000000  0.5648610000000  0.5379380000000 1.0
C      1  0.4956770000000  0.5648610000000  0.4620620000000 1.0
C      1  0.5397520000000  0.5566730000000  0.4625810000000 1.0
C      1  0.4602480000000  0.5566730000000  0.5374190000000 1.0
C      1  0.5418640000000  0.4433010000000  0.4643710000000 1.0
C      1  0.4581360000000  0.4433010000000  0.5356290000000 1.0
C      1  0.5409730000000  0.5701830000000  0.5181300000000 1.0
C      1  0.4590270000000  0.5701830000000  0.4818700000000 1.0
C      1  0.5431300000000  0.4319070000000  0.5212470000000 1.0
C      1  0.4568700000000  0.4319070000000  0.4787530000000 1.0
C      1  0.5084560000000  0.5150680000000  0.4640440000000 1.0
C      1  0.4915440000000  0.5150680000000  0.5359560000000 1.0
C      1  0.5096470000000  0.4838820000000  0.4645940000000 1.0
C      1  0.4903530000000  0.4838820000000  0.5354060000000 1.0
C      1  0.5488770000000  0.5226000000000  0.5245470000000 1.0
C      1  0.4511230000000  0.5226000000000  0.4754530000000 1.0
C      1  0.5477390000000  0.4796680000000  0.5266360000000 1.0
C      1  0.4522610000000  0.4796680000000  0.4733640000000 1.0
C      1  0.4390670000000  0.4864910000000  0.5511710000000 1.0
C      1  0.5609330000000  0.4864910000000  0.4488290000000 1.0
C      1  0.4398400000000  0.5143050000000  0.5520160000000 1.0
C      1  0.5601600000000  0.5143050000000  0.4479840000000 1.0
C      1  0.5692080000000  0.5261210000000  0.4880290000000 1.0
C      1  0.4307920000000  0.5261210000000  0.5119710000000 1.0
C      1  0.5692810000000  0.4751140000000  0.4909350000000 1.0
C      1  0.4307190000000  0.4751140000000  0.5090650000000 1.0
C      1  0.4939790000000  0.4468330000000  0.5755120000000 1.0
C      1  0.5060210000000  0.4468330000000  0.4244880000000 1.0
C      1  0.4954090000000  0.5527970000000  0.5771450000000 1.0
C      1  0.5045910000000  0.5527970000000  0.4228550000000 1.0
C      1  0.4991130000000  0.4085740000000  0.4851910000000 1.0
C      1  0.5008870000000  0.4085740000000  0.5148090000000 1.0
C      1  0.4986050000000  0.5897950000000  0.4851320000000 1.0
C      1  0.5013950000000  0.5897950000000  0.5148680000000 1.0
C      1  0.4297420000000  0.4511010000000  0.5261340000000 1.0
C      1  0.5702580000000  0.4511010000000  0.4738660000000 1.0
C      1  0.4313800000000  0.5502730000000  0.5289400000000 1.0
C      1  0.5686200000000  0.5502730000000  0.4710600000000 1.0
C      1  0.5387110000000  0.4669840000000  0.5656410000000 1.0
C      1  0.4612890000000  0.4669840000000  0.4343590000000 1.0
C      1  0.5431470000000  0.5362420000000  0.5653300000000 1.0
C      1  0.4568530000000  0.5362420000000  0.4346700000000 1.0
C      1  0.5193760000000  0.5994600000000  0.4632610000000 1.0
C      1  0.4806240000000  0.5994600000000  0.5367390000000 1.0
C      1  0.5209440000000  0.3997790000000  0.4641340000000 1.0
C      1  0.4790560000000  0.3997790000000  0.5358660000000 1.0
C      1  0.4603600000000  0.4855630000000  0.5006780000000 1.0
C      1  0.5396400000000  0.4855630000000  0.4993220000000 1.0
C      1  0.4602880000000  0.5150360000000  0.5020300000000 1.0
C      1  0.5397120000000  0.5150360000000  0.4979700000000 1.0
C      1  0.4743270000000  0.5618470000000  0.4259040000000 1.0
C      1  0.5256730000000  0.5618470000000  0.5740960000000 1.0
C      1  0.4756700000000  0.4393520000000  0.4264010000000 1.0
C      1  0.5243300000000  0.4393520000000  0.5735990000000 1.0
C      1  0.5277290000000  0.4416500000000  0.4934750000000 1.0
C      1  0.4722710000000  0.4416500000000  0.5065250000000 1.0
C      1  0.5258470000000  0.5584150000000  0.4912030000000 1.0
C      1  0.4741530000000  0.5584150000000  0.5087970000000 1.0
C      1  0.5134380000000  0.4703580000000  0.4923560000000 1.0
C      1  0.4865620000000  0.4703580000000  0.5076440000000 1.0
C      1  0.5128300000000  0.5293790000000  0.4915560000000 1.0
C      1  0.4871700000000  0.5293790000000  0.5084440000000 1.0
C      1  0.5339870000000  0.4890860000000  0.5847710000000 1.0
C      1  0.4660130000000  0.4890860000000  0.4152290000000 1.0
C      1  0.5477810000000  0.5144760000000  0.5846790000000 1.0
C      1  0.4522190000000  0.5144760000000  0.4153210000000 1.0
C      1  0.4860350000000  0.5355400000000  0.4563360000000 1.0
C      1  0.5139650000000  0.5355400000000  0.5436640000000 1.0
C      1  0.4878400000000  0.4633590000000  0.4585370000000 1.0
C      1  0.5121600000000  0.4633590000000  0.5414630000000 1.0
C      1  0.5950160000000  0.4734840000000  0.5393650000000 1.0
C      1  0.4049840000000  0.4734840000000  0.4606350000000 1.0
C      1  0.5962310000000  0.5335550000000  0.5350260000000 1.0
C      1  0.4037690000000  0.5335550000000  0.4649740000000 1.0
C      1  0.5361630000000  0.4714210000000  0.4497280000000 1.0
C      1  0.4638370000000  0.4714210000000  0.5502720000000 1.0
C      1  0.5347190000000  0.5283530000000  0.4488480000000 1.0
C      1  0.4652810000000  0.5283530000000  0.5511520000000 1.0
C      1  0.4414170000000  0.4544130000000  0.4691580000000 1.0
C      1  0.5585830000000  0.4544130000000  0.5308420000000 1.0
C      1  0.4423320000000  0.5486010000000  0.4720770000000 1.0
C      1  0.5576680000000  0.5486010000000  0.5279230000000 1.0
C      1  0.4854290000000  0.5180290000000  0.5773350000000 1.0
C      1  0.5145710000000  0.5180290000000  0.4226650000000 1.0
C      1  0.4841670000000  0.4815890000000  0.5768250000000 1.0
C      1  0.5158330000000  0.4815890000000  0.4231750000000 1.0
C      1  0.4464680000000  0.5017150000000  0.4561110000000 1.0
C      1  0.5535320000000  0.5017150000000  0.5438890000000 1.0
END
