TITL C-862133-5440-139 -0.00105563280269053 125000 -194.599283950298 0 0 43 (Cs) n - 1
REM
REM in /home/nfs/bkarasulu/CARBON/AIRSS/Generating-Clusters/TERSOFF/Higher-Symm/FIRE-HFTN
REM
REM
REM
REM
REM
REM ./C.cell (b20cbc046b6831c77cfcea5457e17084)
REM AIRSS Version 0.9.1 bugfix July 2018 build 013d7b7c2542+ Fri, 06 Jul 2018 19:26:36 +0100
REM compiler GCC version 9.2.1 20190827 (Red Hat 9.2.1-1)
REM options -cpp -mtune=generic -march=x86-64 -g -O0 -fpre-include=/usr/include/finclude/math-vector-fortran.h
REM seed 298807521 -1613912028 -780947322 -1147459938 -1276464711 617853270 -1179436690 -1439313152 486802905 -2034347899 -339698406 2022903450 -578842910 194292748 -865956214 822870312 1587938461 -1360774553 1360085925 -696488484 -1859791146 -1778488424 -786429271 -1348885746 -668060795 -143781720 1668748775 1376917428 549700698 -1177605563 -1546551136 1192732278 385176690
REM
CELL 1.54180   50.00000   50.00000   50.00000   90.00000   90.00000   90.00000
LATT -1
SFAC C  
C      1  0.5197000000000  0.4847370000000  0.5538460000000 1.0
C      1  0.4798700000000  0.5176950000000  0.5532640000000 1.0
C      1  0.5197000000000  0.4847370000000  0.4477390000000 1.0
C      1  0.4798700000000  0.5176950000000  0.4483200000000 1.0
C      1  0.4832960000000  0.4847800000000  0.5533090000000 1.0
C      1  0.5160410000000  0.5174510000000  0.5524740000000 1.0
C      1  0.4832960000000  0.4847800000000  0.4482760000000 1.0
C      1  0.5160410000000  0.5174510000000  0.4491100000000 1.0
C      1  0.5184960000000  0.4497340000000  0.4841990000000 1.0
C      1  0.4815470000000  0.5529660000000  0.4841330000000 1.0
C      1  0.5184960000000  0.4497340000000  0.5173850000000 1.0
C      1  0.4815470000000  0.5529660000000  0.5174510000000 1.0
C      1  0.4831160000000  0.4496760000000  0.4839900000000 1.0
C      1  0.5159350000000  0.5529630000000  0.4841460000000 1.0
C      1  0.4831160000000  0.4496760000000  0.5175940000000 1.0
C      1  0.5159350000000  0.5529630000000  0.5174390000000 1.0
C      1  0.5601060000000  0.5291710000000  0.5157880000000 1.0
C      1  0.4375090000000  0.4729490000000  0.5157340000000 1.0
C      1  0.5601060000000  0.5291710000000  0.4857960000000 1.0
C      1  0.4375090000000  0.4729490000000  0.4858510000000 1.0
C      1  0.4367020000000  0.5284340000000  0.5157510000000 1.0
C      1  0.5645250000000  0.4739070000000  0.5157270000000 1.0
C      1  0.4367020000000  0.5284340000000  0.4858340000000 1.0
C      1  0.5645250000000  0.4739070000000  0.4858580000000 1.0
C      1  0.4661960000000  0.5243090000000  0.4779070000000 1.0
C      1  0.5352930000000  0.4780130000000  0.4774680000000 1.0
C      1  0.4661960000000  0.5243090000000  0.5236770000000 1.0
C      1  0.5352930000000  0.4780130000000  0.5241170000000 1.0
C      1  0.5303920000000  0.5244710000000  0.4778880000000 1.0
C      1  0.4667850000000  0.4776480000000  0.4771740000000 1.0
C      1  0.5303920000000  0.5244710000000  0.5236960000000 1.0
C      1  0.4667850000000  0.4776480000000  0.5244110000000 1.0
C      1  0.5112170000000  0.4537870000000  0.5485360000000 1.0
C      1  0.4886180000000  0.5490710000000  0.5490990000000 1.0
C      1  0.5112170000000  0.4537870000000  0.4530490000000 1.0
C      1  0.4886170000000  0.5490710000000  0.4524860000000 1.0
C      1  0.4804550000000  0.4497760000000  0.5526940000000 1.0
C      1  0.5196550000000  0.5525550000000  0.5530120000000 1.0
C      1  0.4804550000000  0.4497760000000  0.4488910000000 1.0
C      1  0.5196550000000  0.5525550000000  0.4485730000000 1.0
C      1  0.5257020000000  0.5007040000000  0.5007920000000 1.0
C      1  0.4740860000000  0.5010750000000  0.5007920000000 1.0
C      1  0.5001260000000  0.4873650000000  0.5007920000000 1.0
END
