TITL C-862507-1800-634 7.66158230213531e-06 125000 -238.876994326597 0 0 47 (C5) n - 1
REM
REM in /home/nfs/bkarasulu/CARBON/AIRSS/Generating-Clusters/TERSOFF/Higher-Symm/FIRE-HFTN
REM
REM
REM
REM
REM
REM ./C.cell (b20cbc046b6831c77cfcea5457e17084)
REM AIRSS Version 0.9.1 bugfix July 2018 build 013d7b7c2542+ Fri, 06 Jul 2018 19:26:36 +0100
REM compiler GCC version 9.2.1 20190827 (Red Hat 9.2.1-1)
REM options -cpp -mtune=generic -march=x86-64 -g -O0 -fpre-include=/usr/include/finclude/math-vector-fortran.h
REM seed -2013664736 30067425 2039747069 253326451 393790905 -370045946 -356412315 1935814051 656352400 567126567 1997962188 -962145276 -1678118618 -180043880 -817116659 -1185996116 90356711 371403524 -1408664537 380944090 1396301067 -585201062 29939703 -590818666 200728722 246787583 -1141462643 -556741440 260237874 -1730325768 787221828 -1088761413 137253685
REM
CELL 1.54180   50.00000   50.00000   50.00000   90.00000   90.00000   90.00000
LATT -1
SFAC C  
C      1  0.4487110000000  0.5478990000000  0.5268770000000 1.0
C      1  0.5093110000000  0.5478990000000  0.5576140000000 1.0
C      1  0.5572690000000  0.5478990000000  0.5094780000000 1.0
C      1  0.5263100000000  0.5478990000000  0.4489930000000 1.0
C      1  0.4592170000000  0.5478990000000  0.4597460000000 1.0
C      1  0.5045230000000  0.5007260000000  0.5486700000000 1.0
C      1  0.5472830000000  0.5007260000000  0.5112680000000 1.0
C      1  0.5249260000000  0.5007260000000  0.4590430000000 1.0
C      1  0.4683480000000  0.5007260000000  0.4641670000000 1.0
C      1  0.4557380000000  0.5007260000000  0.5195600000000 1.0
C      1  0.4894730000000  0.5124420000000  0.4206470000000 1.0
C      1  0.4208760000000  0.5124420000000  0.4860200000000 1.0
C      1  0.4618520000000  0.5124420000000  0.5714610000000 1.0
C      1  0.5557730000000  0.5124420000000  0.5588940000000 1.0
C      1  0.5728440000000  0.5124420000000  0.4656850000000 1.0
C      1  0.4910530000000  0.5309580000000  0.5350640000000 1.0
C      1  0.5301810000000  0.5309580000000  0.5198740000000 1.0
C      1  0.5278260000000  0.5309580000000  0.4779670000000 1.0
C      1  0.4872430000000  0.5309580000000  0.4672570000000 1.0
C      1  0.4645150000000  0.5309580000000  0.5025450000000 1.0
C      1  0.4803890000000  0.4769900000000  0.4797520000000 1.0
C      1  0.4742810000000  0.4769900000000  0.5129240000000 1.0
C      1  0.5039420000000  0.4769900000000  0.5289830000000 1.0
C      1  0.5283810000000  0.4769900000000  0.5057370000000 1.0
C      1  0.5138250000000  0.4769900000000  0.4753110000000 1.0
C      1  0.4267630000000  0.4981410000000  0.5109060000000 1.0
C      1  0.4873380000000  0.4981410000000  0.5735530000000 1.0
C      1  0.5656380000000  0.4981410000000  0.5353010000000 1.0
C      1  0.5534540000000  0.4981410000000  0.4490120000000 1.0
C      1  0.4676240000000  0.4981410000000  0.4339360000000 1.0
C      1  0.5065980000000  0.5231120000000  0.4427060000000 1.0
C      1  0.4471470000000  0.5231120000000  0.4765500000000 1.0
C      1  0.4609630000000  0.5231120000000  0.5435490000000 1.0
C      1  0.5289530000000  0.5231120000000  0.5511130000000 1.0
C      1  0.5571570000000  0.5231120000000  0.4887890000000 1.0
C      1  0.4713690000000  0.4485350000000  0.4702940000000 1.0
C      1  0.4624990000000  0.4485350000000  0.5185800000000 1.0
C      1  0.5056800000000  0.4485350000000  0.5419370000000 1.0
C      1  0.5412380000000  0.4485350000000  0.5080870000000 1.0
C      1  0.5200320000000  0.4485350000000  0.4638090000000 1.0
C      1  0.5392260000000  0.4355200000000  0.4818340000000 1.0
C      1  0.4944430000000  0.4355200000000  0.4576100000000 1.0
C      1  0.4575660000000  0.4355200000000  0.4927160000000 1.0
C      1  0.4795570000000  0.4355200000000  0.5386360000000 1.0
C      1  0.5300260000000  0.4355200000000  0.5319110000000 1.0
C      1  0.5001640000000  0.5373740000000  0.5005410000000 1.0
C      1  0.5001640000000  0.5074750000000  0.5005410000000 1.0
END
