TITL C-862127-1500-311 33.4500085398557 125000 -515.6388650523 0 0 93 (C1) n - 1
REM
REM in /home/nfs/bkarasulu/CARBON/AIRSS/Generating-Clusters/TERSOFF/Higher-Symm/FIRE-HFTN
REM
REM
REM
REM
REM
REM ./C.cell (b20cbc046b6831c77cfcea5457e17084)
REM AIRSS Version 0.9.1 bugfix July 2018 build 013d7b7c2542+ Fri, 06 Jul 2018 19:26:36 +0100
REM compiler GCC version 9.2.1 20190827 (Red Hat 9.2.1-1)
REM options -cpp -mtune=generic -march=x86-64 -g -O0 -fpre-include=/usr/include/finclude/math-vector-fortran.h
REM seed -1352234195 1533718963 -294759298 1077193430 -1686017563 -1884170612 1655873798 716419117 -85047339 594690549 1150254083 -1379134835 -625641651 1758933723 -37940683 -24798699 -524689792 -1320997357 -1623676769 -419998631 -1180827108 -1791722886 -664889013 2013240716 312082292 1605090570 1777381218 1691092093 897655708 -1315456277 -108138205 -831081360 886076025
REM
CELL 1.54180   50.00000   50.00000   50.00000   90.00000   90.00000   90.00000
LATT -1
SFAC C  
C      1  0.4527130000000  0.5697040000000  0.5486840000000 1.0
C      1  0.5493790000000  0.4319640000000  0.4489850000000 1.0
C      1  0.5055820000000  0.4427570000000  0.5594690000000 1.0
C      1  0.4962100000000  0.5584950000000  0.4396840000000 1.0
C      1  0.5481520000000  0.4690860000000  0.5549540000000 1.0
C      1  0.4534280000000  0.5319690000000  0.4470970000000 1.0
C      1  0.4346670000000  0.5063610000000  0.5476970000000 1.0
C      1  0.5646510000000  0.4949930000000  0.4525680000000 1.0
C      1  0.4397030000000  0.4249090000000  0.5268900000000 1.0
C      1  0.5616720000000  0.5721660000000  0.4706520000000 1.0
C      1  0.5873890000000  0.5133710000000  0.4993990000000 1.0
C      1  0.4125610000000  0.4870690000000  0.5013620000000 1.0
C      1  0.5498430000000  0.5348220000000  0.5033300000000 1.0
C      1  0.4472730000000  0.4643010000000  0.4950070000000 1.0
C      1  0.5808310000000  0.5198910000000  0.4690180000000 1.0
C      1  0.4190030000000  0.4785810000000  0.5309450000000 1.0
C      1  0.4691880000000  0.5060050000000  0.5892650000000 1.0
C      1  0.5302330000000  0.4942760000000  0.4101410000000 1.0
C      1  0.4618640000000  0.5167830000000  0.5085660000000 1.0
C      1  0.5404980000000  0.4811220000000  0.4926880000000 1.0
C      1  0.4943860000000  0.4318110000000  0.4947970000000 1.0
C      1  0.5109250000000  0.5697520000000  0.5059470000000 1.0
C      1  0.4827750000000  0.5293000000000  0.4554420000000 1.0
C      1  0.5189290000000  0.4701470000000  0.5451930000000 1.0
C      1  0.5608800000000  0.4939320000000  0.5641780000000 1.0
C      1  0.4398660000000  0.5082240000000  0.4364640000000 1.0
C      1  0.4312060000000  0.4512590000000  0.5160500000000 1.0
C      1  0.5665790000000  0.5454940000000  0.4821170000000 1.0
C      1  0.4903130000000  0.4597870000000  0.4971650000000 1.0
C      1  0.5062130000000  0.5412880000000  0.5034730000000 1.0
C      1  0.5170060000000  0.4231250000000  0.5360260000000 1.0
C      1  0.4859750000000  0.5753390000000  0.4651230000000 1.0
C      1  0.5800520000000  0.4687630000000  0.5225860000000 1.0
C      1  0.4223590000000  0.5326340000000  0.4812260000000 1.0
C      1  0.5412330000000  0.4352360000000  0.5215610000000 1.0
C      1  0.4652380000000  0.5597250000000  0.4801620000000 1.0
C      1  0.5255950000000  0.5172900000000  0.5902290000000 1.0
C      1  0.4740390000000  0.4835710000000  0.4082090000000 1.0
C      1  0.4563990000000  0.5516920000000  0.5716330000000 1.0
C      1  0.5441050000000  0.4497960000000  0.4264650000000 1.0
C      1  0.4867360000000  0.5316840000000  0.3964690000000 1.0
C      1  0.5134340000000  0.4693410000000  0.6033650000000 1.0
C      1  0.5707630000000  0.4962200000000  0.5175130000000 1.0
C      1  0.4298500000000  0.5045070000000  0.4843960000000 1.0
C      1  0.5614990000000  0.4731260000000  0.4746020000000 1.0
C      1  0.4402700000000  0.5275660000000  0.5247160000000 1.0
C      1  0.5161490000000  0.5524540000000  0.5461530000000 1.0
C      1  0.4851070000000  0.4491530000000  0.4545820000000 1.0
C      1  0.5305110000000  0.5106220000000  0.4883170000000 1.0
C      1  0.4632060000000  0.4870580000000  0.5135780000000 1.0
C      1  0.5654490000000  0.4451120000000  0.4688940000000 1.0
C      1  0.4374770000000  0.5560930000000  0.5283970000000 1.0
C      1  0.4447540000000  0.4596660000000  0.4593810000000 1.0
C      1  0.5554720000000  0.5406550000000  0.5374750000000 1.0
C      1  0.4672930000000  0.4183240000000  0.5359620000000 1.0
C      1  0.5350970000000  0.5824660000000  0.4626080000000 1.0
C      1  0.5471780000000  0.5207550000000  0.5655930000000 1.0
C      1  0.4527010000000  0.4811630000000  0.4335310000000 1.0
C      1  0.4581120000000  0.4817960000000  0.5459120000000 1.0
C      1  0.5388940000000  0.5152140000000  0.4554040000000 1.0
C      1  0.5394740000000  0.5029120000000  0.5285320000000 1.0
C      1  0.4596840000000  0.4968970000000  0.4717170000000 1.0
C      1  0.5074840000000  0.4961400000000  0.5548580000000 1.0
C      1  0.4901770000000  0.5023430000000  0.4432250000000 1.0
C      1  0.4704410000000  0.5081700000000  0.3927800000000 1.0
C      1  0.5295780000000  0.4931190000000  0.6061640000000 1.0
C      1  0.5036710000000  0.5365310000000  0.4197430000000 1.0
C      1  0.4963900000000  0.4635820000000  0.5803760000000 1.0
C      1  0.5169210000000  0.5270120000000  0.5280500000000 1.0
C      1  0.4816270000000  0.4742020000000  0.4731740000000 1.0
C      1  0.5104780000000  0.5850260000000  0.4812110000000 1.0
C      1  0.4928730000000  0.4150890000000  0.5184740000000 1.0
C      1  0.4828430000000  0.5391630000000  0.5675120000000 1.0
C      1  0.5164940000000  0.4594750000000  0.4291460000000 1.0
C      1  0.4733380000000  0.4809820000000  0.5740070000000 1.0
C      1  0.5253920000000  0.5181110000000  0.4266810000000 1.0
C      1  0.5268780000000  0.4141680000000  0.4572320000000 1.0
C      1  0.4755800000000  0.5877430000000  0.5412990000000 1.0
C      1  0.4999980000000  0.4236830000000  0.4662740000000 1.0
C      1  0.5032990000000  0.5784200000000  0.5343110000000 1.0
C      1  0.5128500000000  0.4834660000000  0.4468120000000 1.0
C      1  0.4842010000000  0.5142910000000  0.5508720000000 1.0
C      1  0.5545810000000  0.4796380000000  0.4240590000000 1.0
C      1  0.4455400000000  0.5214280000000  0.5750940000000 1.0
C      1  0.5635030000000  0.4499290000000  0.5378070000000 1.0
C      1  0.4396990000000  0.5505350000000  0.4660690000000 1.0
C      1  0.4801110000000  0.5337620000000  0.4907780000000 1.0
C      1  0.5287200000000  0.4629020000000  0.5136360000000 1.0
C      1  0.4776290000000  0.4304730000000  0.5599590000000 1.0
C      1  0.5231870000000  0.5725390000000  0.4381570000000 1.0
C      1  0.5029050000000  0.4739300000000  0.4061890000000 1.0
C      1  0.4970820000000  0.5269020000000  0.5914000000000 1.0
C      1  0.5032920000000  0.4996980000000  0.4985330000000 1.0
END
