TITL C-862129-6180-248 -0.00286259555132343 125000 -1041.37402459987 0 0 183 (C2) n - 1
REM
REM in /home/nfs/bkarasulu/CARBON/AIRSS/Generating-Clusters/TERSOFF/Higher-Symm/FIRE-HFTN
REM
REM
REM
REM
REM
REM ./C.cell (b20cbc046b6831c77cfcea5457e17084)
REM AIRSS Version 0.9.1 bugfix July 2018 build 013d7b7c2542+ Fri, 06 Jul 2018 19:26:36 +0100
REM compiler GCC version 9.2.1 20190827 (Red Hat 9.2.1-1)
REM options -cpp -mtune=generic -march=x86-64 -g -O0 -fpre-include=/usr/include/finclude/math-vector-fortran.h
REM seed -2072067616 -738618623 196434277 1682360434 1855637182 -173790907 1277510830 2070433812 869195150 -118280296 887168848 1659523993 1880073880 1841874872 -1498343217 -510904661 -565950330 -1862075952 533934657 -1660877275 -224789028 -1892271620 367569000 -202624815 -1071562096 313085193 151418912 526617224 553848635 -1182235129 -1778698442 85546077 -523402991
REM
CELL 1.54180   50.00000   50.00000   50.00000   90.00000   90.00000   90.00000
LATT -1
SFAC C  
C      1  0.4295400000000  0.4427020000000  0.4241610000000 1.0
C      1  0.4692040000000  0.4420100000000  0.6001100000000 1.0
C      1  0.6021710000000  0.4412940000000  0.4767730000000 1.0
C      1  0.4315400000000  0.5579800000000  0.4208540000000 1.0
C      1  0.4653290000000  0.5579180000000  0.5979060000000 1.0
C      1  0.6016910000000  0.5562490000000  0.4808140000000 1.0
C      1  0.5674990000000  0.4431840000000  0.4215190000000 1.0
C      1  0.5343270000000  0.4413860000000  0.5988490000000 1.0
C      1  0.3979070000000  0.4414150000000  0.4810430000000 1.0
C      1  0.5711820000000  0.5581410000000  0.4231570000000 1.0
C      1  0.5304070000000  0.5566630000000  0.5989600000000 1.0
C      1  0.3978800000000  0.5573250000000  0.4766180000000 1.0
C      1  0.4335670000000  0.5155230000000  0.5967700000000 1.0
C      1  0.6175290000000  0.5144820000000  0.5092060000000 1.0
C      1  0.4491290000000  0.5160590000000  0.3938600000000 1.0
C      1  0.4430060000000  0.4863240000000  0.5908190000000 1.0
C      1  0.6090370000000  0.4847920000000  0.5051390000000 1.0
C      1  0.4499570000000  0.4869590000000  0.4051760000000 1.0
C      1  0.5570800000000  0.5124210000000  0.5907610000000 1.0
C      1  0.3928450000000  0.5130000000000  0.5039380000000 1.0
C      1  0.5500740000000  0.5146380000000  0.4030120000000 1.0
C      1  0.5664790000000  0.4833240000000  0.5971300000000 1.0
C      1  0.3829840000000  0.4837960000000  0.5091270000000 1.0
C      1  0.5508140000000  0.4849510000000  0.3936160000000 1.0
C      1  0.5874040000000  0.4482450000000  0.5344100000000 1.0
C      1  0.4861030000000  0.4501870000000  0.4080930000000 1.0
C      1  0.4279190000000  0.4493860000000  0.5579970000000 1.0
C      1  0.5994450000000  0.5528420000000  0.5418260000000 1.0
C      1  0.4862720000000  0.5545460000000  0.3924410000000 1.0
C      1  0.4141450000000  0.5535690000000  0.5647320000000 1.0
C      1  0.4010340000000  0.4457490000000  0.5419580000000 1.0
C      1  0.5135400000000  0.4465730000000  0.3929520000000 1.0
C      1  0.5863030000000  0.4448550000000  0.5656650000000 1.0
C      1  0.4137030000000  0.5499400000000  0.5334280000000 1.0
C      1  0.5138900000000  0.5511660000000  0.4071170000000 1.0
C      1  0.5726140000000  0.5492100000000  0.5580130000000 1.0
C      1  0.4184400000000  0.4037560000000  0.5061040000000 1.0
C      1  0.5460380000000  0.4034520000000  0.5683900000000 1.0
C      1  0.5359970000000  0.4048630000000  0.4259120000000 1.0
C      1  0.4222900000000  0.5931890000000  0.5004560000000 1.0
C      1  0.5394700000000  0.5924950000000  0.5664190000000 1.0
C      1  0.5381290000000  0.5938730000000  0.4324870000000 1.0
C      1  0.5775780000000  0.4055430000000  0.5007200000000 1.0
C      1  0.4607870000000  0.4061510000000  0.5670390000000 1.0
C      1  0.4622690000000  0.4068830000000  0.4325780000000 1.0
C      1  0.5821140000000  0.5945540000000  0.5059080000000 1.0
C      1  0.4538780000000  0.5955800000000  0.5676020000000 1.0
C      1  0.4637540000000  0.5959300000000  0.4259570000000 1.0
C      1  0.5218730000000  0.4836620000000  0.5763940000000 1.0
C      1  0.5587180000000  0.4828940000000  0.4516370000000 1.0
C      1  0.4230840000000  0.4832750000000  0.4819240000000 1.0
C      1  0.5105690000000  0.5174040000000  0.5751070000000 1.0
C      1  0.5549650000000  0.5165680000000  0.4446500000000 1.0
C      1  0.4282220000000  0.5175790000000  0.4717290000000 1.0
C      1  0.4885930000000  0.4817710000000  0.5762900000000 1.0
C      1  0.4402550000000  0.4819580000000  0.4532810000000 1.0
C      1  0.5754280000000  0.4828530000000  0.4800800000000 1.0
C      1  0.4771780000000  0.5160700000000  0.5756510000000 1.0
C      1  0.4447770000000  0.5157050000000  0.4428580000000 1.0
C      1  0.5712380000000  0.5165270000000  0.4733450000000 1.0
C      1  0.5697500000000  0.4236730000000  0.5231180000000 1.0
C      1  0.4853700000000  0.4251750000000  0.4285770000000 1.0
C      1  0.4459990000000  0.4242990000000  0.5487300000000 1.0
C      1  0.5812090000000  0.5815990000000  0.5327040000000 1.0
C      1  0.4874520000000  0.5832620000000  0.4129700000000 1.0
C      1  0.4310760000000  0.5825020000000  0.5534610000000 1.0
C      1  0.4192760000000  0.4168270000000  0.5329250000000 1.0
C      1  0.5123340000000  0.4178100000000  0.4132980000000 1.0
C      1  0.5691300000000  0.4161340000000  0.5543680000000 1.0
C      1  0.4307580000000  0.5750390000000  0.5224130000000 1.0
C      1  0.5148270000000  0.5757320000000  0.4280590000000 1.0
C      1  0.5544960000000  0.5742160000000  0.5484110000000 1.0
C      1  0.4607810000000  0.3928050000000  0.4611330000000 1.0
C      1  0.4862710000000  0.3916110000000  0.5543970000000 1.0
C      1  0.5534780000000  0.3917940000000  0.4850200000000 1.0
C      1  0.4666910000000  0.6062350000000  0.4551220000000 1.0
C      1  0.4779610000000  0.6054850000000  0.5505520000000 1.0
C      1  0.5553120000000  0.6049640000000  0.4937110000000 1.0
C      1  0.5331600000000  0.3944430000000  0.4552170000000 1.0
C      1  0.5222560000000  0.3931390000000  0.5512590000000 1.0
C      1  0.4452540000000  0.3938680000000  0.4937720000000 1.0
C      1  0.5396640000000  0.6076140000000  0.4612130000000 1.0
C      1  0.5139900000000  0.6065650000000  0.5534300000000 1.0
C      1  0.4459750000000  0.6077440000000  0.4847150000000 1.0
C      1  0.5540980000000  0.4844520000000  0.5031860000000 1.0
C      1  0.4703100000000  0.4856570000000  0.4572410000000 1.0
C      1  0.4778360000000  0.4846290000000  0.5479040000000 1.0
C      1  0.5525780000000  0.5134020000000  0.4976380000000 1.0
C      1  0.4759200000000  0.5140650000000  0.4513530000000 1.0
C      1  0.4692670000000  0.5128780000000  0.5437870000000 1.0
C      1  0.4467190000000  0.4864730000000  0.5047120000000 1.0
C      1  0.5283470000000  0.4860030000000  0.4556470000000 1.0
C      1  0.5300910000000  0.4853150000000  0.5451770000000 1.0
C      1  0.4474250000000  0.5147250000000  0.4952390000000 1.0
C      1  0.5242890000000  0.5149520000000  0.4515650000000 1.0
C      1  0.5221720000000  0.5137190000000  0.5470990000000 1.0
C      1  0.5146810000000  0.5855920000000  0.5277430000000 1.0
C      1  0.5167410000000  0.5867310000000  0.4727820000000 1.0
C      1  0.4679480000000  0.5867910000000  0.4984020000000 1.0
C      1  0.5182670000000  0.4125900000000  0.5263090000000 1.0
C      1  0.5137330000000  0.4138740000000  0.4715780000000 1.0
C      1  0.4686780000000  0.4133780000000  0.5030770000000 1.0
C      1  0.4816280000000  0.5859840000000  0.5256090000000 1.0
C      1  0.4863110000000  0.5867890000000  0.4710480000000 1.0
C      1  0.5314380000000  0.5855190000000  0.5023470000000 1.0
C      1  0.4853970000000  0.4125710000000  0.5285300000000 1.0
C      1  0.4833600000000  0.4137860000000  0.4733880000000 1.0
C      1  0.5319850000000  0.4126630000000  0.4990910000000 1.0
C      1  0.4518110000000  0.4646620000000  0.6094350000000 1.0
C      1  0.6197890000000  0.4634020000000  0.4871860000000 1.0
C      1  0.4294440000000  0.4652810000000  0.4043940000000 1.0
C      1  0.4484280000000  0.5371890000000  0.6112980000000 1.0
C      1  0.6217380000000  0.5353690000000  0.4882160000000 1.0
C      1  0.4288420000000  0.5374050000000  0.3993920000000 1.0
C      1  0.5515530000000  0.4619660000000  0.6119240000000 1.0
C      1  0.3778470000000  0.4621320000000  0.4889860000000 1.0
C      1  0.5711060000000  0.4640720000000  0.4004630000000 1.0
C      1  0.5474870000000  0.5340890000000  0.6089220000000 1.0
C      1  0.3811170000000  0.5346610000000  0.4870090000000 1.0
C      1  0.5709880000000  0.5360390000000  0.4026870000000 1.0
C      1  0.4343800000000  0.4781340000000  0.5635810000000 1.0
C      1  0.5895510000000  0.4768190000000  0.5259890000000 1.0
C      1  0.4779740000000  0.4789310000000  0.4107530000000 1.0
C      1  0.4174270000000  0.5233240000000  0.5727670000000 1.0
C      1  0.6047480000000  0.5225870000000  0.5350740000000 1.0
C      1  0.4778790000000  0.5241850000000  0.3915290000000 1.0
C      1  0.5828800000000  0.4752130000000  0.5733970000000 1.0
C      1  0.3957030000000  0.4759930000000  0.5351060000000 1.0
C      1  0.5220250000000  0.4768320000000  0.3917450000000 1.0
C      1  0.5662580000000  0.5204610000000  0.5637130000000 1.0
C      1  0.4121130000000  0.5211940000000  0.5250320000000 1.0
C      1  0.5222700000000  0.5225960000000  0.4094620000000 1.0
C      1  0.4579310000000  0.5855630000000  0.5946160000000 1.0
C      1  0.6032240000000  0.5839020000000  0.4888770000000 1.0
C      1  0.4382590000000  0.5856750000000  0.4162500000000 1.0
C      1  0.4604110000000  0.4147520000000  0.5950330000000 1.0
C      1  0.6017740000000  0.4139630000000  0.4866090000000 1.0
C      1  0.4380480000000  0.4155050000000  0.4186360000000 1.0
C      1  0.5394330000000  0.5838660000000  0.5943630000000 1.0
C      1  0.3978650000000  0.5845800000000  0.4867790000000 1.0
C      1  0.5624530000000  0.5854690000000  0.4185900000000 1.0
C      1  0.5416880000000  0.4136960000000  0.5953260000000 1.0
C      1  0.3970690000000  0.4137680000000  0.4890860000000 1.0
C      1  0.5612970000000  0.4155290000000  0.4161520000000 1.0
C      1  0.5291070000000  0.4417250000000  0.4630880000000 1.0
C      1  0.4530620000000  0.4412970000000  0.4951550000000 1.0
C      1  0.5190510000000  0.4400470000000  0.5447760000000 1.0
C      1  0.5309810000000  0.5592860000000  0.4631660000000 1.0
C      1  0.4527200000000  0.5594740000000  0.4900830000000 1.0
C      1  0.5145690000000  0.5578570000000  0.5442950000000 1.0
C      1  0.4689570000000  0.4415160000000  0.4652140000000 1.0
C      1  0.5474200000000  0.4401180000000  0.4915760000000 1.0
C      1  0.4849710000000  0.4398840000000  0.5458850000000 1.0
C      1  0.4707240000000  0.5593280000000  0.4611270000000 1.0
C      1  0.5464930000000  0.5576780000000  0.4932710000000 1.0
C      1  0.4806920000000  0.5580590000000  0.5430860000000 1.0
C      1  0.4419020000000  0.5474650000000  0.4455840000000 1.0
C      1  0.4813630000000  0.5475440000000  0.5762390000000 1.0
C      1  0.5749400000000  0.5471820000000  0.4762780000000 1.0
C      1  0.4400000000000  0.4512130000000  0.4499500000000 1.0
C      1  0.4862350000000  0.4507560000000  0.5782270000000 1.0
C      1  0.5747720000000  0.4513880000000  0.4742720000000 1.0
C      1  0.5596510000000  0.5480340000000  0.4481320000000 1.0
C      1  0.5133110000000  0.5481500000000  0.5770020000000 1.0
C      1  0.4253510000000  0.5485930000000  0.4728110000000 1.0
C      1  0.5580440000000  0.4522400000000  0.4469560000000 1.0
C      1  0.5180890000000  0.4519000000000  0.5775120000000 1.0
C      1  0.4246830000000  0.4518040000000  0.4779970000000 1.0
C      1  0.5315420000000  0.4658770000000  0.5014400000000 1.0
C      1  0.4851080000000  0.4678890000000  0.4752330000000 1.0
C      1  0.4856910000000  0.4660800000000  0.5273900000000 1.0
C      1  0.5292850000000  0.5314740000000  0.5005680000000 1.0
C      1  0.4857370000000  0.5335720000000  0.4711940000000 1.0
C      1  0.4818540000000  0.5321180000000  0.5246630000000 1.0
C      1  0.4695840000000  0.4672440000000  0.5033700000000 1.0
C      1  0.5141700000000  0.4679180000000  0.4743470000000 1.0
C      1  0.5178280000000  0.4658070000000  0.5267480000000 1.0
C      1  0.4691090000000  0.5332830000000  0.4987020000000 1.0
C      1  0.5145110000000  0.5335160000000  0.4719750000000 1.0
C      1  0.5139840000000  0.5314890000000  0.5252910000000 1.0
C      1  0.5856520000000  0.4987900000000  0.5494400000000 1.0
C      1  0.4151430000000  0.4996610000000  0.5489840000000 1.0
C      1  0.5000230000000  0.5006160000000  0.4011040000000 1.0
END
