TITL C-862501-1041-352 18.4526713129236 125000 -703.052848333721 0 0 116 (C2) n - 1
REM
REM in /home/nfs/bkarasulu/CARBON/AIRSS/Generating-Clusters/TERSOFF/Higher-Symm/FIRE-HFTN
REM
REM
REM
REM
REM
REM ./C.cell (b20cbc046b6831c77cfcea5457e17084)
REM AIRSS Version 0.9.1 bugfix July 2018 build 013d7b7c2542+ Fri, 06 Jul 2018 19:26:36 +0100
REM compiler GCC version 9.2.1 20190827 (Red Hat 9.2.1-1)
REM options -cpp -mtune=generic -march=x86-64 -g -O0 -fpre-include=/usr/include/finclude/math-vector-fortran.h
REM seed 2033949494 -348232768 531162326 938378475 2100038996 -1405830244 1275379886 1452697393 -1321761828 -1692472220 -1867889115 1824932611 -1162998680 -1899396128 -1092286452 -1556630792 1285228644 -1168740426 -491261420 566523634 48426459 621510634 -1917936447 -1878725149 1838214987 -95380084 -478772716 -1563033659 2125412356 -347581899 -1200593327 -767302686 -1412110111
REM
CELL 1.54180   50.00000   50.00000   50.00000   90.00000   90.00000   90.00000
LATT -1
SFAC C  
C      1  0.4680520000000  0.5364310000000  0.5804840000000 1.0
C      1  0.4631400000000  0.4677280000000  0.5806190000000 1.0
C      1  0.5319480000000  0.4635690000000  0.5804840000000 1.0
C      1  0.5368600000000  0.5322720000000  0.5806190000000 1.0
C      1  0.5017230000000  0.4439020000000  0.4224560000000 1.0
C      1  0.5561260000000  0.5014840000000  0.4224640000000 1.0
C      1  0.4982770000000  0.5560980000000  0.4224560000000 1.0
C      1  0.4438740000000  0.4985160000000  0.4224640000000 1.0
C      1  0.5371820000000  0.5665340000000  0.5438710000000 1.0
C      1  0.4337520000000  0.5365760000000  0.5437640000000 1.0
C      1  0.4628180000000  0.4334660000000  0.5438710000000 1.0
C      1  0.5662480000000  0.4634240000000  0.5437640000000 1.0
C      1  0.5623170000000  0.4719180000000  0.4323390000000 1.0
C      1  0.5278420000000  0.5624850000000  0.4321790000000 1.0
C      1  0.4376830000000  0.5280820000000  0.4323390000000 1.0
C      1  0.4721580000000  0.4375150000000  0.4321790000000 1.0
C      1  0.5348110000000  0.5985040000000  0.5040910000000 1.0
C      1  0.4016390000000  0.5344290000000  0.5043450000000 1.0
C      1  0.4651890000000  0.4014960000000  0.5040910000000 1.0
C      1  0.5983610000000  0.4655710000000  0.5043450000000 1.0
C      1  0.5566050000000  0.5005090000000  0.4779450000000 1.0
C      1  0.4998670000000  0.5567510000000  0.4783520000000 1.0
C      1  0.4433950000000  0.4994910000000  0.4779450000000 1.0
C      1  0.5001330000000  0.4432490000000  0.4783520000000 1.0
C      1  0.5279550000000  0.4290840000000  0.5442150000000 1.0
C      1  0.5717970000000  0.5285120000000  0.5447730000000 1.0
C      1  0.4720450000000  0.5709160000000  0.5442150000000 1.0
C      1  0.4282030000000  0.4714880000000  0.5447730000000 1.0
C      1  0.4566760000000  0.4615630000000  0.4900100000000 1.0
C      1  0.5376550000000  0.4575320000000  0.4904980000000 1.0
C      1  0.5433240000000  0.5384370000000  0.4900100000000 1.0
C      1  0.4623450000000  0.5424680000000  0.4904980000000 1.0
C      1  0.5583300000000  0.4719140000000  0.5705410000000 1.0
C      1  0.5284460000000  0.5585550000000  0.5705680000000 1.0
C      1  0.4416700000000  0.5280870000000  0.5705410000000 1.0
C      1  0.4715540000000  0.4414450000000  0.5705680000000 1.0
C      1  0.4786090000000  0.6048670000000  0.5071230000000 1.0
C      1  0.3951250000000  0.4782000000000  0.5069470000000 1.0
C      1  0.5213910000000  0.3951330000000  0.5071230000000 1.0
C      1  0.6048750000000  0.5218000000000  0.5069470000000 1.0
C      1  0.4793280000000  0.4633260000000  0.4726100000000 1.0
C      1  0.5364670000000  0.4797240000000  0.4724550000000 1.0
C      1  0.5206720000000  0.5366740000000  0.4726100000000 1.0
C      1  0.4635330000000  0.5202760000000  0.4724550000000 1.0
C      1  0.5847520000000  0.4557630000000  0.4804040000000 1.0
C      1  0.5445100000000  0.5852810000000  0.4798030000000 1.0
C      1  0.4152480000000  0.5442370000000  0.4804040000000 1.0
C      1  0.4554900000000  0.4147190000000  0.4798030000000 1.0
C      1  0.5024000000000  0.4164280000000  0.4639470000000 1.0
C      1  0.5836000000000  0.5023960000000  0.4638550000000 1.0
C      1  0.4976000000000  0.5835720000000  0.4639470000000 1.0
C      1  0.4164000000000  0.4976040000000  0.4638550000000 1.0
C      1  0.4870020000000  0.6062270000000  0.4793940000000 1.0
C      1  0.3936650000000  0.4871900000000  0.4793520000000 1.0
C      1  0.5129980000000  0.3937730000000  0.4793940000000 1.0
C      1  0.6063350000000  0.5128100000000  0.4793520000000 1.0
C      1  0.4414700000000  0.5822000000000  0.4654870000000 1.0
C      1  0.4174490000000  0.4408860000000  0.4642380000000 1.0
C      1  0.5585300000000  0.4178000000000  0.4654870000000 1.0
C      1  0.5825510000000  0.5591140000000  0.4642380000000 1.0
C      1  0.4201000000000  0.4549370000000  0.4392080000000 1.0
C      1  0.5452210000000  0.4204510000000  0.4400510000000 1.0
C      1  0.5799000000000  0.5450630000000  0.4392080000000 1.0
C      1  0.4547790000000  0.5795490000000  0.4400510000000 1.0
C      1  0.4121880000000  0.4901010000000  0.5274780000000 1.0
C      1  0.5094870000000  0.4125740000000  0.5272640000000 1.0
C      1  0.5878120000000  0.5098990000000  0.5274780000000 1.0
C      1  0.4905130000000  0.5874260000000  0.5272640000000 1.0
C      1  0.5766500000000  0.5166990000000  0.4386420000000 1.0
C      1  0.4831320000000  0.5764920000000  0.4388950000000 1.0
C      1  0.4233500000000  0.4833010000000  0.4386420000000 1.0
C      1  0.5168680000000  0.4235080000000  0.4388950000000 1.0
C      1  0.5267270000000  0.5847300000000  0.4553790000000 1.0
C      1  0.4155840000000  0.5268630000000  0.4556460000000 1.0
C      1  0.4732730000000  0.4152700000000  0.4553790000000 1.0
C      1  0.5844160000000  0.4731370000000  0.4556460000000 1.0
C      1  0.4300690000000  0.5045620000000  0.5811860000000 1.0
C      1  0.4953220000000  0.4301390000000  0.5809700000000 1.0
C      1  0.5699310000000  0.4954380000000  0.5811860000000 1.0
C      1  0.5046780000000  0.5698610000000  0.5809700000000 1.0
C      1  0.4388630000000  0.4382650000000  0.4837370000000 1.0
C      1  0.5610300000000  0.4394150000000  0.4847960000000 1.0
C      1  0.5611370000000  0.5617350000000  0.4837370000000 1.0
C      1  0.4389700000000  0.5605850000000  0.4847960000000 1.0
C      1  0.5226220000000  0.5105240000000  0.5284440000000 1.0
C      1  0.4911140000000  0.5190240000000  0.5269210000000 1.0
C      1  0.4773780000000  0.4894760000000  0.5284440000000 1.0
C      1  0.5088860000000  0.4809760000000  0.5269210000000 1.0
C      1  0.5083690000000  0.4759120000000  0.4263040000000 1.0
C      1  0.5241860000000  0.5084090000000  0.4263850000000 1.0
C      1  0.4916310000000  0.5240880000000  0.4263040000000 1.0
C      1  0.4758140000000  0.4915910000000  0.4263850000000 1.0
C      1  0.4717070000000  0.4652880000000  0.4443480000000 1.0
C      1  0.5345150000000  0.4716410000000  0.4443780000000 1.0
C      1  0.5282930000000  0.5347120000000  0.4443480000000 1.0
C      1  0.4654850000000  0.5283590000000  0.4443780000000 1.0
C      1  0.4545170000000  0.4791280000000  0.5129530000000 1.0
C      1  0.5202050000000  0.4570300000000  0.5138460000000 1.0
C      1  0.5454830000000  0.5208720000000  0.5129530000000 1.0
C      1  0.4797950000000  0.5429700000000  0.5138460000000 1.0
C      1  0.4386310000000  0.4463760000000  0.5339010000000 1.0
C      1  0.5530450000000  0.4395570000000  0.5333390000000 1.0
C      1  0.5613690000000  0.5536240000000  0.5339010000000 1.0
C      1  0.4469550000000  0.5604430000000  0.5333390000000 1.0
C      1  0.5849470000000  0.4794630000000  0.5266310000000 1.0
C      1  0.5209780000000  0.5847310000000  0.5263150000000 1.0
C      1  0.4150530000000  0.5205370000000  0.5266310000000 1.0
C      1  0.4790220000000  0.4152690000000  0.5263150000000 1.0
C      1  0.4795600000000  0.5617190000000  0.5708050000000 1.0
C      1  0.4377810000000  0.4792350000000  0.5711810000000 1.0
C      1  0.5204400000000  0.4382810000000  0.5708050000000 1.0
C      1  0.5622190000000  0.5207650000000  0.5711810000000 1.0
C      1  0.4822710000000  0.4844950000000  0.5960960000000 1.0
C      1  0.5150560000000  0.4828010000000  0.5957690000000 1.0
C      1  0.5177290000000  0.5155050000000  0.5960960000000 1.0
C      1  0.4849440000000  0.5171990000000  0.5957690000000 1.0
END
