TITL C-862131-2149-339 1.013095643181e-06 125000 -242.648119390169 0 0 43 (D2) n - 1
REM
REM in /home/nfs/bkarasulu/CARBON/AIRSS/Generating-Clusters/TERSOFF/Higher-Symm/FIRE-HFTN
REM
REM
REM
REM
REM
REM ./C.cell (b20cbc046b6831c77cfcea5457e17084)
REM AIRSS Version 0.9.1 bugfix July 2018 build 013d7b7c2542+ Fri, 06 Jul 2018 19:26:36 +0100
REM compiler GCC version 9.2.1 20190827 (Red Hat 9.2.1-1)
REM options -cpp -mtune=generic -march=x86-64 -g -O0 -fpre-include=/usr/include/finclude/math-vector-fortran.h
REM seed 1995090064 -1839794938 -959105967 -425314969 -552009873 -2038991191 -996356386 -807935929 -298827286 -343641716 -1075666242 2076812874 1013918774 1976647992 378101359 1386283492 -1815714973 -1626350466 1386557641 -1208529698 576974548 -503552796 1879722143 360590551 -477182924 368564336 978336113 150785130 737060611 -379893362 -1321313891 -1406579463 -824502771
REM
CELL 1.54180   50.00000   50.00000   50.00000   90.00000   90.00000   90.00000
LATT -1
SFAC C  
C      1  0.4782910000000  0.4660820000000  0.5340940000000 1.0
C      1  0.5201290000000  0.5338190000000  0.5340940000000 1.0
C      1  0.5201290000000  0.4660820000000  0.4683900000000 1.0
C      1  0.4782910000000  0.5338190000000  0.4683900000000 1.0
C      1  0.5299970000000  0.4382700000000  0.4755540000000 1.0
C      1  0.4684230000000  0.5616310000000  0.4755530000000 1.0
C      1  0.4684230000000  0.4382700000000  0.5269310000000 1.0
C      1  0.5299970000000  0.5616310000000  0.5269310000000 1.0
C      1  0.5358430000000  0.5100790000000  0.5474810000000 1.0
C      1  0.4625770000000  0.4898220000000  0.5474810000000 1.0
C      1  0.4625770000000  0.5100790000000  0.4550040000000 1.0
C      1  0.5358430000000  0.4898220000000  0.4550040000000 1.0
C      1  0.5177010000000  0.5109890000000  0.4437960000000 1.0
C      1  0.4807190000000  0.4889120000000  0.4437960000000 1.0
C      1  0.4807190000000  0.5109890000000  0.5586890000000 1.0
C      1  0.5177010000000  0.4889120000000  0.5586890000000 1.0
C      1  0.5297000000000  0.5676220000000  0.4982490000000 1.0
C      1  0.4687200000000  0.4322790000000  0.4982490000000 1.0
C      1  0.4687200000000  0.5676220000000  0.5042360000000 1.0
C      1  0.5297000000000  0.4322790000000  0.5042360000000 1.0
C      1  0.4435820000000  0.4670790000000  0.4703070000000 1.0
C      1  0.5548380000000  0.5328210000000  0.4703070000000 1.0
C      1  0.5548390000000  0.4670790000000  0.5321770000000 1.0
C      1  0.4435820000000  0.5328210000000  0.5321770000000 1.0
C      1  0.4909960000000  0.4662380000000  0.4603130000000 1.0
C      1  0.5074240000000  0.5336620000000  0.4603130000000 1.0
C      1  0.5074240000000  0.4662390000000  0.5421720000000 1.0
C      1  0.4909960000000  0.5336620000000  0.5421720000000 1.0
C      1  0.4754200000000  0.5219350000000  0.4977760000000 1.0
C      1  0.5230000000000  0.4779660000000  0.4977760000000 1.0
C      1  0.5230000000000  0.5219350000000  0.5047090000000 1.0
C      1  0.4754200000000  0.4779660000000  0.5047090000000 1.0
C      1  0.5283560000000  0.4569310000000  0.5215870000000 1.0
C      1  0.4700640000000  0.5429700000000  0.5215870000000 1.0
C      1  0.4700640000000  0.4569310000000  0.4808980000000 1.0
C      1  0.5283560000000  0.5429700000000  0.4808980000000 1.0
C      1  0.4410340000000  0.5032040000000  0.5295340000000 1.0
C      1  0.5573860000000  0.4966970000000  0.5295340000000 1.0
C      1  0.5573860000000  0.5032040000000  0.4729510000000 1.0
C      1  0.4410340000000  0.4966970000000  0.4729510000000 1.0
C      1  0.5455060000000  0.4999500000000  0.5012420000000 1.0
C      1  0.4529140000000  0.4999500000000  0.5012420000000 1.0
C      1  0.4992100000000  0.4999500000000  0.5012420000000 1.0
END
