TITL C-862506-1665-1490 2.1932589553439e-05 125000 -101.864401612527 0 0 18 (S4) n - 1
REM
REM in /home/nfs/bkarasulu/CARBON/AIRSS/Generating-Clusters/TERSOFF/Higher-Symm/FIRE-HFTN
REM
REM
REM
REM
REM
REM ./C.cell (b20cbc046b6831c77cfcea5457e17084)
REM AIRSS Version 0.9.1 bugfix July 2018 build 013d7b7c2542+ Fri, 06 Jul 2018 19:26:36 +0100
REM compiler GCC version 9.2.1 20190827 (Red Hat 9.2.1-1)
REM options -cpp -mtune=generic -march=x86-64 -g -O0 -fpre-include=/usr/include/finclude/math-vector-fortran.h
REM seed 487767071 857556619 1613381797 1601719567 -154045176 1363348144 1898027187 696652545 -1785688572 -840326544 -1529984612 -2115955439 160089931 1526484279 -562962188 1110270491 -1681386206 1918799988 -690803646 -197832341 1808244090 945356887 2044479640 448652158 2073857576 -1102301840 -2019327467 1580933814 -2009551072 -309333469 903417872 1684281522 501391367
REM
CELL 1.54180   50.00000   50.00000   50.00000   90.00000   90.00000   90.00000
LATT -1
SFAC C  
C      1  0.4957880000000  0.5435190000000  0.4748780000000 1.0
C      1  0.4719870000000  0.4564810000000  0.5022510000000 1.0
C      1  0.4993590000000  0.5435190000000  0.5260530000000 1.0
C      1  0.5231610000000  0.4564810000000  0.4986800000000 1.0
C      1  0.5455670000000  0.5013530000000  0.4940920000000 1.0
C      1  0.4912000000000  0.4986470000000  0.4524720000000 1.0
C      1  0.4495810000000  0.5013530000000  0.5068390000000 1.0
C      1  0.5039480000000  0.4986470000000  0.5484590000000 1.0
C      1  0.5158080000000  0.4841830000000  0.4572660000000 1.0
C      1  0.4543740000000  0.5158170000000  0.4822310000000 1.0
C      1  0.4793400000000  0.4841830000000  0.5436650000000 1.0
C      1  0.5407730000000  0.5158170000000  0.5187000000000 1.0
C      1  0.4669690000000  0.4806720000000  0.5175850000000 1.0
C      1  0.5146930000000  0.5193280000000  0.5310700000000 1.0
C      1  0.5281790000000  0.4806720000000  0.4833460000000 1.0
C      1  0.4804540000000  0.5193280000000  0.4698610000000 1.0
C      1  0.4975740000000  0.5569310000000  0.5004650000000 1.0
C      1  0.4975740000000  0.4430690000000  0.5004650000000 1.0
END
