TITL C-862134-6730-46 -61822.6625181998 125000 -694.059416638131 0 0 121 (C1) n - 1
REM
REM in /home/nfs/bkarasulu/CARBON/AIRSS/Generating-Clusters/TERSOFF/Higher-Symm/FIRE-HFTN
REM
REM
REM
REM
REM
REM ./C.cell (b20cbc046b6831c77cfcea5457e17084)
REM AIRSS Version 0.9.1 bugfix July 2018 build 013d7b7c2542+ Fri, 06 Jul 2018 19:26:36 +0100
REM compiler GCC version 9.2.1 20190827 (Red Hat 9.2.1-1)
REM options -cpp -mtune=generic -march=x86-64 -g -O0 -fpre-include=/usr/include/finclude/math-vector-fortran.h
REM seed 2368303 75793357 951087561 -1161617222 1502012155 -1665247538 38438858 1697654374 1152607630 -1879948773 1278536292 -1798585241 315465175 1474060839 493105330 724632448 -106958142 1768543469 610001483 1659134464 1094566900 -1263698433 1692232365 1144764897 -1482037876 -1668518070 -1584498030 2076659984 41483913 -466146669 -1415704883 -1091564203 1535826537
REM
CELL 1.54180   50.00000   50.00000   50.00000   90.00000   90.00000   90.00000
LATT -1
SFAC C  
C      1  0.5679930000000  0.5004440000000  0.4704380000000 1.0
C      1  0.5697580000000  0.5000800000000  0.5300390000000 1.0
C      1  0.5099910000000  0.5023120000000  0.5749600000000 1.0
C      1  0.5097220000000  0.5057120000000  0.4233000000000 1.0
C      1  0.5702000000000  0.4356930000000  0.5480870000000 1.0
C      1  0.5634840000000  0.4200040000000  0.4553180000000 1.0
C      1  0.5793280000000  0.4241190000000  0.5236100000000 1.0
C      1  0.5729180000000  0.4190550000000  0.4824630000000 1.0
C      1  0.5861000000000  0.5528740000000  0.4689340000000 1.0
C      1  0.5877010000000  0.5514120000000  0.5305790000000 1.0
C      1  0.4626500000000  0.5038290000000  0.4566500000000 1.0
C      1  0.4583460000000  0.5006140000000  0.5450080000000 1.0
C      1  0.4716240000000  0.4280400000000  0.5440200000000 1.0
C      1  0.4700580000000  0.4237120000000  0.4471270000000 1.0
C      1  0.4338150000000  0.5029030000000  0.4572330000000 1.0
C      1  0.4301900000000  0.5021420000000  0.5498740000000 1.0
C      1  0.5797610000000  0.4428370000000  0.5970260000000 1.0
C      1  0.5783870000000  0.4235500000000  0.4070760000000 1.0
C      1  0.5206960000000  0.4418580000000  0.5294870000000 1.0
C      1  0.5162530000000  0.4420180000000  0.4708520000000 1.0
C      1  0.5758870000000  0.5265480000000  0.4557290000000 1.0
C      1  0.5758020000000  0.5264290000000  0.5443440000000 1.0
C      1  0.5413910000000  0.4375200000000  0.5534000000000 1.0
C      1  0.5370680000000  0.4322650000000  0.4482950000000 1.0
C      1  0.4296960000000  0.5547730000000  0.4533780000000 1.0
C      1  0.4306960000000  0.5541280000000  0.5509310000000 1.0
C      1  0.4809800000000  0.4830450000000  0.4701850000000 1.0
C      1  0.4687950000000  0.4775620000000  0.5281790000000 1.0
C      1  0.4165990000000  0.4773840000000  0.5503780000000 1.0
C      1  0.4210770000000  0.4778370000000  0.4555600000000 1.0
C      1  0.5114590000000  0.5493480000000  0.5584280000000 1.0
C      1  0.5113810000000  0.5520480000000  0.4438130000000 1.0
C      1  0.5110940000000  0.6023810000000  0.4771550000000 1.0
C      1  0.5114970000000  0.6031470000000  0.5273850000000 1.0
C      1  0.5454810000000  0.5636570000000  0.5384160000000 1.0
C      1  0.5467420000000  0.5670030000000  0.4608140000000 1.0
C      1  0.4973460000000  0.5252190000000  0.5643400000000 1.0
C      1  0.4973000000000  0.5295570000000  0.4329590000000 1.0
C      1  0.5398770000000  0.5917060000000  0.4761460000000 1.0
C      1  0.5396660000000  0.5911830000000  0.5279450000000 1.0
C      1  0.5581470000000  0.5247860000000  0.4310480000000 1.0
C      1  0.5556630000000  0.5279670000000  0.5677100000000 1.0
C      1  0.5821870000000  0.4139380000000  0.4337290000000 1.0
C      1  0.5887300000000  0.4413070000000  0.5698070000000 1.0
C      1  0.4624080000000  0.4492270000000  0.5622210000000 1.0
C      1  0.4618850000000  0.4484010000000  0.4332920000000 1.0
C      1  0.4928380000000  0.4834430000000  0.5906880000000 1.0
C      1  0.4912580000000  0.4866820000000  0.4088120000000 1.0
C      1  0.4993660000000  0.4216470000000  0.5389620000000 1.0
C      1  0.4915270000000  0.4220410000000  0.4671330000000 1.0
C      1  0.5019580000000  0.5628930000000  0.5344730000000 1.0
C      1  0.5014920000000  0.5622780000000  0.4692430000000 1.0
C      1  0.4595640000000  0.5491010000000  0.5468350000000 1.0
C      1  0.4591480000000  0.5515760000000  0.4531050000000 1.0
C      1  0.4345830000000  0.5818580000000  0.5353060000000 1.0
C      1  0.4340340000000  0.5819670000000  0.4695660000000 1.0
C      1  0.4627170000000  0.5953460000000  0.4600880000000 1.0
C      1  0.4632850000000  0.5950030000000  0.5440840000000 1.0
C      1  0.4730500000000  0.5671200000000  0.4740540000000 1.0
C      1  0.4736160000000  0.5676330000000  0.5292270000000 1.0
C      1  0.5384810000000  0.5011260000000  0.4298210000000 1.0
C      1  0.5397320000000  0.5007260000000  0.5701060000000 1.0
C      1  0.5517970000000  0.4397800000000  0.6028430000000 1.0
C      1  0.5537390000000  0.4362790000000  0.4003660000000 1.0
C      1  0.5366300000000  0.5630860000000  0.4330790000000 1.0
C      1  0.5398290000000  0.5533690000000  0.5661800000000 1.0
C      1  0.5045090000000  0.4384190000000  0.4088490000000 1.0
C      1  0.5037780000000  0.4350760000000  0.5879520000000 1.0
C      1  0.4490420000000  0.4566060000000  0.5231120000000 1.0
C      1  0.4674490000000  0.4557170000000  0.4741930000000 1.0
C      1  0.5319840000000  0.4366050000000  0.5816670000000 1.0
C      1  0.5314630000000  0.4371690000000  0.4190640000000 1.0
C      1  0.4322270000000  0.4576790000000  0.4354540000000 1.0
C      1  0.4317790000000  0.4548270000000  0.5644930000000 1.0
C      1  0.4845620000000  0.4561400000000  0.5824730000000 1.0
C      1  0.4851050000000  0.4586230000000  0.4159590000000 1.0
C      1  0.5302420000000  0.4730550000000  0.5277970000000 1.0
C      1  0.5277050000000  0.4728740000000  0.4733760000000 1.0
C      1  0.4718000000000  0.5243190000000  0.5525860000000 1.0
C      1  0.4716370000000  0.5276790000000  0.4442780000000 1.0
C      1  0.4162600000000  0.5281740000000  0.5491060000000 1.0
C      1  0.4182310000000  0.5280440000000  0.4592510000000 1.0
C      1  0.5497070000000  0.4844130000000  0.5466750000000 1.0
C      1  0.5472070000000  0.4846990000000  0.4541580000000 1.0
C      1  0.4927710000000  0.6036450000000  0.5498350000000 1.0
C      1  0.4925300000000  0.6031680000000  0.4546700000000 1.0
C      1  0.5438350000000  0.5429060000000  0.4773700000000 1.0
C      1  0.5431390000000  0.5420650000000  0.5193220000000 1.0
C      1  0.3974830000000  0.4748510000000  0.5278540000000 1.0
C      1  0.4004370000000  0.4739550000000  0.4767420000000 1.0
C      1  0.4465370000000  0.4864510000000  0.4937050000000 1.0
C      1  0.4435290000000  0.4517460000000  0.4937000000000 1.0
C      1  0.4593610000000  0.5603450000000  0.5016660000000 1.0
C      1  0.4887190000000  0.4762350000000  0.5040060000000 1.0
C      1  0.3834010000000  0.5181790000000  0.5006280000000 1.0
C      1  0.5200500000000  0.5389990000000  0.4988370000000 1.0
C      1  0.5958830000000  0.5201570000000  0.5024370000000 1.0
C      1  0.5584830000000  0.5011590000000  0.5003810000000 1.0
C      1  0.4336000000000  0.5353050000000  0.5041880000000 1.0
C      1  0.6020190000000  0.4913970000000  0.5045870000000 1.0
C      1  0.5110790000000  0.4073160000000  0.5012600000000 1.0
C      1  0.3942280000000  0.5438900000000  0.4902130000000 1.0
C      1  0.5624030000000  0.4012110000000  0.5063390000000 1.0
C      1  0.5102070000000  0.5120310000000  0.4999250000000 1.0
C      1  0.5554820000000  0.5882490000000  0.5017800000000 1.0
C      1  0.4272070000000  0.5047310000000  0.5019230000000 1.0
C      1  0.4393440000000  0.4217060000000  0.4900340000000 1.0
C      1  0.4832720000000  0.3997080000000  0.5069680000000 1.0
C      1  0.3992430000000  0.4923370000000  0.5024630000000 1.0
C      1  0.5058890000000  0.4509390000000  0.5017570000000 1.0
C      1  0.5766740000000  0.5646200000000  0.5007870000000 1.0
C      1  0.5287520000000  0.4883480000000  0.5005340000000 1.0
C      1  0.4962970000000  0.6025440000000  0.5023820000000 1.0
C      1  0.4632580000000  0.6021510000000  0.5027150000000 1.0
C      1  0.5897110000000  0.4414700000000  0.4973060000000 1.0
C      1  0.4335660000000  0.5810700000000  0.5021320000000 1.0
C      1  0.5663300000000  0.5324300000000  0.4998170000000 1.0
C      1  0.4049950000000  0.5659420000000  0.5068530000000 1.0
C      1  0.5345780000000  0.3932500000000  0.5112700000000 1.0
C      1  0.4609750000000  0.4020560000000  0.4880500000000 1.0
C      1  0.5856520000000  0.4699470000000  0.4932680000000 1.0
END
