TITL C-862128-1543-1290 -0.00842937509136121 125000 -460.276470342401 0 0 85 (C1) n - 1
REM
REM in /home/nfs/bkarasulu/CARBON/AIRSS/Generating-Clusters/TERSOFF/Higher-Symm/FIRE-HFTN
REM
REM
REM
REM
REM
REM ./C.cell (b20cbc046b6831c77cfcea5457e17084)
REM AIRSS Version 0.9.1 bugfix July 2018 build 013d7b7c2542+ Fri, 06 Jul 2018 19:26:36 +0100
REM compiler GCC version 9.2.1 20190827 (Red Hat 9.2.1-1)
REM options -cpp -mtune=generic -march=x86-64 -g -O0 -fpre-include=/usr/include/finclude/math-vector-fortran.h
REM seed -846194369 -646986539 1871865128 1532667332 1740963281 1887410518 -447938398 1961706108 -463746857 -771163964 629421575 -1659916416 -294834014 -1090193751 744258649 545549026 -379293574 -739343034 -785836153 712959132 -510083452 375574072 -1491441356 475518691 -1415934453 1788833788 -991881250 185153271 1863529623 1460331635 1570453879 1153615416 -1231556163
REM
CELL 1.54180   50.00000   50.00000   50.00000   90.00000   90.00000   90.00000
LATT -1
SFAC C  
C      1  0.5489540000000  0.4379430000000  0.4894820000000 1.0
C      1  0.5314450000000  0.5723040000000  0.4931860000000 1.0
C      1  0.4178510000000  0.4874380000000  0.4934730000000 1.0
C      1  0.4530010000000  0.4377160000000  0.5062350000000 1.0
C      1  0.4692810000000  0.5714440000000  0.5044140000000 1.0
C      1  0.5837080000000  0.4871010000000  0.5039380000000 1.0
C      1  0.5195500000000  0.4258500000000  0.5544680000000 1.0
C      1  0.5565840000000  0.5532470000000  0.5532010000000 1.0
C      1  0.4182570000000  0.5245750000000  0.5504660000000 1.0
C      1  0.4822320000000  0.4286950000000  0.4447520000000 1.0
C      1  0.4442820000000  0.5494040000000  0.4463600000000 1.0
C      1  0.5793000000000  0.5234860000000  0.4495150000000 1.0
C      1  0.4351110000000  0.5442010000000  0.5631890000000 1.0
C      1  0.5015180000000  0.4374390000000  0.5739880000000 1.0
C      1  0.5658230000000  0.5312070000000  0.5696120000000 1.0
C      1  0.5638840000000  0.5418900000000  0.4339270000000 1.0
C      1  0.4996230000000  0.4384820000000  0.4237720000000 1.0
C      1  0.4395010000000  0.5308670000000  0.4245310000000 1.0
C      1  0.4257660000000  0.5213790000000  0.4895370000000 1.0
C      1  0.5170680000000  0.4325340000000  0.4866850000000 1.0
C      1  0.5562580000000  0.5468720000000  0.4909310000000 1.0
C      1  0.5756200000000  0.5217790000000  0.5082420000000 1.0
C      1  0.4879380000000  0.4294010000000  0.5079220000000 1.0
C      1  0.4427070000000  0.5473810000000  0.5082520000000 1.0
C      1  0.4753120000000  0.5310770000000  0.4876830000000 1.0
C      1  0.4822060000000  0.4652630000000  0.4870090000000 1.0
C      1  0.5439170000000  0.5054580000000  0.4861290000000 1.0
C      1  0.5274260000000  0.5284720000000  0.5180720000000 1.0
C      1  0.5149570000000  0.4647730000000  0.5190890000000 1.0
C      1  0.4567700000000  0.5060710000000  0.5226920000000 1.0
C      1  0.5538230000000  0.5044020000000  0.5698210000000 1.0
C      1  0.4638430000000  0.5398990000000  0.5672510000000 1.0
C      1  0.4846570000000  0.4611080000000  0.5689390000000 1.0
C      1  0.4491480000000  0.5032100000000  0.4237730000000 1.0
C      1  0.5355130000000  0.5380270000000  0.4290350000000 1.0
C      1  0.5167530000000  0.4621800000000  0.4261130000000 1.0
C      1  0.5056950000000  0.4915710000000  0.4196550000000 1.0
C      1  0.5262580000000  0.5137780000000  0.4126930000000 1.0
C      1  0.4759740000000  0.4955610000000  0.4098310000000 1.0
C      1  0.4952690000000  0.4924360000000  0.5748120000000 1.0
C      1  0.4738500000000  0.5145180000000  0.5821860000000 1.0
C      1  0.5256320000000  0.4985750000000  0.5831820000000 1.0
C      1  0.4219890000000  0.4779720000000  0.5218060000000 1.0
C      1  0.5578930000000  0.4430470000000  0.5178110000000 1.0
C      1  0.5198540000000  0.5746160000000  0.5211570000000 1.0
C      1  0.5805600000000  0.4776850000000  0.4754010000000 1.0
C      1  0.4422300000000  0.4426360000000  0.4783600000000 1.0
C      1  0.4806810000000  0.5741080000000  0.4763620000000 1.0
C      1  0.5751750000000  0.4681230000000  0.5255180000000 1.0
C      1  0.4886540000000  0.5740890000000  0.5271890000000 1.0
C      1  0.4406540000000  0.4534540000000  0.5285190000000 1.0
C      1  0.4252190000000  0.4684250000000  0.4712330000000 1.0
C      1  0.5120150000000  0.5733130000000  0.4700980000000 1.0
C      1  0.5625550000000  0.4531890000000  0.4674120000000 1.0
C      1  0.5666220000000  0.5012140000000  0.4624780000000 1.0
C      1  0.4688120000000  0.5500270000000  0.4615960000000 1.0
C      1  0.4680090000000  0.4464200000000  0.4625120000000 1.0
C      1  0.4311520000000  0.5006750000000  0.5404150000000 1.0
C      1  0.5317820000000  0.5523560000000  0.5383680000000 1.0
C      1  0.5333170000000  0.4437360000000  0.5358810000000 1.0
C      1  0.4541640000000  0.5083990000000  0.4920820000000 1.0
C      1  0.5127360000000  0.4640220000000  0.4872780000000 1.0
C      1  0.5254770000000  0.5314740000000  0.4858650000000 1.0
C      1  0.5487060000000  0.5051660000000  0.5183860000000 1.0
C      1  0.4837370000000  0.4617700000000  0.5217120000000 1.0
C      1  0.4732220000000  0.5337090000000  0.5223180000000 1.0
C      1  0.4339810000000  0.4809000000000  0.4412610000000 1.0
C      1  0.5462750000000  0.4583580000000  0.4385470000000 1.0
C      1  0.5151880000000  0.5532500000000  0.4448380000000 1.0
C      1  0.5683870000000  0.4791710000000  0.5552090000000 1.0
C      1  0.4548490000000  0.4559670000000  0.5571420000000 1.0
C      1  0.4843040000000  0.5581490000000  0.5546110000000 1.0
C      1  0.5425680000000  0.4862770000000  0.4488390000000 1.0
C      1  0.4929740000000  0.5351880000000  0.4498690000000 1.0
C      1  0.4617970000000  0.4743200000000  0.4514680000000 1.0
C      1  0.4522110000000  0.4865850000000  0.5595770000000 1.0
C      1  0.5075410000000  0.5401370000000  0.5531040000000 1.0
C      1  0.5393410000000  0.4687950000000  0.5530130000000 1.0
C      1  0.5221860000000  0.4877370000000  0.4717740000000 1.0
C      1  0.4997350000000  0.5122450000000  0.4715830000000 1.0
C      1  0.4723080000000  0.4917420000000  0.4734090000000 1.0
C      1  0.4768210000000  0.4876820000000  0.5373900000000 1.0
C      1  0.5001670000000  0.5132190000000  0.5356130000000 1.0
C      1  0.5260270000000  0.4899270000000  0.5345630000000 1.0
C      1  0.4990980000000  0.5007440000000  0.5043130000000 1.0
END
