TITL C-862500-986-19 0.000330540813708595 125000 -930.944294339073 0 0 165 (C4h) n - 1
REM
REM in /home/nfs/bkarasulu/CARBON/AIRSS/Generating-Clusters/TERSOFF/Higher-Symm/FIRE-HFTN
REM
REM
REM
REM
REM
REM ./C.cell (b20cbc046b6831c77cfcea5457e17084)
REM AIRSS Version 0.9.1 bugfix July 2018 build 013d7b7c2542+ Fri, 06 Jul 2018 19:26:36 +0100
REM compiler GCC version 9.2.1 20190827 (Red Hat 9.2.1-1)
REM options -cpp -mtune=generic -march=x86-64 -g -O0 -fpre-include=/usr/include/finclude/math-vector-fortran.h
REM seed 250935236 291584412 873208186 -1531788594 2127932719 -236854544 2118878034 1639622603 -1489767299 -1019169324 -1416677850 391309434 -1323631334 -696996558 -997833418 1048650762 -2093857185 -1851428880 228311856 1638587966 -721278635 -1872290831 480930905 1821955203 815411778 -329333051 942226686 -825459418 1557562760 469561479 1837931688 -1324900699 577483423
REM
CELL 1.54180   50.00000   50.00000   50.00000   90.00000   90.00000   90.00000
LATT -1
SFAC C  
C      1  0.5311890000000  0.4632040000000  0.4068330000000 1.0
C      1  0.5311890000000  0.5929690000000  0.4630140000000 1.0
C      1  0.5311890000000  0.5367880000000  0.5927790000000 1.0
C      1  0.5311890000000  0.4070230000000  0.5365970000000 1.0
C      1  0.4694080000000  0.4632040000000  0.4068330000000 1.0
C      1  0.4694080000000  0.5929690000000  0.4630140000000 1.0
C      1  0.4694080000000  0.5367880000000  0.5927790000000 1.0
C      1  0.4694080000000  0.4070230000000  0.5365970000000 1.0
C      1  0.5322530000000  0.4056250000000  0.4843130000000 1.0
C      1  0.5322530000000  0.5154890000000  0.4054350000000 1.0
C      1  0.5322530000000  0.5943670000000  0.5152980000000 1.0
C      1  0.5322530000000  0.4845040000000  0.5941770000000 1.0
C      1  0.4683440000000  0.4056250000000  0.4843130000000 1.0
C      1  0.4683440000000  0.5154890000000  0.4054350000000 1.0
C      1  0.4683440000000  0.5943670000000  0.5152980000000 1.0
C      1  0.4683440000000  0.4845040000000  0.5941770000000 1.0
C      1  0.4242060000000  0.4957460000000  0.5384840000000 1.0
C      1  0.4242060000000  0.4613180000000  0.4955550000000 1.0
C      1  0.4242060000000  0.5042470000000  0.4611280000000 1.0
C      1  0.4242060000000  0.5386740000000  0.5040560000000 1.0
C      1  0.5763900000000  0.4957460000000  0.5384840000000 1.0
C      1  0.5763900000000  0.4613180000000  0.4955550000000 1.0
C      1  0.5763900000000  0.5042470000000  0.4611280000000 1.0
C      1  0.5763900000000  0.5386740000000  0.5040560000000 1.0
C      1  0.4709810000000  0.5843730000000  0.5670830000000 1.0
C      1  0.4709810000000  0.4327190000000  0.5841820000000 1.0
C      1  0.4709810000000  0.4156200000000  0.4325290000000 1.0
C      1  0.4709810000000  0.5672730000000  0.4154290000000 1.0
C      1  0.5296150000000  0.5843730000000  0.5670830000000 1.0
C      1  0.5296150000000  0.4327190000000  0.5841820000000 1.0
C      1  0.5296150000000  0.4156200000000  0.4325290000000 1.0
C      1  0.5296150000000  0.5672730000000  0.4154290000000 1.0
C      1  0.5515020000000  0.5193680000000  0.5143860000000 1.0
C      1  0.5515020000000  0.4854160000000  0.5191770000000 1.0
C      1  0.5515020000000  0.4806250000000  0.4852260000000 1.0
C      1  0.5515020000000  0.5145760000000  0.4804340000000 1.0
C      1  0.4490950000000  0.5193680000000  0.5143860000000 1.0
C      1  0.4490950000000  0.4854160000000  0.5191770000000 1.0
C      1  0.4490950000000  0.4806250000000  0.4852260000000 1.0
C      1  0.4490950000000  0.5145760000000  0.4804340000000 1.0
C      1  0.5156780000000  0.4039840000000  0.4570290000000 1.0
C      1  0.5156780000000  0.5427730000000  0.4037940000000 1.0
C      1  0.5156780000000  0.5960080000000  0.5425830000000 1.0
C      1  0.5156780000000  0.4572190000000  0.5958180000000 1.0
C      1  0.4849190000000  0.4039840000000  0.4570290000000 1.0
C      1  0.4849190000000  0.5427730000000  0.4037940000000 1.0
C      1  0.4849190000000  0.5960080000000  0.5425830000000 1.0
C      1  0.4849190000000  0.4572190000000  0.5958180000000 1.0
C      1  0.4481830000000  0.4408560000000  0.5662880000000 1.0
C      1  0.4481830000000  0.4335140000000  0.4406660000000 1.0
C      1  0.4481830000000  0.5591360000000  0.4333230000000 1.0
C      1  0.4481830000000  0.5664790000000  0.5589460000000 1.0
C      1  0.5524140000000  0.4408560000000  0.5662880000000 1.0
C      1  0.5524140000000  0.4335140000000  0.4406660000000 1.0
C      1  0.5524140000000  0.5591360000000  0.4333230000000 1.0
C      1  0.5524140000000  0.5664790000000  0.5589460000000 1.0
C      1  0.4853750000000  0.4146680000000  0.5627360000000 1.0
C      1  0.4853750000000  0.4370660000000  0.4144770000000 1.0
C      1  0.4853750000000  0.5853250000000  0.4368750000000 1.0
C      1  0.4853750000000  0.5629270000000  0.5851340000000 1.0
C      1  0.5152220000000  0.4146680000000  0.5627360000000 1.0
C      1  0.5152220000000  0.4370660000000  0.4144770000000 1.0
C      1  0.5152220000000  0.5853250000000  0.4368750000000 1.0
C      1  0.5152220000000  0.5629260000000  0.5851340000000 1.0
C      1  0.4349120000000  0.4816710000000  0.5870600000000 1.0
C      1  0.4349120000000  0.4127420000000  0.4814810000000 1.0
C      1  0.4349120000000  0.5183210000000  0.4125510000000 1.0
C      1  0.4349120000000  0.5872510000000  0.5181310000000 1.0
C      1  0.5656840000000  0.4816710000000  0.5870600000000 1.0
C      1  0.5656840000000  0.4127420000000  0.4814810000000 1.0
C      1  0.5656840000000  0.5183210000000  0.4125510000000 1.0
C      1  0.5656840000000  0.5872510000000  0.5181310000000 1.0
C      1  0.4678470000000  0.5492400000000  0.4534100000000 1.0
C      1  0.4678460000000  0.5463920000000  0.5490490000000 1.0
C      1  0.4678460000000  0.4507530000000  0.5462020000000 1.0
C      1  0.4678460000000  0.4536000000000  0.4505620000000 1.0
C      1  0.5327500000000  0.5492400000000  0.4534100000000 1.0
C      1  0.5327500000000  0.5463920000000  0.5490490000000 1.0
C      1  0.5327500000000  0.4507530000000  0.5462020000000 1.0
C      1  0.5327500000000  0.4536000000000  0.4505620000000 1.0
C      1  0.4752170000000  0.4982430000000  0.5656310000000 1.0
C      1  0.4752170000000  0.4341710000000  0.4980530000000 1.0
C      1  0.4752170000000  0.5017490000000  0.4339800000000 1.0
C      1  0.4752170000000  0.5658220000000  0.5015590000000 1.0
C      1  0.5253790000000  0.4982430000000  0.5656310000000 1.0
C      1  0.5253790000000  0.4341710000000  0.4980530000000 1.0
C      1  0.5253790000000  0.5017490000000  0.4339800000000 1.0
C      1  0.5253790000000  0.5658220000000  0.5015590000000 1.0
C      1  0.4247980000000  0.5705160000000  0.4964160000000 1.0
C      1  0.4247980000000  0.5033860000000  0.5703260000000 1.0
C      1  0.4247980000000  0.4294760000000  0.5031960000000 1.0
C      1  0.4247980000000  0.4966060000000  0.4292850000000 1.0
C      1  0.5757990000000  0.5705160000000  0.4964160000000 1.0
C      1  0.5757990000000  0.5033860000000  0.5703260000000 1.0
C      1  0.5757990000000  0.4294760000000  0.5031960000000 1.0
C      1  0.5757990000000  0.4966060000000  0.4292860000000 1.0
C      1  0.3975820000000  0.5116700000000  0.4767660000000 1.0
C      1  0.3975820000000  0.5230360000000  0.5114790000000 1.0
C      1  0.3975820000000  0.4883230000000  0.5228460000000 1.0
C      1  0.3975820000000  0.4769560000000  0.4881320000000 1.0
C      1  0.6030140000000  0.5116700000000  0.4767660000000 1.0
C      1  0.6030140000000  0.5230360000000  0.5114790000000 1.0
C      1  0.6030140000000  0.4883230000000  0.5228460000000 1.0
C      1  0.6030140000000  0.4769560000000  0.4881320000000 1.0
C      1  0.5754990000000  0.5417930000000  0.4281010000000 1.0
C      1  0.5754990000000  0.5717010000000  0.5416030000000 1.0
C      1  0.5754990000000  0.4581990000000  0.5715100000000 1.0
C      1  0.5754990000000  0.4282910000000  0.4580090000000 1.0
C      1  0.4250970000000  0.5417930000000  0.4281010000000 1.0
C      1  0.4250970000000  0.5717010000000  0.5416030000000 1.0
C      1  0.4250970000000  0.4581990000000  0.5715100000000 1.0
C      1  0.4250970000000  0.4282920000000  0.4580090000000 1.0
C      1  0.5594810000000  0.5766860000000  0.4705580000000 1.0
C      1  0.5594810000000  0.5292440000000  0.5764950000000 1.0
C      1  0.5594810000000  0.4233070000000  0.5290530000000 1.0
C      1  0.5594810000000  0.4707490000000  0.4231160000000 1.0
C      1  0.4411150000000  0.5766860000000  0.4705580000000 1.0
C      1  0.4411150000000  0.5292440000000  0.5764950000000 1.0
C      1  0.4411150000000  0.4233070000000  0.5290530000000 1.0
C      1  0.4411150000000  0.4707490000000  0.4231160000000 1.0
C      1  0.5429880000000  0.4810720000000  0.4500570000000 1.0
C      1  0.5429880000000  0.5497450000000  0.4808820000000 1.0
C      1  0.5429880000000  0.5189200000000  0.5495540000000 1.0
C      1  0.5429880000000  0.4502470000000  0.5187300000000 1.0
C      1  0.4576080000000  0.4810720000000  0.4500570000000 1.0
C      1  0.4576080000000  0.5497450000000  0.4808820000000 1.0
C      1  0.4576080000000  0.5189200000000  0.5495540000000 1.0
C      1  0.4576080000000  0.4502470000000  0.5187300000000 1.0
C      1  0.5216940000000  0.5259080000000  0.5140500000000 1.0
C      1  0.5216940000000  0.4857520000000  0.5257180000000 1.0
C      1  0.5216940000000  0.4740840000000  0.4855620000000 1.0
C      1  0.5216940000000  0.5142400000000  0.4738940000000 1.0
C      1  0.4789020000000  0.5259080000000  0.5140500000000 1.0
C      1  0.4789020000000  0.4857520000000  0.5257180000000 1.0
C      1  0.4789020000000  0.4740840000000  0.4855620000000 1.0
C      1  0.4789020000000  0.5142400000000  0.4738940000000 1.0
C      1  0.4842450000000  0.6046310000000  0.4875410000000 1.0
C      1  0.4842450000000  0.5122610000000  0.6044410000000 1.0
C      1  0.4842450000000  0.3953610000000  0.5120710000000 1.0
C      1  0.4842450000000  0.4877310000000  0.3951700000000 1.0
C      1  0.5163510000000  0.6046310000000  0.4875410000000 1.0
C      1  0.5163510000000  0.5122610000000  0.6044410000000 1.0
C      1  0.5163510000000  0.3953610000000  0.5120710000000 1.0
C      1  0.5163510000000  0.4877310000000  0.3951700000000 1.0
C      1  0.6002410000000  0.5372850000000  0.4511560000000 1.0
C      1  0.6002420000000  0.5486460000000  0.5370950000000 1.0
C      1  0.6002420000000  0.4627070000000  0.5484550000000 1.0
C      1  0.6002420000000  0.4513470000000  0.4625170000000 1.0
C      1  0.4003550000000  0.5372850000000  0.4511560000000 1.0
C      1  0.4003550000000  0.5486460000000  0.5370950000000 1.0
C      1  0.4003550000000  0.4627070000000  0.5484550000000 1.0
C      1  0.4003550000000  0.4513470000000  0.4625170000000 1.0
C      1  0.5147410000000  0.5513270000000  0.5262080000000 1.0
C      1  0.5147410000000  0.4735940000000  0.5511360000000 1.0
C      1  0.5147410000000  0.4486660000000  0.4734030000000 1.0
C      1  0.5147410000000  0.5263990000000  0.4484750000000 1.0
C      1  0.4858560000000  0.5513270000000  0.5262080000000 1.0
C      1  0.4858560000000  0.4735940000000  0.5511360000000 1.0
C      1  0.4858560000000  0.4486660000000  0.4734030000000 1.0
C      1  0.4858560000000  0.5263990000000  0.4484750000000 1.0
C      1  0.5002980000000  0.5130540000000  0.5656820000000 1.0
C      1  0.5002980000000  0.4341200000000  0.5128640000000 1.0
C      1  0.5002980000000  0.4869380000000  0.4339300000000 1.0
C      1  0.5002980000000  0.5658720000000  0.4867480000000 1.0
C      1  0.5002980000000  0.4999960000000  0.4998060000000 1.0
END
