TITL C-862501-1041-232 -0.00703323178921421 125000 -15.9241981017972 0 0 5 (D(inf)h) n - 1
REM
REM in /home/nfs/bkarasulu/CARBON/AIRSS/Generating-Clusters/TERSOFF/Higher-Symm/FIRE-HFTN
REM
REM
REM
REM
REM
REM ./C.cell (b20cbc046b6831c77cfcea5457e17084)
REM AIRSS Version 0.9.1 bugfix July 2018 build 013d7b7c2542+ Fri, 06 Jul 2018 19:26:36 +0100
REM compiler GCC version 9.2.1 20190827 (Red Hat 9.2.1-1)
REM options -cpp -mtune=generic -march=x86-64 -g -O0 -fpre-include=/usr/include/finclude/math-vector-fortran.h
REM seed -51685885 1478681552 -2040843149 -227182918 836708681 1182223593 -2080382751 1712503189 -1541759800 -1366469059 -65984595 1237913028 43429622 -1206236036 1668572439 -1689062643 1490398770 1846445328 260492685 -1669453003 -360660050 -1614605541 109177538 1840227643 1501789952 1152490130 1253165850 -483388619 746154354 1430119975 -1716344855 -829676743 -2058209037
REM
CELL 1.54180   50.00000   50.00000   50.00000   90.00000   90.00000   90.00000
LATT -1
SFAC C  
C      1  0.5609220000000  0.4994300000000  0.5030400000000 1.0
C      1  0.5309890000000  0.4994300000000  0.5030400000000 1.0
C      1  0.4390780000000  0.4994300000000  0.5030400000000 1.0
C      1  0.4690110000000  0.4994300000000  0.5030400000000 1.0
C      1  0.5000000000000  0.4994300000000  0.5030400000000 1.0
END
