TITL C-862129-6180-1246 0.0147573047541878 125000 -439.753012970507 0 0 91 (S8) n - 1
REM
REM in /home/nfs/bkarasulu/CARBON/AIRSS/Generating-Clusters/TERSOFF/Higher-Symm/FIRE-HFTN
REM
REM
REM
REM
REM
REM ./C.cell (b20cbc046b6831c77cfcea5457e17084)
REM AIRSS Version 0.9.1 bugfix July 2018 build 013d7b7c2542+ Fri, 06 Jul 2018 19:26:36 +0100
REM compiler GCC version 9.2.1 20190827 (Red Hat 9.2.1-1)
REM options -cpp -mtune=generic -march=x86-64 -g -O0 -fpre-include=/usr/include/finclude/math-vector-fortran.h
REM seed -227046260 -789131446 1665582817 -1787885187 -103011216 884591760 -766820940 2094233467 -1140184157 -728426344 397164442 -2129749024 118140894 -665273832 1411977011 38277243 1364584503 -492933737 425703542 1529233386 1006486948 1375196470 716860974 -473271252 798043880 782689481 -1682531525 -330736651 1278257094 -563052759 529992632 -1590184023 -1420804836
REM
CELL 1.54180   50.00000   50.00000   50.00000   90.00000   90.00000   90.00000
LATT -1
SFAC C  
C      1  0.5396210000000  0.4824450000000  0.5633960000000 1.0
C      1  0.4600830000000  0.5328390000000  0.5572470000000 1.0
C      1  0.5396210000000  0.5641240000000  0.5172650000000 1.0
C      1  0.4600830000000  0.5579740000000  0.4668710000000 1.0
C      1  0.5396210000000  0.5179920000000  0.4355860000000 1.0
C      1  0.4600820000000  0.4675980000000  0.4417360000000 1.0
C      1  0.5396210000000  0.4363130000000  0.4817180000000 1.0
C      1  0.4600830000000  0.4424630000000  0.5321110000000 1.0
C      1  0.4885180000000  0.4729340000000  0.5629240000000 1.0
C      1  0.5111860000000  0.5257790000000  0.5636380000000 1.0
C      1  0.4885180000000  0.5636510000000  0.5267750000000 1.0
C      1  0.5111860000000  0.5643650000000  0.4739300000000 1.0
C      1  0.4885180000000  0.5275030000000  0.4360590000000 1.0
C      1  0.5111850000000  0.4746580000000  0.4353450000000 1.0
C      1  0.4885180000000  0.4367860000000  0.4722070000000 1.0
C      1  0.5111860000000  0.4360720000000  0.5250520000000 1.0
C      1  0.4208720000000  0.5284090000000  0.4586170000000 1.0
C      1  0.5788320000000  0.4912500000000  0.4506550000000 1.0
C      1  0.4208720000000  0.4593440000000  0.4713000000000 1.0
C      1  0.5788320000000  0.4513820000000  0.5084590000000 1.0
C      1  0.4208720000000  0.4720270000000  0.5403650000000 1.0
C      1  0.5788320000000  0.5091860000000  0.5483270000000 1.0
C      1  0.4208720000000  0.5410920000000  0.5276820000000 1.0
C      1  0.5788320000000  0.5490550000000  0.4905230000000 1.0
C      1  0.5084440000000  0.4449630000000  0.4477110000000 1.0
C      1  0.4912590000000  0.4245330000000  0.5019480000000 1.0
C      1  0.5084440000000  0.4484380000000  0.5547460000000 1.0
C      1  0.4912600000000  0.5026760000000  0.5751770000000 1.0
C      1  0.5084440000000  0.5554740000000  0.5512710000000 1.0
C      1  0.4912600000000  0.5759040000000  0.4970340000000 1.0
C      1  0.5084440000000  0.5519980000000  0.4442360000000 1.0
C      1  0.4912590000000  0.4977610000000  0.4238060000000 1.0
C      1  0.5868060000000  0.5098140000000  0.4780340000000 1.0
C      1  0.4128980000000  0.4918310000000  0.4775340000000 1.0
C      1  0.5868060000000  0.4787620000000  0.4898950000000 1.0
C      1  0.4128980000000  0.4782610000000  0.5078780000000 1.0
C      1  0.5868060000000  0.4906220000000  0.5209470000000 1.0
C      1  0.4128980000000  0.5086050000000  0.5214490000000 1.0
C      1  0.5868060000000  0.5216750000000  0.5090870000000 1.0
C      1  0.4128980000000  0.5221760000000  0.4911040000000 1.0
C      1  0.5207850000000  0.4854160000000  0.5391160000000 1.0
C      1  0.4789190000000  0.5177710000000  0.5379770000000 1.0
C      1  0.5207850000000  0.5398440000000  0.5142930000000 1.0
C      1  0.4789190000000  0.5387040000000  0.4819380000000 1.0
C      1  0.5207840000000  0.5150200000000  0.4598660000000 1.0
C      1  0.4789190000000  0.4826660000000  0.4610050000000 1.0
C      1  0.5207840000000  0.4605930000000  0.4846890000000 1.0
C      1  0.4789190000000  0.4617320000000  0.5170440000000 1.0
C      1  0.4202120000000  0.5623100000000  0.5010900000000 1.0
C      1  0.5794920000000  0.5452540000000  0.4567160000000 1.0
C      1  0.4202120000000  0.5018170000000  0.4374000000000 1.0
C      1  0.5794920000000  0.4574440000000  0.4544550000000 1.0
C      1  0.4202120000000  0.4381270000000  0.4978930000000 1.0
C      1  0.5794920000000  0.4551830000000  0.5422660000000 1.0
C      1  0.4202120000000  0.4986200000000  0.5615830000000 1.0
C      1  0.5794920000000  0.5429930000000  0.5445270000000 1.0
C      1  0.4668550000000  0.5500680000000  0.4387040000000 1.0
C      1  0.5328480000000  0.4924840000000  0.4212590000000 1.0
C      1  0.4668550000000  0.4394310000000  0.4496420000000 1.0
C      1  0.5328490000000  0.4219860000000  0.5072250000000 1.0
C      1  0.4668550000000  0.4503690000000  0.5602790000000 1.0
C      1  0.5328490000000  0.5079520000000  0.5777230000000 1.0
C      1  0.4668550000000  0.5610060000000  0.5493410000000 1.0
C      1  0.5328490000000  0.5784500000000  0.4917570000000 1.0
C      1  0.4789190000000  0.5137940000000  0.4628270000000 1.0
C      1  0.5207850000000  0.4838920000000  0.4639660000000 1.0
C      1  0.4789190000000  0.4635540000000  0.4859160000000 1.0
C      1  0.5207850000000  0.4646940000000  0.5158170000000 1.0
C      1  0.4789190000000  0.4866430000000  0.5361550000000 1.0
C      1  0.5207850000000  0.5165450000000  0.5350160000000 1.0
C      1  0.4789190000000  0.5368820000000  0.5130660000000 1.0
C      1  0.5207850000000  0.5357430000000  0.4831650000000 1.0
C      1  0.5539740000000  0.4841480000000  0.4744210000000 1.0
C      1  0.4457290000000  0.4711270000000  0.4931280000000 1.0
C      1  0.5539740000000  0.4751480000000  0.5155620000000 1.0
C      1  0.4457290000000  0.4938550000000  0.5285820000000 1.0
C      1  0.5539740000000  0.5162890000000  0.5245610000000 1.0
C      1  0.4457290000000  0.5293090000000  0.5058550000000 1.0
C      1  0.5539740000000  0.5252880000000  0.4834200000000 1.0
C      1  0.4457290000000  0.5065820000000  0.4704000000000 1.0
C      1  0.4313060000000  0.5262330000000  0.5547940000000 1.0
C      1  0.5683980000000  0.5577180000000  0.5202010000000 1.0
C      1  0.4313060000000  0.5555210000000  0.4734770000000 1.0
C      1  0.5683980000000  0.5209280000000  0.4419910000000 1.0
C      1  0.4313060000000  0.4742040000000  0.4441890000000 1.0
C      1  0.5683980000000  0.4427190000000  0.4787810000000 1.0
C      1  0.4313060000000  0.4449160000000  0.5255060000000 1.0
C      1  0.5683980000000  0.4795080000000  0.5569910000000 1.0
C      1  0.4637200000000  0.5002180000000  0.4994910000000 1.0
C      1  0.5359840000000  0.5002180000000  0.4994910000000 1.0
C      1  0.4998520000000  0.5002180000000  0.4994910000000 1.0
END
