TITL C-862128-1543-368 -0.000541139620065395 125000 -727.851555541322 0 0 139 (C2) n - 1
REM
REM in /home/nfs/bkarasulu/CARBON/AIRSS/Generating-Clusters/TERSOFF/Higher-Symm/FIRE-HFTN
REM
REM
REM
REM
REM
REM ./C.cell (b20cbc046b6831c77cfcea5457e17084)
REM AIRSS Version 0.9.1 bugfix July 2018 build 013d7b7c2542+ Fri, 06 Jul 2018 19:26:36 +0100
REM compiler GCC version 9.2.1 20190827 (Red Hat 9.2.1-1)
REM options -cpp -mtune=generic -march=x86-64 -g -O0 -fpre-include=/usr/include/finclude/math-vector-fortran.h
REM seed 406229948 1407192352 -858607768 -1708123907 1933719581 2147219114 127918731 2133281108 1470807120 -1629422279 -1973601454 1692823561 -1436289981 -571689741 -486536472 537929105 359763020 -1883798031 1559905808 -2118917046 -538312237 -1016412505 -1076372473 -1725118897 -621544889 841190874 -72279546 512885866 -1407895827 771131164 -1703453902 1179665133 -882651129
REM
CELL 1.54180   50.00000   50.00000   50.00000   90.00000   90.00000   90.00000
LATT -1
SFAC C  
C      1  0.5397740000000  0.5689280000000  0.4344630000000 1.0
C      1  0.5643650000000  0.4634490000000  0.4330390000000 1.0
C      1  0.4620480000000  0.4348990000000  0.4352520000000 1.0
C      1  0.4348490000000  0.5336460000000  0.4327290000000 1.0
C      1  0.5397770000000  0.4313210000000  0.5643860000000 1.0
C      1  0.5643650000000  0.5368000000000  0.5658100000000 1.0
C      1  0.4620470000000  0.5653470000000  0.5635980000000 1.0
C      1  0.4348510000000  0.4665990000000  0.5661220000000 1.0
C      1  0.4284180000000  0.4435130000000  0.5501780000000 1.0
C      1  0.4414660000000  0.5734720000000  0.5453480000000 1.0
C      1  0.5724190000000  0.5584060000000  0.5489750000000 1.0
C      1  0.5595660000000  0.4228000000000  0.5454070000000 1.0
C      1  0.4284160000000  0.5567320000000  0.4486730000000 1.0
C      1  0.4414680000000  0.4267730000000  0.4535020000000 1.0
C      1  0.5724200000000  0.4418430000000  0.4498750000000 1.0
C      1  0.5595630000000  0.5774490000000  0.4534420000000 1.0
C      1  0.5648500000000  0.4423770000000  0.4775360000000 1.0
C      1  0.4427410000000  0.4353650000000  0.4809810000000 1.0
C      1  0.4362320000000  0.5570810000000  0.4764510000000 1.0
C      1  0.5585200000000  0.5668580000000  0.4803000000000 1.0
C      1  0.5648490000000  0.5578720000000  0.5213130000000 1.0
C      1  0.4427390000000  0.5648800000000  0.5178700000000 1.0
C      1  0.4362340000000  0.4431640000000  0.5224000000000 1.0
C      1  0.5585220000000  0.4333900000000  0.5185490000000 1.0
C      1  0.5387910000000  0.4966550000000  0.5388150000000 1.0
C      1  0.4990650000000  0.4587910000000  0.5369450000000 1.0
C      1  0.4603390000000  0.5051650000000  0.5357440000000 1.0
C      1  0.5026290000000  0.5380420000000  0.5395150000000 1.0
C      1  0.5387910000000  0.5035930000000  0.4600350000000 1.0
C      1  0.4990640000000  0.5414550000000  0.4619040000000 1.0
C      1  0.4603390000000  0.4950810000000  0.4631060000000 1.0
C      1  0.5026300000000  0.4622050000000  0.4593350000000 1.0
C      1  0.4819800000000  0.5236620000000  0.5197600000000 1.0
C      1  0.5235700000000  0.5183930000000  0.5212710000000 1.0
C      1  0.5196570000000  0.4766380000000  0.5199430000000 1.0
C      1  0.4780250000000  0.4818620000000  0.5207550000000 1.0
C      1  0.4819800000000  0.4765850000000  0.4790900000000 1.0
C      1  0.5235710000000  0.4818550000000  0.4775790000000 1.0
C      1  0.5196560000000  0.5236100000000  0.4789070000000 1.0
C      1  0.4780250000000  0.5183840000000  0.4780950000000 1.0
C      1  0.5856690000000  0.4441110000000  0.5012930000000 1.0
C      1  0.4444900000000  0.4147870000000  0.5050870000000 1.0
C      1  0.4155280000000  0.5557510000000  0.5002520000000 1.0
C      1  0.5558030000000  0.5855330000000  0.5054230000000 1.0
C      1  0.5856670000000  0.5561390000000  0.4975560000000 1.0
C      1  0.4444870000000  0.5854580000000  0.4937630000000 1.0
C      1  0.4155290000000  0.4444930000000  0.4985990000000 1.0
C      1  0.5558060000000  0.4147160000000  0.4934270000000 1.0
C      1  0.5035690000000  0.6014600000000  0.4512480000000 1.0
C      1  0.6013600000000  0.4948230000000  0.4498970000000 1.0
C      1  0.4941660000000  0.3982340000000  0.4498850000000 1.0
C      1  0.3977630000000  0.5037580000000  0.4507680000000 1.0
C      1  0.5035720000000  0.3987870000000  0.5476020000000 1.0
C      1  0.6013610000000  0.5054270000000  0.5489520000000 1.0
C      1  0.4941640000000  0.6020130000000  0.5489650000000 1.0
C      1  0.3977640000000  0.4964860000000  0.5480830000000 1.0
C      1  0.4771990000000  0.5109610000000  0.6016500000000 1.0
C      1  0.5070860000000  0.5198520000000  0.6010030000000 1.0
C      1  0.5204780000000  0.4905170000000  0.6049680000000 1.0
C      1  0.4888510000000  0.4820710000000  0.6025010000000 1.0
C      1  0.4771990000000  0.4892850000000  0.3972000000000 1.0
C      1  0.5070860000000  0.4803950000000  0.3978470000000 1.0
C      1  0.5204770000000  0.5097300000000  0.3938820000000 1.0
C      1  0.4888490000000  0.5181750000000  0.3963490000000 1.0
C      1  0.5914370000000  0.4767910000000  0.5616420000000 1.0
C      1  0.4768730000000  0.4140300000000  0.5575960000000 1.0
C      1  0.4076340000000  0.5251740000000  0.5602090000000 1.0
C      1  0.5224090000000  0.5910160000000  0.5613670000000 1.0
C      1  0.5914360000000  0.5234590000000  0.4372070000000 1.0
C      1  0.4768700000000  0.5862170000000  0.4412540000000 1.0
C      1  0.4076340000000  0.4750700000000  0.4386420000000 1.0
C      1  0.5224110000000  0.4092320000000  0.4374830000000 1.0
C      1  0.4891890000000  0.5665650000000  0.4823370000000 1.0
C      1  0.5657280000000  0.5122450000000  0.4816420000000 1.0
C      1  0.5115160000000  0.4346010000000  0.4802300000000 1.0
C      1  0.4341670000000  0.4877050000000  0.4824930000000 1.0
C      1  0.4891920000000  0.4336810000000  0.5165130000000 1.0
C      1  0.5657290000000  0.4880040000000  0.5172080000000 1.0
C      1  0.5115140000000  0.5656470000000  0.5186190000000 1.0
C      1  0.4341660000000  0.5125400000000  0.5163580000000 1.0
C      1  0.4598030000000  0.4798260000000  0.5601550000000 1.0
C      1  0.4726520000000  0.5387830000000  0.5598350000000 1.0
C      1  0.5381200000000  0.5255130000000  0.5607670000000 1.0
C      1  0.5280350000000  0.4568830000000  0.5586360000000 1.0
C      1  0.4598010000000  0.5204200000000  0.4386950000000 1.0
C      1  0.4726530000000  0.4614630000000  0.4390150000000 1.0
C      1  0.5381200000000  0.4747350000000  0.4380830000000 1.0
C      1  0.5280330000000  0.5433650000000  0.4402130000000 1.0
C      1  0.5164900000000  0.4631000000000  0.4197020000000 1.0
C      1  0.4602390000000  0.4812020000000  0.4194780000000 1.0
C      1  0.4842730000000  0.5298140000000  0.4245550000000 1.0
C      1  0.5368110000000  0.5179940000000  0.4208880000000 1.0
C      1  0.5164900000000  0.5371480000000  0.5791470000000 1.0
C      1  0.4602390000000  0.5190440000000  0.5793720000000 1.0
C      1  0.4842750000000  0.4704320000000  0.5742950000000 1.0
C      1  0.5368120000000  0.4822540000000  0.5779620000000 1.0
C      1  0.4899080000000  0.4119080000000  0.4763450000000 1.0
C      1  0.4115900000000  0.5084080000000  0.4769150000000 1.0
C      1  0.5105260000000  0.5899630000000  0.4786690000000 1.0
C      1  0.5886790000000  0.4913490000000  0.4768570000000 1.0
C      1  0.4899060000000  0.5883380000000  0.5225040000000 1.0
C      1  0.4115910000000  0.4918360000000  0.5219350000000 1.0
C      1  0.5105290000000  0.4102850000000  0.5201810000000 1.0
C      1  0.5886790000000  0.5089000000000  0.5219920000000 1.0
C      1  0.5828290000000  0.5162610000000  0.5729550000000 1.0
C      1  0.5163710000000  0.4158150000000  0.5716100000000 1.0
C      1  0.4148850000000  0.4859860000000  0.5733170000000 1.0
C      1  0.4826160000000  0.5834110000000  0.5722590000000 1.0
C      1  0.5828290000000  0.4839890000000  0.4258940000000 1.0
C      1  0.5163680000000  0.5844330000000  0.4272390000000 1.0
C      1  0.4148840000000  0.5142580000000  0.4255340000000 1.0
C      1  0.4826180000000  0.4168360000000  0.4265910000000 1.0
C      1  0.4477170000000  0.5271910000000  0.4870500000000 1.0
C      1  0.5284450000000  0.5535570000000  0.4893400000000 1.0
C      1  0.5526120000000  0.4727870000000  0.4875380000000 1.0
C      1  0.4728350000000  0.4477360000000  0.4899320000000 1.0
C      1  0.4477170000000  0.4730540000000  0.5118000000000 1.0
C      1  0.5284470000000  0.4466910000000  0.5095090000000 1.0
C      1  0.5526110000000  0.5274610000000  0.5113120000000 1.0
C      1  0.4728330000000  0.5525100000000  0.5089180000000 1.0
C      1  0.5277890000000  0.4077690000000  0.4937770000000 1.0
C      1  0.4076710000000  0.4723370000000  0.4979220000000 1.0
C      1  0.4727050000000  0.5928640000000  0.4964210000000 1.0
C      1  0.5921510000000  0.5278440000000  0.4971810000000 1.0
C      1  0.5277860000000  0.5924790000000  0.5050730000000 1.0
C      1  0.4076700000000  0.5279070000000  0.5009290000000 1.0
C      1  0.4727080000000  0.4073820000000  0.5024290000000 1.0
C      1  0.5921520000000  0.4724060000000  0.5016680000000 1.0
C      1  0.4881610000000  0.5626260000000  0.4222140000000 1.0
C      1  0.5679830000000  0.5122040000000  0.4179880000000 1.0
C      1  0.5112820000000  0.4324630000000  0.4178310000000 1.0
C      1  0.4298150000000  0.4856170000000  0.4177690000000 1.0
C      1  0.4881640000000  0.4376200000000  0.5766360000000 1.0
C      1  0.5679840000000  0.4880450000000  0.5808610000000 1.0
C      1  0.5112810000000  0.5677840000000  0.5810190000000 1.0
C      1  0.4298150000000  0.5146270000000  0.5810810000000 1.0
C      1  0.5066150000000  0.5080060000000  0.4334230000000 1.0
C      1  0.5066160000000  0.4922410000000  0.5654260000000 1.0
C      1  0.5009870000000  0.5001230000000  0.4994250000000 1.0
END
