TITL C-862134-6730-134 -0.0930634704102873 125000 -983.074889695428 0 0 174 (C1) n - 1
REM
REM in /home/nfs/bkarasulu/CARBON/AIRSS/Generating-Clusters/TERSOFF/Higher-Symm/FIRE-HFTN
REM
REM
REM
REM
REM
REM ./C.cell (b20cbc046b6831c77cfcea5457e17084)
REM AIRSS Version 0.9.1 bugfix July 2018 build 013d7b7c2542+ Fri, 06 Jul 2018 19:26:36 +0100
REM compiler GCC version 9.2.1 20190827 (Red Hat 9.2.1-1)
REM options -cpp -mtune=generic -march=x86-64 -g -O0 -fpre-include=/usr/include/finclude/math-vector-fortran.h
REM seed -1180566945 -1992302851 -615331792 130602246 509801898 -1998841402 614699651 -884065975 -1817122935 -178995473 -393917785 -252783805 -2089916462 1015387120 1017680641 481808474 265472475 -1777314145 100129608 1092028604 -1153631748 510861651 -1005334751 1556486875 839143384 1300051228 -932699149 2143588395 1266842337 1842709854 -1686523555 1375727419 1472698138
REM
CELL 1.54180   50.00000   50.00000   50.00000   90.00000   90.00000   90.00000
LATT -1
SFAC C  
C      1  0.4005450000000  0.5350350000000  0.5056110000000 1.0
C      1  0.4025660000000  0.5159160000000  0.4680790000000 1.0
C      1  0.4026680000000  0.4743790000000  0.4738840000000 1.0
C      1  0.4038120000000  0.4676890000000  0.5166200000000 1.0
C      1  0.4040550000000  0.5053730000000  0.5351160000000 1.0
C      1  0.5984300000000  0.5344090000000  0.4945720000000 1.0
C      1  0.5994010000000  0.5155600000000  0.5323400000000 1.0
C      1  0.6001920000000  0.4733700000000  0.5257850000000 1.0
C      1  0.5987750000000  0.4669240000000  0.4842000000000 1.0
C      1  0.5964200000000  0.5043620000000  0.4653680000000 1.0
C      1  0.5409310000000  0.5167230000000  0.3663180000000 1.0
C      1  0.5385250000000  0.3786710000000  0.4410650000000 1.0
C      1  0.5372010000000  0.4044640000000  0.5956690000000 1.0
C      1  0.5386620000000  0.5632110000000  0.6191000000000 1.0
C      1  0.5390900000000  0.6318970000000  0.4770820000000 1.0
C      1  0.4652920000000  0.5198940000000  0.6334750000000 1.0
C      1  0.4626830000000  0.3787510000000  0.5589340000000 1.0
C      1  0.4643870000000  0.4051690000000  0.4037670000000 1.0
C      1  0.4610680000000  0.5655660000000  0.3820550000000 1.0
C      1  0.4622740000000  0.6313770000000  0.5237960000000 1.0
C      1  0.4553540000000  0.5762520000000  0.4619430000000 1.0
C      1  0.4550200000000  0.4865880000000  0.4126850000000 1.0
C      1  0.4552840000000  0.4143230000000  0.4861790000000 1.0
C      1  0.4560020000000  0.4601610000000  0.5778710000000 1.0
C      1  0.4556060000000  0.5596800000000  0.5605150000000 1.0
C      1  0.5468130000000  0.5769740000000  0.5393940000000 1.0
C      1  0.5478350000000  0.4860230000000  0.5866620000000 1.0
C      1  0.5467480000000  0.4138190000000  0.5139580000000 1.0
C      1  0.5464280000000  0.4594210000000  0.4231390000000 1.0
C      1  0.5464790000000  0.5608430000000  0.4384750000000 1.0
C      1  0.5264800000000  0.5124030000000  0.4310110000000 1.0
C      1  0.5266450000000  0.4380960000000  0.4669430000000 1.0
C      1  0.5279310000000  0.4482740000000  0.5494050000000 1.0
C      1  0.5275700000000  0.5292850000000  0.5631040000000 1.0
C      1  0.5268690000000  0.5691710000000  0.4912860000000 1.0
C      1  0.4755290000000  0.5112280000000  0.5689800000000 1.0
C      1  0.4756380000000  0.4388140000000  0.5335970000000 1.0
C      1  0.4746790000000  0.4485790000000  0.4510470000000 1.0
C      1  0.4747820000000  0.5301660000000  0.4358070000000 1.0
C      1  0.4754270000000  0.5679990000000  0.5098410000000 1.0
C      1  0.4300280000000  0.5118280000000  0.4185560000000 1.0
C      1  0.4311060000000  0.4263020000000  0.4641850000000 1.0
C      1  0.4316470000000  0.4437270000000  0.5592500000000 1.0
C      1  0.4316850000000  0.5387000000000  0.5723340000000 1.0
C      1  0.4313760000000  0.5793830000000  0.4854170000000 1.0
C      1  0.5718960000000  0.5113530000000  0.5819620000000 1.0
C      1  0.5713240000000  0.4255350000000  0.5356330000000 1.0
C      1  0.5704230000000  0.4430930000000  0.4411670000000 1.0
C      1  0.5709890000000  0.5374850000000  0.4284290000000 1.0
C      1  0.5711080000000  0.5798620000000  0.5145600000000 1.0
C      1  0.4093060000000  0.5334460000000  0.5499630000000 1.0
C      1  0.4113950000000  0.5555360000000  0.4828670000000 1.0
C      1  0.4091420000000  0.5015210000000  0.4407760000000 1.0
C      1  0.4109100000000  0.4446180000000  0.4800800000000 1.0
C      1  0.4110530000000  0.4648040000000  0.5473900000000 1.0
C      1  0.5909510000000  0.5322760000000  0.4526500000000 1.0
C      1  0.5913860000000  0.5558670000000  0.5169830000000 1.0
C      1  0.5945960000000  0.5020390000000  0.5613170000000 1.0
C      1  0.5933800000000  0.4430190000000  0.5199000000000 1.0
C      1  0.5894650000000  0.4645630000000  0.4539000000000 1.0
C      1  0.4961540000000  0.5495980000000  0.4346320000000 1.0
C      1  0.4963030000000  0.4529120000000  0.4322390000000 1.0
C      1  0.4968360000000  0.4217670000000  0.5235570000000 1.0
C      1  0.4972870000000  0.4969910000000  0.5820890000000 1.0
C      1  0.4966500000000  0.5761020000000  0.5277570000000 1.0
C      1  0.5057710000000  0.5484870000000  0.5644780000000 1.0
C      1  0.5063040000000  0.4530210000000  0.5682090000000 1.0
C      1  0.5052440000000  0.4214260000000  0.4769190000000 1.0
C      1  0.5053350000000  0.4975840000000  0.4178630000000 1.0
C      1  0.5054280000000  0.5764000000000  0.4733240000000 1.0
C      1  0.4294320000000  0.4808630000000  0.4538150000000 1.0
C      1  0.4293220000000  0.4526200000000  0.5043100000000 1.0
C      1  0.4296840000000  0.4906720000000  0.5478340000000 1.0
C      1  0.4278400000000  0.5389180000000  0.5244260000000 1.0
C      1  0.4287750000000  0.5326340000000  0.4693490000000 1.0
C      1  0.5774330000000  0.4793630000000  0.5475000000000 1.0
C      1  0.5732930000000  0.4513470000000  0.4965550000000 1.0
C      1  0.5701500000000  0.4898570000000  0.4560700000000 1.0
C      1  0.5707360000000  0.5392720000000  0.4763600000000 1.0
C      1  0.5735570000000  0.5348040000000  0.5321560000000 1.0
C      1  0.5148700000000  0.5750320000000  0.6077940000000 1.0
C      1  0.5154690000000  0.6254910000000  0.4617080000000 1.0
C      1  0.5167770000000  0.5009470000000  0.3677970000000 1.0
C      1  0.5154900000000  0.3745590000000  0.4580070000000 1.0
C      1  0.5162070000000  0.4206890000000  0.6070300000000 1.0
C      1  0.4851830000000  0.5772790000000  0.3928570000000 1.0
C      1  0.4856910000000  0.6251350000000  0.5394980000000 1.0
C      1  0.4874540000000  0.5014240000000  0.6326940000000 1.0
C      1  0.4861440000000  0.3749980000000  0.5425240000000 1.0
C      1  0.4861890000000  0.4208880000000  0.3931780000000 1.0
C      1  0.5265730000000  0.4728850000000  0.6074300000000 1.0
C      1  0.5256440000000  0.5924630000000  0.5586540000000 1.0
C      1  0.5254150000000  0.5841890000000  0.4297890000000 1.0
C      1  0.5260480000000  0.4582220000000  0.3980240000000 1.0
C      1  0.5256770000000  0.3900620000000  0.5078170000000 1.0
C      1  0.4765940000000  0.4731140000000  0.3924110000000 1.0
C      1  0.4756400000000  0.5927250000000  0.4427770000000 1.0
C      1  0.4757370000000  0.5828770000000  0.5703160000000 1.0
C      1  0.4768210000000  0.4585280000000  0.6027740000000 1.0
C      1  0.4759970000000  0.3903090000000  0.4926100000000 1.0
C      1  0.5613660000000  0.5519950000000  0.5528360000000 1.0
C      1  0.5607700000000  0.5652380000000  0.4669080000000 1.0
C      1  0.5600980000000  0.4874510000000  0.4281040000000 1.0
C      1  0.5608570000000  0.4262730000000  0.4882440000000 1.0
C      1  0.5649940000000  0.4639960000000  0.5696890000000 1.0
C      1  0.4409130000000  0.5512860000000  0.4488450000000 1.0
C      1  0.4404200000000  0.5644110000000  0.5326780000000 1.0
C      1  0.4408660000000  0.4883660000000  0.5752110000000 1.0
C      1  0.4416150000000  0.4271930000000  0.5118900000000 1.0
C      1  0.4398630000000  0.4649700000000  0.4314920000000 1.0
C      1  0.5646130000000  0.4341180000000  0.5640410000000 1.0
C      1  0.5639320000000  0.5406520000000  0.5806590000000 1.0
C      1  0.5640110000000  0.5880140000000  0.4863030000000 1.0
C      1  0.5638680000000  0.5127830000000  0.4120050000000 1.0
C      1  0.5634970000000  0.4197120000000  0.4589750000000 1.0
C      1  0.4379440000000  0.4350330000000  0.4359960000000 1.0
C      1  0.4373440000000  0.5413030000000  0.4205690000000 1.0
C      1  0.4383140000000  0.5872160000000  0.5135210000000 1.0
C      1  0.4392160000000  0.5148930000000  0.5896850000000 1.0
C      1  0.4387080000000  0.4204110000000  0.5411570000000 1.0
C      1  0.4842840000000  0.4864490000000  0.5177080000000 1.0
C      1  0.4732540000000  0.5142450000000  0.5253810000000 1.0
C      1  0.4817180000000  0.5273190000000  0.4959730000000 1.0
C      1  0.4738550000000  0.5078380000000  0.4713660000000 1.0
C      1  0.4845510000000  0.4824930000000  0.4854100000000 1.0
C      1  0.5159780000000  0.4838980000000  0.4879010000000 1.0
C      1  0.5257510000000  0.5111640000000  0.4763510000000 1.0
C      1  0.5123120000000  0.5302110000000  0.4970930000000 1.0
C      1  0.5192770000000  0.5174250000000  0.5236850000000 1.0
C      1  0.5147630000000  0.4865130000000  0.5227990000000 1.0
C      1  0.4933290000000  0.5983750000000  0.5479990000000 1.0
C      1  0.4930240000000  0.5762740000000  0.4208820000000 1.0
C      1  0.4936050000000  0.4474800000000  0.4025420000000 1.0
C      1  0.4934790000000  0.3918380000000  0.5198770000000 1.0
C      1  0.4945210000000  0.4848810000000  0.6097630000000 1.0
C      1  0.5080480000000  0.5986810000000  0.4530230000000 1.0
C      1  0.5080250000000  0.5747960000000  0.5794430000000 1.0
C      1  0.5089820000000  0.4473490000000  0.5978100000000 1.0
C      1  0.5082230000000  0.3914840000000  0.4805900000000 1.0
C      1  0.5088780000000  0.4847310000000  0.3906960000000 1.0
C      1  0.5621930000000  0.4146740000000  0.5854350000000 1.0
C      1  0.5627350000000  0.5573140000000  0.6043150000000 1.0
C      1  0.5630570000000  0.6157620000000  0.4779810000000 1.0
C      1  0.5641730000000  0.5128760000000  0.3830330000000 1.0
C      1  0.5625900000000  0.3925080000000  0.4490490000000 1.0
C      1  0.4397350000000  0.4160730000000  0.4141470000000 1.0
C      1  0.4375620000000  0.5589470000000  0.3975570000000 1.0
C      1  0.4386260000000  0.6148670000000  0.5222030000000 1.0
C      1  0.4408150000000  0.5168610000000  0.6185210000000 1.0
C      1  0.4389980000000  0.3930860000000  0.5507640000000 1.0
C      1  0.4438560000000  0.4775150000000  0.5244680000000 1.0
C      1  0.4463550000000  0.5171060000000  0.5382230000000 1.0
C      1  0.4397420000000  0.5227690000000  0.4972010000000 1.0
C      1  0.4468300000000  0.5084550000000  0.4584080000000 1.0
C      1  0.4441370000000  0.4724880000000  0.4798930000000 1.0
C      1  0.5582240000000  0.4774390000000  0.4817200000000 1.0
C      1  0.5528290000000  0.5154290000000  0.4646950000000 1.0
C      1  0.5580070000000  0.5286320000000  0.5041830000000 1.0
C      1  0.5592670000000  0.5051890000000  0.5388730000000 1.0
C      1  0.5588900000000  0.4668140000000  0.5222330000000 1.0
C      1  0.5236350000000  0.5700200000000  0.5198510000000 1.0
C      1  0.5231020000000  0.5400740000000  0.4384480000000 1.0
C      1  0.5232150000000  0.4534440000000  0.4427320000000 1.0
C      1  0.5240370000000  0.4311470000000  0.5263730000000 1.0
C      1  0.5244260000000  0.5022400000000  0.5731290000000 1.0
C      1  0.4786130000000  0.5693540000000  0.4812200000000 1.0
C      1  0.4788100000000  0.5387130000000  0.5602640000000 1.0
C      1  0.4792530000000  0.4543050000000  0.5577890000000 1.0
C      1  0.4782530000000  0.4312280000000  0.4739430000000 1.0
C      1  0.4781650000000  0.5032110000000  0.4258640000000 1.0
C      1  0.6042400000000  0.4989700000000  0.5004090000000 1.0
C      1  0.3972500000000  0.4992450000000  0.4999110000000 1.0
C      1  0.5513340000000  0.4967580000000  0.5063590000000 1.0
C      1  0.4468390000000  0.4936490000000  0.5001450000000 1.0
END
