TITL C-862502-1143-589 -0.0013517544452319 125000 -577.888394477149 0 0 102 (C3) n - 1
REM
REM in /home/nfs/bkarasulu/CARBON/AIRSS/Generating-Clusters/TERSOFF/Higher-Symm/FIRE-HFTN
REM
REM
REM
REM
REM
REM ./C.cell (b20cbc046b6831c77cfcea5457e17084)
REM AIRSS Version 0.9.1 bugfix July 2018 build 013d7b7c2542+ Fri, 06 Jul 2018 19:26:36 +0100
REM compiler GCC version 9.2.1 20190827 (Red Hat 9.2.1-1)
REM options -cpp -mtune=generic -march=x86-64 -g -O0 -fpre-include=/usr/include/finclude/math-vector-fortran.h
REM seed 1052052059 1201486643 1007931762 583343975 -1202468461 656166763 -307486670 42142068 -1793278 -226425893 -1196818317 1853045659 -24406886 676050270 292011279 -45125922 -88479238 -582297265 2095889058 -1347041907 -1345506575 -1680562083 73761763 -1559025613 1704806117 -113435020 -1348855388 384098620 -1268117858 -1286771854 1819148073 -2134668361 990222539
REM
CELL 1.54180   50.00000   50.00000   50.00000   90.00000   90.00000   90.00000
LATT -1
SFAC C  
C      1  0.4688670000000  0.4881800000000  0.5392540000000 1.0
C      1  0.4688670000000  0.5399050000000  0.4906100000000 1.0
C      1  0.4688670000000  0.4719150000000  0.4701360000000 1.0
C      1  0.5120940000000  0.4454730000000  0.4903670000000 1.0
C      1  0.5120940000000  0.5189210000000  0.5520390000000 1.0
C      1  0.5120940000000  0.5356060000000  0.4575950000000 1.0
C      1  0.4094290000000  0.5031120000000  0.4713350000000 1.0
C      1  0.4094290000000  0.4736190000000  0.5116370000000 1.0
C      1  0.4094290000000  0.5232690000000  0.5170280000000 1.0
C      1  0.5388090000000  0.4884790000000  0.4825530000000 1.0
C      1  0.5388090000000  0.4906510000000  0.5187010000000 1.0
C      1  0.5388090000000  0.5208700000000  0.4987460000000 1.0
C      1  0.4541910000000  0.5798620000000  0.5129340000000 1.0
C      1  0.4541910000000  0.4712710000000  0.4243700000000 1.0
C      1  0.4541910000000  0.4488680000000  0.5626950000000 1.0
C      1  0.5773780000000  0.5498820000000  0.4783030000000 1.0
C      1  0.5773780000000  0.4562680000000  0.4676490000000 1.0
C      1  0.5773780000000  0.4938490000000  0.5540480000000 1.0
C      1  0.5103870000000  0.4704270000000  0.5089480000000 1.0
C      1  0.5103870000000  0.5225360000000  0.5211370000000 1.0
C      1  0.5103870000000  0.5070370000000  0.4699150000000 1.0
C      1  0.4598090000000  0.5171300000000  0.5345790000000 1.0
C      1  0.4598100000000  0.5213820000000  0.4678750000000 1.0
C      1  0.4598090000000  0.4614890000000  0.4975450000000 1.0
C      1  0.5164970000000  0.4009050000000  0.4855240000000 1.0
C      1  0.5164970000000  0.5370110000000  0.5930570000000 1.0
C      1  0.5164970000000  0.5620840000000  0.4214200000000 1.0
C      1  0.4984540000000  0.5735580000000  0.5209150000000 1.0
C      1  0.4984540000000  0.4813340000000  0.4258400000000 1.0
C      1  0.4984540000000  0.4451080000000  0.5532450000000 1.0
C      1  0.4905630000000  0.4196510000000  0.4959760000000 1.0
C      1  0.4905630000000  0.5366900000000  0.5715970000000 1.0
C      1  0.4905630000000  0.5436600000000  0.4324280000000 1.0
C      1  0.4920950000000  0.4800650000000  0.5802760000000 1.0
C      1  0.4920950000000  0.5794890000000  0.4771270000000 1.0
C      1  0.4920950000000  0.4404470000000  0.4425980000000 1.0
C      1  0.5608100000000  0.5133040000000  0.5373910000000 1.0
C      1  0.5608100000000  0.5257300000000  0.4697830000000 1.0
C      1  0.5608100000000  0.4609660000000  0.4928260000000 1.0
C      1  0.4556830000000  0.5655380000000  0.5391570000000 1.0
C      1  0.4556830000000  0.5011420000000  0.4236640000000 1.0
C      1  0.4556830000000  0.4333200000000  0.5371790000000 1.0
C      1  0.4808940000000  0.4532030000000  0.5759510000000 1.0
C      1  0.4808940000000  0.5891740000000  0.5025510000000 1.0
C      1  0.4808940000000  0.4576220000000  0.4214970000000 1.0
C      1  0.4318410000000  0.4670520000000  0.5679810000000 1.0
C      1  0.4318410000000  0.5753470000000  0.4945430000000 1.0
C      1  0.4318410000000  0.4576010000000  0.4374750000000 1.0
C      1  0.5297950000000  0.4745870000000  0.5458690000000 1.0
C      1  0.5297950000000  0.5524300000000  0.4990740000000 1.0
C      1  0.5297950000000  0.4729830000000  0.4550570000000 1.0
C      1  0.4662710000000  0.5204200000000  0.5836920000000 1.0
C      1  0.4662710000000  0.5622700000000  0.4404690000000 1.0
C      1  0.4662710000000  0.4173100000000  0.4758380000000 1.0
C      1  0.5658950000000  0.5740300000000  0.4347980000000 1.0
C      1  0.5658950000000  0.4065190000000  0.4684890000000 1.0
C      1  0.5658940000000  0.5194510000000  0.5967130000000 1.0
C      1  0.5751330000000  0.4780670000000  0.4481750000000 1.0
C      1  0.5751330000000  0.4660850000000  0.5449070000000 1.0
C      1  0.5751330000000  0.5558480000000  0.5069180000000 1.0
C      1  0.4391240000000  0.5180210000000  0.5711110000000 1.0
C      1  0.4391240000000  0.5525730000000  0.4488380000000 1.0
C      1  0.4391240000000  0.4294060000000  0.4800510000000 1.0
C      1  0.4505520000000  0.4953590000000  0.4745130000000 1.0
C      1  0.4505520000000  0.4802480000000  0.5167630000000 1.0
C      1  0.4505520000000  0.5243930000000  0.5087240000000 1.0
C      1  0.4905000000000  0.4918130000000  0.4536940000000 1.0
C      1  0.4905000000000  0.4639910000000  0.5302430000000 1.0
C      1  0.4905000000000  0.5441960000000  0.5160630000000 1.0
C      1  0.4138820000000  0.4968800000000  0.5299110000000 1.0
C      1  0.4138820000000  0.5274640000000  0.4877470000000 1.0
C      1  0.4138820000000  0.4756560000000  0.4823420000000 1.0
C      1  0.5447170000000  0.4108310000000  0.4878280000000 1.0
C      1  0.5447170000000  0.5340430000000  0.5833090000000 1.0
C      1  0.5447170000000  0.5551260000000  0.4288640000000 1.0
C      1  0.5812300000000  0.4618030000000  0.5161520000000 1.0
C      1  0.5812300000000  0.5330860000000  0.5250030000000 1.0
C      1  0.5812300000000  0.5051100000000  0.4588450000000 1.0
C      1  0.5404110000000  0.5275070000000  0.5551350000000 1.0
C      1  0.5404110000000  0.5339950000000  0.4486110000000 1.0
C      1  0.5404110000000  0.4384980000000  0.4962540000000 1.0
C      1  0.5121460000000  0.5582830000000  0.4768280000000 1.0
C      1  0.5121460000000  0.4507910000000  0.4611120000000 1.0
C      1  0.5121460000000  0.4909260000000  0.5620610000000 1.0
C      1  0.4740540000000  0.5174490000000  0.4422280000000 1.0
C      1  0.4740540000000  0.4412440000000  0.5137750000000 1.0
C      1  0.4740540000000  0.5413070000000  0.5439970000000 1.0
C      1  0.4288200000000  0.5516750000000  0.4771820000000 1.0
C      1  0.4288200000000  0.4544020000000  0.4666570000000 1.0
C      1  0.4288200000000  0.4939230000000  0.5561610000000 1.0
C      1  0.5031670000000  0.5003950000000  0.4045820000000 1.0
C      1  0.5031670000000  0.4171680000000  0.5473670000000 1.0
C      1  0.5031670000000  0.5824370000000  0.5480510000000 1.0
C      1  0.5821790000000  0.4286410000000  0.4592340000000 1.0
C      1  0.5821790000000  0.5003750000000  0.5821820000000 1.0
C      1  0.5821790000000  0.5709840000000  0.4585840000000 1.0
C      1  0.5497320000000  0.4742530000000  0.4339260000000 1.0
C      1  0.5497320000000  0.4556520000000  0.5553340000000 1.0
C      1  0.5497320000000  0.5700950000000  0.5107390000000 1.0
C      1  0.4945890000000  0.4043700000000  0.5230100000000 1.0
C      1  0.4945890000000  0.5677420000000  0.5713130000000 1.0
C      1  0.4945890000000  0.5278880000000  0.4056770000000 1.0
END
