TITL C-862129-6180-797 0.00612479069067157 125000 -448.039810892078 0 0 85 (C1) n - 1
REM
REM in /home/nfs/bkarasulu/CARBON/AIRSS/Generating-Clusters/TERSOFF/Higher-Symm/FIRE-HFTN
REM
REM
REM
REM
REM
REM ./C.cell (b20cbc046b6831c77cfcea5457e17084)
REM AIRSS Version 0.9.1 bugfix July 2018 build 013d7b7c2542+ Fri, 06 Jul 2018 19:26:36 +0100
REM compiler GCC version 9.2.1 20190827 (Red Hat 9.2.1-1)
REM options -cpp -mtune=generic -march=x86-64 -g -O0 -fpre-include=/usr/include/finclude/math-vector-fortran.h
REM seed 477669270 -310132870 353788886 -2051801471 1437264881 803291359 753122155 507575866 225519553 787240183 -393152596 -442693204 -1697773490 -748719369 1449114339 1102876078 -163150491 -713596812 435436524 1317187205 -1795014240 1112732693 -519753321 -827465552 -568143233 -1462076455 -1718248484 -962577927 1012546469 -380191244 -1338851934 -1934402112 335217457
REM
CELL 1.54180   50.00000   50.00000   50.00000   90.00000   90.00000   90.00000
LATT -1
SFAC C  
C      1  0.4824670000000  0.4642800000000  0.4687500000000 1.0
C      1  0.5175290000000  0.4635820000000  0.5302230000000 1.0
C      1  0.4824280000000  0.4641030000000  0.5309750000000 1.0
C      1  0.5174490000000  0.4637790000000  0.4694690000000 1.0
C      1  0.5619380000000  0.4727210000000  0.4755520000000 1.0
C      1  0.4378680000000  0.4722320000000  0.5238960000000 1.0
C      1  0.5620490000000  0.4724960000000  0.5238520000000 1.0
C      1  0.4379500000000  0.4724410000000  0.4755130000000 1.0
C      1  0.4707470000000  0.4369470000000  0.4549650000000 1.0
C      1  0.5295710000000  0.4364590000000  0.5438380000000 1.0
C      1  0.4706910000000  0.4365690000000  0.5443040000000 1.0
C      1  0.5294830000000  0.4368520000000  0.4554160000000 1.0
C      1  0.4726500000000  0.5739320000000  0.4822860000000 1.0
C      1  0.5297490000000  0.5730450000000  0.5139130000000 1.0
C      1  0.4691930000000  0.5731240000000  0.5138640000000 1.0
C      1  0.5263500000000  0.5738240000000  0.4823500000000 1.0
C      1  0.4398580000000  0.5566870000000  0.4625250000000 1.0
C      1  0.5603450000000  0.5567120000000  0.5375670000000 1.0
C      1  0.4387310000000  0.5565340000000  0.5375150000000 1.0
C      1  0.5592310000000  0.5568510000000  0.4625030000000 1.0
C      1  0.5146580000000  0.5156310000000  0.4601990000000 1.0
C      1  0.4844920000000  0.5156300000000  0.5391800000000 1.0
C      1  0.5146720000000  0.5155320000000  0.5391250000000 1.0
C      1  0.4845030000000  0.5157330000000  0.4601460000000 1.0
C      1  0.5234960000000  0.5429730000000  0.5228790000000 1.0
C      1  0.4764780000000  0.5423880000000  0.4772820000000 1.0
C      1  0.5227500000000  0.5422660000000  0.4773300000000 1.0
C      1  0.4757410000000  0.5431130000000  0.5229420000000 1.0
C      1  0.5141740000000  0.4980910000000  0.4116940000000 1.0
C      1  0.4851360000000  0.4983830000000  0.5880040000000 1.0
C      1  0.5141650000000  0.4983170000000  0.5879120000000 1.0
C      1  0.4851350000000  0.4981520000000  0.4116050000000 1.0
C      1  0.4641630000000  0.4888290000000  0.4703600000000 1.0
C      1  0.5355180000000  0.4882840000000  0.5290430000000 1.0
C      1  0.4639920000000  0.4885720000000  0.5293540000000 1.0
C      1  0.5353120000000  0.4885550000000  0.4706820000000 1.0
C      1  0.4710630000000  0.5162750000000  0.5692470000000 1.0
C      1  0.5281680000000  0.5161900000000  0.4303400000000 1.0
C      1  0.4710770000000  0.5162640000000  0.4301950000000 1.0
C      1  0.5281750000000  0.5161980000000  0.5691020000000 1.0
C      1  0.4448370000000  0.5069350000000  0.5494960000000 1.0
C      1  0.5544840000000  0.5071520000000  0.4503900000000 1.0
C      1  0.4447410000000  0.5071040000000  0.4501910000000 1.0
C      1  0.5543880000000  0.5069850000000  0.5493120000000 1.0
C      1  0.5148040000000  0.4099020000000  0.4602350000000 1.0
C      1  0.4855840000000  0.4097460000000  0.5385830000000 1.0
C      1  0.5148150000000  0.4096040000000  0.5386470000000 1.0
C      1  0.4855770000000  0.4100330000000  0.4603050000000 1.0
C      1  0.5368130000000  0.5642410000000  0.4417010000000 1.0
C      1  0.4621310000000  0.5643530000000  0.5572290000000 1.0
C      1  0.5370470000000  0.5643660000000  0.5573590000000 1.0
C      1  0.4623590000000  0.5642310000000  0.4417710000000 1.0
C      1  0.5619860000000  0.5783270000000  0.5158370000000 1.0
C      1  0.4400100000000  0.5785270000000  0.4840590000000 1.0
C      1  0.5589480000000  0.5786680000000  0.4840630000000 1.0
C      1  0.4369090000000  0.5781520000000  0.5158040000000 1.0
C      1  0.4823380000000  0.5453480000000  0.5687240000000 1.0
C      1  0.5167410000000  0.5451400000000  0.4304360000000 1.0
C      1  0.4824830000000  0.5452170000000  0.4303580000000 1.0
C      1  0.5168760000000  0.5452640000000  0.5686540000000 1.0
C      1  0.4306740000000  0.5274360000000  0.5317210000000 1.0
C      1  0.5684030000000  0.5279630000000  0.4681110000000 1.0
C      1  0.4307400000000  0.5277250000000  0.4680920000000 1.0
C      1  0.5684730000000  0.5276780000000  0.5317150000000 1.0
C      1  0.4448120000000  0.4429880000000  0.5253230000000 1.0
C      1  0.5555520000000  0.4433460000000  0.4738920000000 1.0
C      1  0.4448560000000  0.4432040000000  0.4738830000000 1.0
C      1  0.5556190000000  0.4431140000000  0.5252890000000 1.0
C      1  0.4579150000000  0.5304440000000  0.4999370000000 1.0
C      1  0.5411510000000  0.5300290000000  0.4999430000000 1.0
C      1  0.5320270000000  0.5013320000000  0.4998880000000 1.0
C      1  0.4666430000000  0.5016100000000  0.4998720000000 1.0
C      1  0.5800860000000  0.5154520000000  0.4998480000000 1.0
C      1  0.4193180000000  0.5149750000000  0.4998410000000 1.0
C      1  0.5003080000000  0.4416470000000  0.5615800000000 1.0
C      1  0.5002850000000  0.4422780000000  0.4377810000000 1.0
C      1  0.5585790000000  0.4291910000000  0.4995240000000 1.0
C      1  0.4422620000000  0.4289970000000  0.4995430000000 1.0
C      1  0.4239050000000  0.4835690000000  0.4997250000000 1.0
C      1  0.5759210000000  0.4840230000000  0.4997200000000 1.0
C      1  0.4855990000000  0.4309470000000  0.4999770000000 1.0
C      1  0.4995440000000  0.5324710000000  0.5007520000000 1.0
C      1  0.5002820000000  0.4059360000000  0.4994280000000 1.0
C      1  0.4989330000000  0.4599760000000  0.4998830000000 1.0
C      1  0.4992770000000  0.4967790000000  0.5005470000000 1.0
END
