TITL C-862500-986-1299 0.556055421238249 125000 -884.774645697284 0 0 160 (C1) n - 1
REM
REM in /home/nfs/bkarasulu/CARBON/AIRSS/Generating-Clusters/TERSOFF/Higher-Symm/FIRE-HFTN
REM
REM
REM
REM
REM
REM ./C.cell (b20cbc046b6831c77cfcea5457e17084)
REM AIRSS Version 0.9.1 bugfix July 2018 build 013d7b7c2542+ Fri, 06 Jul 2018 19:26:36 +0100
REM compiler GCC version 9.2.1 20190827 (Red Hat 9.2.1-1)
REM options -cpp -mtune=generic -march=x86-64 -g -O0 -fpre-include=/usr/include/finclude/math-vector-fortran.h
REM seed 431365326 1675458289 697320579 -1623766017 1206047435 767400820 2068479557 -1969231800 -44590086 1117335996 1421231774 1884701329 388418167 -937524754 -1850765844 -1645546130 -31715747 -1290119241 974350714 -1245853347 2133845460 -1728746377 55860554 -453156654 -1159385721 -1793268513 1119286771 655101276 -168520108 932334653 -1262285640 -1480229522 440221868
REM
CELL 1.54180   50.00000   50.00000   50.00000   90.00000   90.00000   90.00000
LATT -1
SFAC C  
C      1  0.3958130000000  0.5293020000000  0.4466290000000 1.0
C      1  0.5301420000000  0.4527730000000  0.3955870000000 1.0
C      1  0.4556590000000  0.3961650000000  0.5345130000000 1.0
C      1  0.3968020000000  0.4664710000000  0.5480760000000 1.0
C      1  0.6031030000000  0.5318920000000  0.5476900000000 1.0
C      1  0.6064110000000  0.4709000000000  0.4486380000000 1.0
C      1  0.5341580000000  0.5521500000000  0.6085950000000 1.0
C      1  0.4663490000000  0.4487050000000  0.6061180000000 1.0
C      1  0.4732960000000  0.5490300000000  0.3963180000000 1.0
C      1  0.4505350000000  0.6035320000000  0.4697010000000 1.0
C      1  0.5496010000000  0.3967150000000  0.4664010000000 1.0
C      1  0.5462760000000  0.6037740000000  0.5346920000000 1.0
C      1  0.4997190000000  0.5596750000000  0.4033000000000 1.0
C      1  0.5629080000000  0.4030130000000  0.4913110000000 1.0
C      1  0.4041290000000  0.4895140000000  0.5642240000000 1.0
C      1  0.4895770000000  0.4345330000000  0.5962580000000 1.0
C      1  0.5095050000000  0.5648890000000  0.5997510000000 1.0
C      1  0.5056460000000  0.4388150000000  0.4033320000000 1.0
C      1  0.5603530000000  0.5952470000000  0.5112000000000 1.0
C      1  0.4410770000000  0.4040370000000  0.5108520000000 1.0
C      1  0.4387810000000  0.5985040000000  0.4957880000000 1.0
C      1  0.4018890000000  0.5024730000000  0.4369680000000 1.0
C      1  0.5980430000000  0.4963090000000  0.4371600000000 1.0
C      1  0.5976360000000  0.5065970000000  0.5619690000000 1.0
C      1  0.4576400000000  0.5722100000000  0.5421520000000 1.0
C      1  0.5708450000000  0.5453570000000  0.4541760000000 1.0
C      1  0.5357860000000  0.4609050000000  0.5846700000000 1.0
C      1  0.4545280000000  0.4331400000000  0.4638870000000 1.0
C      1  0.5447800000000  0.5666850000000  0.4656150000000 1.0
C      1  0.5479440000000  0.4329150000000  0.5422510000000 1.0
C      1  0.5742240000000  0.4575930000000  0.5427760000000 1.0
C      1  0.4225010000000  0.5330690000000  0.5351770000000 1.0
C      1  0.4271130000000  0.4547250000000  0.4561590000000 1.0
C      1  0.5455760000000  0.5393610000000  0.4303200000000 1.0
C      1  0.4612700000000  0.4618920000000  0.4284830000000 1.0
C      1  0.4624250000000  0.5432640000000  0.5802770000000 1.0
C      1  0.5546590000000  0.5277960000000  0.4780130000000 1.0
C      1  0.5277640000000  0.4786560000000  0.5590940000000 1.0
C      1  0.4722750000000  0.5446120000000  0.5319080000000 1.0
C      1  0.5528590000000  0.4669870000000  0.5182340000000 1.0
C      1  0.4475120000000  0.5324070000000  0.5156160000000 1.0
C      1  0.4446250000000  0.4721420000000  0.4773500000000 1.0
C      1  0.5318020000000  0.5199910000000  0.4539690000000 1.0
C      1  0.4679390000000  0.4796270000000  0.4543430000000 1.0
C      1  0.4730400000000  0.5244210000000  0.5567450000000 1.0
C      1  0.4808220000000  0.4524480000000  0.4696030000000 1.0
C      1  0.5184910000000  0.5473640000000  0.4699100000000 1.0
C      1  0.5255290000000  0.4582640000000  0.5339750000000 1.0
C      1  0.4938500000000  0.5133730000000  0.4702080000000 1.0
C      1  0.5133900000000  0.4682220000000  0.4953620000000 1.0
C      1  0.4660360000000  0.4948240000000  0.5153970000000 1.0
C      1  0.4918510000000  0.4870520000000  0.5350900000000 1.0
C      1  0.5076430000000  0.5133450000000  0.5348200000000 1.0
C      1  0.5062870000000  0.4858380000000  0.4698520000000 1.0
C      1  0.5145490000000  0.5299800000000  0.5078640000000 1.0
C      1  0.4852670000000  0.4697440000000  0.5075550000000 1.0
C      1  0.4868340000000  0.5310980000000  0.4952630000000 1.0
C      1  0.4670340000000  0.5063170000000  0.4865870000000 1.0
C      1  0.5333020000000  0.4925880000000  0.4857450000000 1.0
C      1  0.5340450000000  0.5043480000000  0.5151140000000 1.0
C      1  0.4789360000000  0.6120940000000  0.4698990000000 1.0
C      1  0.6159640000000  0.4716010000000  0.4768240000000 1.0
C      1  0.4713740000000  0.4765300000000  0.6150850000000 1.0
C      1  0.4838930000000  0.3879330000000  0.5301880000000 1.0
C      1  0.5181640000000  0.6120610000000  0.5300950000000 1.0
C      1  0.5214970000000  0.3875130000000  0.4690440000000 1.0
C      1  0.6138410000000  0.5294330000000  0.5197460000000 1.0
C      1  0.3864990000000  0.4727700000000  0.5206940000000 1.0
C      1  0.3884050000000  0.5323090000000  0.4752830000000 1.0
C      1  0.4720970000000  0.5208310000000  0.3870370000000 1.0
C      1  0.5270940000000  0.4807940000000  0.3866580000000 1.0
C      1  0.5327460000000  0.5233650000000  0.6157740000000 1.0
C      1  0.4257710000000  0.5090470000000  0.5569270000000 1.0
C      1  0.5143700000000  0.5528330000000  0.4284970000000 1.0
C      1  0.5555700000000  0.4264210000000  0.5080680000000 1.0
C      1  0.4277070000000  0.4882850000000  0.4425150000000 1.0
C      1  0.5723300000000  0.5101540000000  0.4442680000000 1.0
C      1  0.5740170000000  0.4878280000000  0.5559120000000 1.0
C      1  0.5073880000000  0.4456720000000  0.5751970000000 1.0
C      1  0.4940440000000  0.5564220000000  0.5756740000000 1.0
C      1  0.4891880000000  0.4461120000000  0.4271030000000 1.0
C      1  0.5536330000000  0.5706740000000  0.4967130000000 1.0
C      1  0.4466200000000  0.4290390000000  0.4963430000000 1.0
C      1  0.4444650000000  0.5740770000000  0.5117800000000 1.0
C      1  0.5225070000000  0.5806160000000  0.4446780000000 1.0
C      1  0.5859310000000  0.4412380000000  0.5163400000000 1.0
C      1  0.4410250000000  0.5185790000000  0.5832190000000 1.0
C      1  0.5217650000000  0.4223740000000  0.5583860000000 1.0
C      1  0.4822500000000  0.5827860000000  0.5592730000000 1.0
C      1  0.4783840000000  0.4198690000000  0.4433260000000 1.0
C      1  0.5833380000000  0.5575230000000  0.4851700000000 1.0
C      1  0.4158150000000  0.4429110000000  0.4860760000000 1.0
C      1  0.4147780000000  0.5586250000000  0.5164640000000 1.0
C      1  0.4428820000000  0.4818330000000  0.4117860000000 1.0
C      1  0.5571850000000  0.5158720000000  0.4120880000000 1.0
C      1  0.5600880000000  0.4829480000000  0.5854790000000 1.0
C      1  0.5584000000000  0.4872620000000  0.4683640000000 1.0
C      1  0.4866680000000  0.4711990000000  0.5604330000000 1.0
C      1  0.4706450000000  0.5585570000000  0.4923260000000 1.0
C      1  0.5607660000000  0.5068330000000  0.5283440000000 1.0
C      1  0.4395170000000  0.4930380000000  0.5277280000000 1.0
C      1  0.4429930000000  0.5120690000000  0.4650650000000 1.0
C      1  0.4922380000000  0.5284860000000  0.4431320000000 1.0
C      1  0.5074640000000  0.4719390000000  0.4425090000000 1.0
C      1  0.5141050000000  0.5312790000000  0.5594510000000 1.0
C      1  0.4730240000000  0.4429960000000  0.5114410000000 1.0
C      1  0.5267220000000  0.5564880000000  0.5111940000000 1.0
C      1  0.5276380000000  0.4409160000000  0.4926280000000 1.0
C      1  0.5720350000000  0.5146880000000  0.5005090000000 1.0
C      1  0.5303230000000  0.5080450000000  0.5697590000000 1.0
C      1  0.4992770000000  0.5664660000000  0.5219190000000 1.0
C      1  0.5688900000000  0.4713390000000  0.4924480000000 1.0
C      1  0.4364040000000  0.5349760000000  0.4864530000000 1.0
C      1  0.4279760000000  0.4855900000000  0.5002300000000 1.0
C      1  0.5201160000000  0.4984520000000  0.4323090000000 1.0
C      1  0.4771140000000  0.5033540000000  0.4330740000000 1.0
C      1  0.4750630000000  0.4965140000000  0.5724020000000 1.0
C      1  0.5053070000000  0.4341470000000  0.4722270000000 1.0
C      1  0.4932570000000  0.5648900000000  0.4712290000000 1.0
C      1  0.5006800000000  0.4344170000000  0.5241450000000 1.0
C      1  0.3693760000000  0.5131400000000  0.4894480000000 1.0
C      1  0.5072560000000  0.4874750000000  0.3655270000000 1.0
C      1  0.4897540000000  0.3690100000000  0.5076840000000 1.0
C      1  0.3723360000000  0.4991920000000  0.5162310000000 1.0
C      1  0.6331910000000  0.5073930000000  0.5132020000000 1.0
C      1  0.6347480000000  0.4930210000000  0.4866780000000 1.0
C      1  0.5086520000000  0.5117460000000  0.6295680000000 1.0
C      1  0.4982270000000  0.4839140000000  0.6265540000000 1.0
C      1  0.4900250000000  0.5118600000000  0.3650330000000 1.0
C      1  0.4878980000000  0.6317410000000  0.4907840000000 1.0
C      1  0.5146900000000  0.3685690000000  0.4912530000000 1.0
C      1  0.5129880000000  0.6305010000000  0.5069800000000 1.0
C      1  0.4974090000000  0.5914780000000  0.4594920000000 1.0
C      1  0.5956560000000  0.4601800000000  0.4944840000000 1.0
C      1  0.4580030000000  0.4959960000000  0.5968870000000 1.0
C      1  0.5042740000000  0.4082650000000  0.5369250000000 1.0
C      1  0.4982080000000  0.5916260000000  0.5354760000000 1.0
C      1  0.5014500000000  0.4074550000000  0.4604360000000 1.0
C      1  0.5937080000000  0.5333240000000  0.4996230000000 1.0
C      1  0.4058110000000  0.4675380000000  0.5000510000000 1.0
C      1  0.4097590000000  0.5473370000000  0.4885090000000 1.0
C      1  0.4648020000000  0.5020340000000  0.4077620000000 1.0
C      1  0.5325390000000  0.5002720000000  0.4069930000000 1.0
C      1  0.5469970000000  0.5094580000000  0.5938690000000 1.0
C      1  0.4457260000000  0.4038000000000  0.5615910000000 1.0
C      1  0.4050900000000  0.5538140000000  0.4310150000000 1.0
C      1  0.5574250000000  0.4417480000000  0.4021490000000 1.0
C      1  0.4362980000000  0.5951680000000  0.4439490000000 1.0
C      1  0.5610800000000  0.4053650000000  0.4396960000000 1.0
C      1  0.5566560000000  0.5971920000000  0.5617980000000 1.0
C      1  0.4065890000000  0.4384700000000  0.5550070000000 1.0
C      1  0.5942340000000  0.5594300000000  0.5588290000000 1.0
C      1  0.5972840000000  0.4442740000000  0.4364770000000 1.0
C      1  0.5606410000000  0.5626290000000  0.5995240000000 1.0
C      1  0.4389660000000  0.4415140000000  0.5962790000000 1.0
C      1  0.4481200000000  0.5644420000000  0.4026830000000 1.0
C      1  0.5690070000000  0.4334200000000  0.4292830000000 1.0
C      1  0.4323790000000  0.4299190000000  0.5692890000000 1.0
C      1  0.5678790000000  0.5705020000000  0.5713390000000 1.0
C      1  0.4329360000000  0.5677280000000  0.4293610000000 1.0
END
