TITL C-862133-5440-1398 0.000197422764090806 125000 -512.370941368501 0 0 86 (C5) n - 1
REM
REM in /home/nfs/bkarasulu/CARBON/AIRSS/Generating-Clusters/TERSOFF/Higher-Symm/FIRE-HFTN
REM
REM
REM
REM
REM
REM ./C.cell (b20cbc046b6831c77cfcea5457e17084)
REM AIRSS Version 0.9.1 bugfix July 2018 build 013d7b7c2542+ Fri, 06 Jul 2018 19:26:36 +0100
REM compiler GCC version 9.2.1 20190827 (Red Hat 9.2.1-1)
REM options -cpp -mtune=generic -march=x86-64 -g -O0 -fpre-include=/usr/include/finclude/math-vector-fortran.h
REM seed -1940679366 -130165499 -1609167069 -673859001 1280638030 -1630956403 -584227339 -1155189912 -714065068 718501506 501673924 251646183 2137114894 -1992411023 982560115 -1614492632 -196000740 -522782419 186124814 1089088486 -1959111487 634708129 -1180076936 -1165693815 -383748631 -1191578886 932868258 901562082 -1346371845 1575565335 662924845 859205555 -1986075835
REM
CELL 1.54180   50.00000   50.00000   50.00000   90.00000   90.00000   90.00000
LATT -1
SFAC C  
C      1  0.4719850000000  0.4977410000000  0.5782490000000 1.0
C      1  0.4719850000000  0.5741860000000  0.5260130000000 1.0
C      1  0.4719850000000  0.5481290000000  0.4371670000000 1.0
C      1  0.4719850000000  0.4555810000000  0.4344940000000 1.0
C      1  0.4719850000000  0.4244390000000  0.5216870000000 1.0
C      1  0.5041570000000  0.4556840000000  0.5396660000000 1.0
C      1  0.5041570000000  0.5244960000000  0.5540890000000 1.0
C      1  0.5041570000000  0.5594760000000  0.4931020000000 1.0
C      1  0.5041570000000  0.5122840000000  0.4409870000000 1.0
C      1  0.5041570000000  0.4481370000000  0.4697660000000 1.0
C      1  0.5518330000000  0.5311410000000  0.5605770000000 1.0
C      1  0.5518330000000  0.5677010000000  0.4887870000000 1.0
C      1  0.5518330000000  0.5107210000000  0.4318320000000 1.0
C      1  0.5518330000000  0.4389460000000  0.4684230000000 1.0
C      1  0.5518330000000  0.4515670000000  0.5479920000000 1.0
C      1  0.4764350000000  0.5737850000000  0.4952310000000 1.0
C      1  0.4764350000000  0.5187310000000  0.4280370000000 1.0
C      1  0.4764350000000  0.4378130000000  0.4596330000000 1.0
C      1  0.4764350000000  0.4428570000000  0.5463540000000 1.0
C      1  0.4764350000000  0.5268920000000  0.5683550000000 1.0
C      1  0.5760060000000  0.5549220000000  0.4990290000000 1.0
C      1  0.5760060000000  0.5165130000000  0.4471500000000 1.0
C      1  0.5760060000000  0.4553050000000  0.4676480000000 1.0
C      1  0.5760060000000  0.4558850000000  0.5321950000000 1.0
C      1  0.5760060000000  0.5174520000000  0.5515890000000 1.0
C      1  0.4488540000000  0.4859250000000  0.5627440000000 1.0
C      1  0.4488540000000  0.5557890000000  0.5324600000000 1.0
C      1  0.4488540000000  0.5485760000000  0.4566570000000 1.0
C      1  0.4488540000000  0.4742540000000  0.4400920000000 1.0
C      1  0.4488540000000  0.4355330000000  0.5056580000000 1.0
C      1  0.5808160000000  0.4789230000000  0.4844800000000 1.0
C      1  0.5808160000000  0.4791920000000  0.5149340000000 1.0
C      1  0.5808160000000  0.5082380000000  0.5240890000000 1.0
C      1  0.5808160000000  0.5259210000000  0.4992930000000 1.0
C      1  0.5808160000000  0.5078030000000  0.4748130000000 1.0
C      1  0.5290510000000  0.5504490000000  0.4740540000000 1.0
C      1  0.5290510000000  0.4913780000000  0.4436860000000 1.0
C      1  0.5290510000000  0.4442430000000  0.4904820000000 1.0
C      1  0.5290510000000  0.4741830000000  0.5497710000000 1.0
C      1  0.5290510000000  0.5398220000000  0.5396170000000 1.0
C      1  0.4339500000000  0.5090070000000  0.5498250000000 1.0
C      1  0.4339500000000  0.5506350000000  0.5065150000000 1.0
C      1  0.4339500000000  0.5223080000000  0.4535410000000 1.0
C      1  0.4339500000000  0.4631740000000  0.4641120000000 1.0
C      1  0.4339500000000  0.4549530000000  0.5236180000000 1.0
C      1  0.4191940000000  0.5045220000000  0.5248220000000 1.0
C      1  0.4191940000000  0.5254700000000  0.5030540000000 1.0
C      1  0.4191940000000  0.5112400000000  0.4764050000000 1.0
C      1  0.4191940000000  0.4814980000000  0.4817030000000 1.0
C      1  0.4191940000000  0.4773470000000  0.5116270000000 1.0
C      1  0.4666360000000  0.4852620000000  0.4783920000000 1.0
C      1  0.4666360000000  0.4753600000000  0.5070230000000 1.0
C      1  0.4666360000000  0.4995310000000  0.5252890000000 1.0
C      1  0.4666360000000  0.5243710000000  0.5079450000000 1.0
C      1  0.4666360000000  0.5155530000000  0.4789610000000 1.0
C      1  0.5377260000000  0.4739400000000  0.4958690000000 1.0
C      1  0.5377260000000  0.4884840000000  0.5231920000000 1.0
C      1  0.5377260000000  0.5189640000000  0.5178040000000 1.0
C      1  0.5377260000000  0.5232580000000  0.4871510000000 1.0
C      1  0.5377260000000  0.4954320000000  0.4735940000000 1.0
C      1  0.4507250000000  0.4412160000000  0.4764780000000 1.0
C      1  0.4507250000000  0.4599290000000  0.5483230000000 1.0
C      1  0.4507250000000  0.5340400000000  0.5527270000000 1.0
C      1  0.4507250000000  0.5611300000000  0.4836040000000 1.0
C      1  0.4507250000000  0.5037620000000  0.4364790000000 1.0
C      1  0.5225070000000  0.5680630000000  0.5343620000000 1.0
C      1  0.5225070000000  0.5541780000000  0.4455710000000 1.0
C      1  0.5225070000000  0.4654420000000  0.4313390000000 1.0
C      1  0.5225070000000  0.4244850000000  0.5113340000000 1.0
C      1  0.5225070000000  0.4879090000000  0.5750050000000 1.0
C      1  0.4961990000000  0.5345340000000  0.5084490000000 1.0
C      1  0.4961990000000  0.5191730000000  0.4694520000000 1.0
C      1  0.4961990000000  0.4773370000000  0.4720100000000 1.0
C      1  0.4961990000000  0.4668420000000  0.5125890000000 1.0
C      1  0.4961990000000  0.5021920000000  0.5351100000000 1.0
C      1  0.5276510000000  0.5168250000000  0.5747010000000 1.0
C      1  0.5276510000000  0.5767090000000  0.5067660000000 1.0
C      1  0.5276510000000  0.5306050000000  0.4288210000000 1.0
C      1  0.5276510000000  0.4422270000000  0.4485820000000 1.0
C      1  0.5276510000000  0.4337110000000  0.5387410000000 1.0
C      1  0.4956220000000  0.5652530000000  0.4403640000000 1.0
C      1  0.4956220000000  0.4639120000000  0.4191970000000 1.0
C      1  0.4956220000000  0.4124650000000  0.5090360000000 1.0
C      1  0.4956220000000  0.4820090000000  0.5857280000000 1.0
C      1  0.4956220000000  0.5764370000000  0.5432860000000 1.0
C      1  0.5050760000000  0.5000150000000  0.4995220000000 1.0
END
