TITL C-862129-6180-1458 0.0344412476160779 125000 -1002.50668184829 0 0 176 (Ci) n - 1
REM
REM in /home/nfs/bkarasulu/CARBON/AIRSS/Generating-Clusters/TERSOFF/Higher-Symm/FIRE-HFTN
REM
REM
REM
REM
REM
REM ./C.cell (b20cbc046b6831c77cfcea5457e17084)
REM AIRSS Version 0.9.1 bugfix July 2018 build 013d7b7c2542+ Fri, 06 Jul 2018 19:26:36 +0100
REM compiler GCC version 9.2.1 20190827 (Red Hat 9.2.1-1)
REM options -cpp -mtune=generic -march=x86-64 -g -O0 -fpre-include=/usr/include/finclude/math-vector-fortran.h
REM seed -325478408 146141494 1353980787 2096534404 -1003730179 -796056464 2044389286 626969727 1571832602 -426327805 -711118632 -1377158165 778593435 1177356099 1445459074 1348545329 647022418 -612282773 -1558161541 1843407686 316178243 -605587301 2024283522 -1091491933 1261339836 85369957 411953121 -1061706325 -1358127733 1691319356 -1344963820 -1045546412 -172180643
REM
CELL 1.54180   50.00000   50.00000   50.00000   90.00000   90.00000   90.00000
LATT -1
SFAC C  
C      1  0.5547140000000  0.5196440000000  0.5391810000000 1.0
C      1  0.4452860000000  0.4803560000000  0.4608190000000 1.0
C      1  0.5449660000000  0.5831690000000  0.5678670000000 1.0
C      1  0.4550340000000  0.4168310000000  0.4321330000000 1.0
C      1  0.5587620000000  0.4885900000000  0.5770230000000 1.0
C      1  0.4412380000000  0.5114100000000  0.4229770000000 1.0
C      1  0.4011320000000  0.5567040000000  0.5273500000000 1.0
C      1  0.5988680000000  0.4432960000000  0.4726500000000 1.0
C      1  0.5031570000000  0.4829780000000  0.3839120000000 1.0
C      1  0.4968430000000  0.5170220000000  0.6160880000000 1.0
C      1  0.5260750000000  0.5452520000000  0.3998410000000 1.0
C      1  0.4739250000000  0.4547480000000  0.6001590000000 1.0
C      1  0.4499870000000  0.4609360000000  0.4056510000000 1.0
C      1  0.5500130000000  0.5390640000000  0.5943490000000 1.0
C      1  0.4386940000000  0.5803380000000  0.4439940000000 1.0
C      1  0.5613060000000  0.4196620000000  0.5560060000000 1.0
C      1  0.4846850000000  0.6148960000000  0.5325280000000 1.0
C      1  0.5153150000000  0.3851040000000  0.4674720000000 1.0
C      1  0.5430580000000  0.4261170000000  0.4376220000000 1.0
C      1  0.4569420000000  0.5738830000000  0.5623780000000 1.0
C      1  0.4597050000000  0.6031050000000  0.5158210000000 1.0
C      1  0.5402950000000  0.3968950000000  0.4841790000000 1.0
C      1  0.4752390000000  0.5507240000000  0.4305150000000 1.0
C      1  0.5247610000000  0.4492760000000  0.5694850000000 1.0
C      1  0.5311810000000  0.4821770000000  0.5109510000000 1.0
C      1  0.4688190000000  0.5178230000000  0.4890490000000 1.0
C      1  0.5272910000000  0.4879450000000  0.5404660000000 1.0
C      1  0.4727090000000  0.5120550000000  0.4595340000000 1.0
C      1  0.4819410000000  0.3626950000000  0.5101150000000 1.0
C      1  0.5180590000000  0.6373050000000  0.4898850000000 1.0
C      1  0.4631180000000  0.5927270000000  0.4857150000000 1.0
C      1  0.5368820000000  0.4072730000000  0.5142850000000 1.0
C      1  0.5305430000000  0.6172380000000  0.5069150000000 1.0
C      1  0.4694570000000  0.3827620000000  0.4930850000000 1.0
C      1  0.4808730000000  0.6091440000000  0.4672430000000 1.0
C      1  0.5191270000000  0.3908560000000  0.5327570000000 1.0
C      1  0.4718410000000  0.4640800000000  0.5717040000000 1.0
C      1  0.5281590000000  0.5359200000000  0.4282960000000 1.0
C      1  0.5594290000000  0.5271030000000  0.4353470000000 1.0
C      1  0.4405710000000  0.4728970000000  0.5646530000000 1.0
C      1  0.4469100000000  0.5106640000000  0.5146590000000 1.0
C      1  0.5530900000000  0.4893360000000  0.4853410000000 1.0
C      1  0.5956710000000  0.5738470000000  0.4878780000000 1.0
C      1  0.4043290000000  0.4261530000000  0.5121220000000 1.0
C      1  0.5946470000000  0.5048460000000  0.5198210000000 1.0
C      1  0.4053530000000  0.4951540000000  0.4801790000000 1.0
C      1  0.5563930000000  0.5874420000000  0.4640440000000 1.0
C      1  0.4436070000000  0.4125580000000  0.5359560000000 1.0
C      1  0.4811940000000  0.5003020000000  0.3950090000000 1.0
C      1  0.5188060000000  0.4996980000000  0.6049910000000 1.0
C      1  0.5960310000000  0.5351310000000  0.5151350000000 1.0
C      1  0.4039690000000  0.4648690000000  0.4848650000000 1.0
C      1  0.5124530000000  0.5370300000000  0.5494220000000 1.0
C      1  0.4875470000000  0.4629700000000  0.4505780000000 1.0
C      1  0.5213230000000  0.4832170000000  0.4261970000000 1.0
C      1  0.4786770000000  0.5167830000000  0.5738030000000 1.0
C      1  0.4608040000000  0.4879660000000  0.4137020000000 1.0
C      1  0.5391960000000  0.5120340000000  0.5862980000000 1.0
C      1  0.5159620000000  0.5774790000000  0.4907280000000 1.0
C      1  0.4840380000000  0.4225210000000  0.5092720000000 1.0
C      1  0.4354860000000  0.5420080000000  0.4808390000000 1.0
C      1  0.5645140000000  0.4579920000000  0.5191610000000 1.0
C      1  0.6053210000000  0.4935050000000  0.5476040000000 1.0
C      1  0.3946790000000  0.5064950000000  0.4523960000000 1.0
C      1  0.5671740000000  0.4971230000000  0.4310370000000 1.0
C      1  0.4328260000000  0.5028770000000  0.5689630000000 1.0
C      1  0.4543600000000  0.4065480000000  0.5063740000000 1.0
C      1  0.5456400000000  0.5934520000000  0.4936260000000 1.0
C      1  0.5966210000000  0.4925090000000  0.4364350000000 1.0
C      1  0.4033790000000  0.5074910000000  0.5635650000000 1.0
C      1  0.4932570000000  0.5599420000000  0.5878620000000 1.0
C      1  0.5067430000000  0.4400580000000  0.4121380000000 1.0
C      1  0.5174500000000  0.4578190000000  0.5061170000000 1.0
C      1  0.4825500000000  0.5421810000000  0.4938830000000 1.0
C      1  0.5569120000000  0.4272680000000  0.5283130000000 1.0
C      1  0.4430880000000  0.5727320000000  0.4716870000000 1.0
C      1  0.4918620000000  0.6344310000000  0.4775210000000 1.0
C      1  0.5081380000000  0.3655690000000  0.5224790000000 1.0
C      1  0.4195680000000  0.5417900000000  0.5080070000000 1.0
C      1  0.5804320000000  0.4582100000000  0.4919930000000 1.0
C      1  0.5880030000000  0.5240280000000  0.4754370000000 1.0
C      1  0.4119970000000  0.4759720000000  0.5245630000000 1.0
C      1  0.5056130000000  0.4201040000000  0.4885550000000 1.0
C      1  0.4943870000000  0.5798960000000  0.5114450000000 1.0
C      1  0.5410430000000  0.4258910000000  0.5749530000000 1.0
C      1  0.4589570000000  0.5741090000000  0.4250470000000 1.0
C      1  0.5227670000000  0.5572370000000  0.5324990000000 1.0
C      1  0.4772330000000  0.4427630000000  0.4675010000000 1.0
C      1  0.3840630000000  0.5068800000000  0.5852510000000 1.0
C      1  0.6159370000000  0.4931200000000  0.4147490000000 1.0
C      1  0.4495990000000  0.4417300000000  0.5287590000000 1.0
C      1  0.5504010000000  0.5582700000000  0.4712410000000 1.0
C      1  0.5461770000000  0.6005910000000  0.4403950000000 1.0
C      1  0.4538230000000  0.3994090000000  0.5596050000000 1.0
C      1  0.4476590000000  0.5237980000000  0.5436550000000 1.0
C      1  0.5523410000000  0.4762020000000  0.4563450000000 1.0
C      1  0.4398030000000  0.4414150000000  0.4253370000000 1.0
C      1  0.5601970000000  0.5585850000000  0.5746630000000 1.0
C      1  0.5862440000000  0.4277440000000  0.4508960000000 1.0
C      1  0.4137560000000  0.5722560000000  0.5491040000000 1.0
C      1  0.5888450000000  0.4916070000000  0.5732650000000 1.0
C      1  0.4111550000000  0.5083930000000  0.4267350000000 1.0
C      1  0.6055270000000  0.5453070000000  0.4882800000000 1.0
C      1  0.3944730000000  0.4546930000000  0.5117200000000 1.0
C      1  0.5426200000000  0.5408630000000  0.5166240000000 1.0
C      1  0.4573800000000  0.4591370000000  0.4833760000000 1.0
C      1  0.4285260000000  0.4461710000000  0.4784910000000 1.0
C      1  0.5714740000000  0.5538290000000  0.5215090000000 1.0
C      1  0.5037870000000  0.5543690000000  0.4741870000000 1.0
C      1  0.4962130000000  0.4456310000000  0.5258130000000 1.0
C      1  0.4588620000000  0.5489570000000  0.6093090000000 1.0
C      1  0.5411380000000  0.4510430000000  0.3906910000000 1.0
C      1  0.4207800000000  0.5557700000000  0.5736690000000 1.0
C      1  0.5792200000000  0.4442300000000  0.4263310000000 1.0
C      1  0.4130700000000  0.5076250000000  0.5103900000000 1.0
C      1  0.5869300000000  0.4923750000000  0.4896100000000 1.0
C      1  0.4277210000000  0.4557070000000  0.4477960000000 1.0
C      1  0.5722790000000  0.5442930000000  0.5522040000000 1.0
C      1  0.4990300000000  0.4529990000000  0.3870310000000 1.0
C      1  0.5009700000000  0.5470010000000  0.6129690000000 1.0
C      1  0.4945000000000  0.5987800000000  0.4396690000000 1.0
C      1  0.5055000000000  0.4012200000000  0.5603310000000 1.0
C      1  0.5033210000000  0.5515750000000  0.4438820000000 1.0
C      1  0.4966790000000  0.4484250000000  0.5561180000000 1.0
C      1  0.5722690000000  0.5805750000000  0.5060590000000 1.0
C      1  0.4277310000000  0.4194250000000  0.4939410000000 1.0
C      1  0.5272650000000  0.4189690000000  0.4139870000000 1.0
C      1  0.4727350000000  0.5810310000000  0.5860130000000 1.0
C      1  0.4360680000000  0.5640510000000  0.5974650000000 1.0
C      1  0.5639320000000  0.4359490000000  0.4025350000000 1.0
C      1  0.5274290000000  0.5839300000000  0.5442650000000 1.0
C      1  0.4725710000000  0.4160700000000  0.4557350000000 1.0
C      1  0.6051350000000  0.4874220000000  0.4640210000000 1.0
C      1  0.3948650000000  0.5125780000000  0.5359790000000 1.0
C      1  0.4964150000000  0.5506500000000  0.3942690000000 1.0
C      1  0.5035850000000  0.4493500000000  0.6057310000000 1.0
C      1  0.5269380000000  0.4408740000000  0.4838270000000 1.0
C      1  0.4730620000000  0.5591260000000  0.5161730000000 1.0
C      1  0.5629240000000  0.5328510000000  0.4634960000000 1.0
C      1  0.4370760000000  0.4671490000000  0.5365040000000 1.0
C      1  0.5404530000000  0.5133920000000  0.4718190000000 1.0
C      1  0.4595470000000  0.4866080000000  0.5281810000000 1.0
C      1  0.4721060000000  0.4731330000000  0.5053560000000 1.0
C      1  0.5278940000000  0.5268670000000  0.4946440000000 1.0
C      1  0.4422660000000  0.5649220000000  0.5153640000000 1.0
C      1  0.5577340000000  0.4350780000000  0.4846360000000 1.0
C      1  0.4771960000000  0.4918470000000  0.5570880000000 1.0
C      1  0.5228040000000  0.5081530000000  0.4429120000000 1.0
C      1  0.5107190000000  0.4586390000000  0.4362160000000 1.0
C      1  0.4892810000000  0.5413610000000  0.5637840000000 1.0
C      1  0.5506490000000  0.5890070000000  0.4144580000000 1.0
C      1  0.4493510000000  0.4109930000000  0.5855420000000 1.0
C      1  0.5206050000000  0.6133750000000  0.4426920000000 1.0
C      1  0.4793950000000  0.3866250000000  0.5573080000000 1.0
C      1  0.5298020000000  0.5150000000000  0.5555450000000 1.0
C      1  0.4701980000000  0.4850000000000  0.4444550000000 1.0
C      1  0.4710220000000  0.4235370000000  0.5998040000000 1.0
C      1  0.5289780000000  0.5764630000000  0.4001960000000 1.0
C      1  0.4591090000000  0.5285830000000  0.4401900000000 1.0
C      1  0.5408910000000  0.4714170000000  0.5598100000000 1.0
C      1  0.5035200000000  0.4164210000000  0.5911040000000 1.0
C      1  0.4964800000000  0.5835790000000  0.4088960000000 1.0
C      1  0.4658720000000  0.5495680000000  0.5464920000000 1.0
C      1  0.5341280000000  0.4504320000000  0.4535080000000 1.0
C      1  0.5583160000000  0.4930630000000  0.4032820000000 1.0
C      1  0.4416840000000  0.5069370000000  0.5967180000000 1.0
C      1  0.5326890000000  0.4799650000000  0.3978800000000 1.0
C      1  0.4673110000000  0.5200350000000  0.6021200000000 1.0
C      1  0.4324790000000  0.5075880000000  0.4706600000000 1.0
C      1  0.5675210000000  0.4924120000000  0.5293400000000 1.0
C      1  0.4837620000000  0.3906490000000  0.4682360000000 1.0
C      1  0.5162380000000  0.6093510000000  0.5317640000000 1.0
C      1  0.4342800000000  0.5907400000000  0.5316030000000 1.0
C      1  0.5657200000000  0.4092600000000  0.4683970000000 1.0
C      1  0.4777190000000  0.5288470000000  0.3872600000000 1.0
C      1  0.5222810000000  0.4711530000000  0.6127400000000 1.0
END
