TITL C-862503-991-787 0.06457255891246 125000 -101.690357973919 0 0 19 (C1) n - 1
REM
REM in /home/nfs/bkarasulu/CARBON/AIRSS/Generating-Clusters/TERSOFF/Higher-Symm/FIRE-HFTN
REM
REM
REM
REM
REM
REM ./C.cell (b20cbc046b6831c77cfcea5457e17084)
REM AIRSS Version 0.9.1 bugfix July 2018 build 013d7b7c2542+ Fri, 06 Jul 2018 19:26:36 +0100
REM compiler GCC version 9.2.1 20190827 (Red Hat 9.2.1-1)
REM options -cpp -mtune=generic -march=x86-64 -g -O0 -fpre-include=/usr/include/finclude/math-vector-fortran.h
REM seed 857098492 378652144 403720272 337638675 1836207264 473600317 -2089019849 587560306 -1797399351 1561879746 1992601743 -1541340032 -158781289 -1216016846 1969237028 774546721 1184504226 -2145502804 1485767995 1742193952 -645734116 -334753168 -1500227114 2118319901 1768891151 -387881890 2119976329 36779585 895049284 -996279929 2078176651 -946971978 539405252
REM
CELL 1.54180   50.00000   50.00000   50.00000   90.00000   90.00000   90.00000
LATT -1
SFAC C  
C      1  0.4987530000000  0.5430180000000  0.5055790000000 1.0
C      1  0.5482010000000  0.4593170000000  0.5012980000000 1.0
C      1  0.4729450000000  0.5140620000000  0.4729660000000 1.0
C      1  0.5121760000000  0.5047960000000  0.5387140000000 1.0
C      1  0.5535900000000  0.4822840000000  0.5181170000000 1.0
C      1  0.4648550000000  0.4828740000000  0.4774140000000 1.0
C      1  0.4987470000000  0.5087740000000  0.4547930000000 1.0
C      1  0.5110080000000  0.4576620000000  0.4659490000000 1.0
C      1  0.4572740000000  0.5200110000000  0.5188810000000 1.0
C      1  0.5120740000000  0.5330060000000  0.5298850000000 1.0
C      1  0.4869580000000  0.4908070000000  0.5441100000000 1.0
C      1  0.5247380000000  0.5207500000000  0.4591300000000 1.0
C      1  0.4915760000000  0.4784690000000  0.4607300000000 1.0
C      1  0.4734350000000  0.5308820000000  0.4972980000000 1.0
C      1  0.5373740000000  0.4904030000000  0.5407000000000 1.0
C      1  0.4632560000000  0.4928340000000  0.5273410000000 1.0
C      1  0.4605570000000  0.4740600000000  0.5049540000000 1.0
C      1  0.5105650000000  0.5645810000000  0.4900950000000 1.0
C      1  0.5219190000000  0.4514090000000  0.4920450000000 1.0
END
