TITL C-862134-6730-867 -1.53466066250966e-07 125000 -276.801782871021 0 0 50 (C3) n - 1
REM
REM in /home/nfs/bkarasulu/CARBON/AIRSS/Generating-Clusters/TERSOFF/Higher-Symm/FIRE-HFTN
REM
REM
REM
REM
REM
REM ./C.cell (b20cbc046b6831c77cfcea5457e17084)
REM AIRSS Version 0.9.1 bugfix July 2018 build 013d7b7c2542+ Fri, 06 Jul 2018 19:26:36 +0100
REM compiler GCC version 9.2.1 20190827 (Red Hat 9.2.1-1)
REM options -cpp -mtune=generic -march=x86-64 -g -O0 -fpre-include=/usr/include/finclude/math-vector-fortran.h
REM seed 49440617 1408162288 493654165 2147090038 982736812 -605442584 -1880204294 917071336 -524745971 -1278417943 -1683885726 -758638295 1363171494 529437772 1253390757 252683868 -2140615245 -702256607 1288265465 -11222649 -1904874548 -1273949010 1108983372 1545093339 -1379236664 -1539408470 -990800169 713304781 -1489554747 879070835 375843690 1497527281 111156500
REM
CELL 1.54180   50.00000   50.00000   50.00000   90.00000   90.00000   90.00000
LATT -1
SFAC C  
C      1  0.4716620000000  0.5502970000000  0.4829850000000 1.0
C      1  0.4716620000000  0.4600410000000  0.4660800000000 1.0
C      1  0.4716620000000  0.4905290000000  0.5526960000000 1.0
C      1  0.5398260000000  0.5412330000000  0.5250930000000 1.0
C      1  0.5398260000000  0.5010400000000  0.4528750000000 1.0
C      1  0.5398260000000  0.4585940000000  0.5237930000000 1.0
C      1  0.4988300000000  0.4455970000000  0.5516630000000 1.0
C      1  0.4988300000000  0.5718680000000  0.5224140000000 1.0
C      1  0.4988300000000  0.4834020000000  0.4276840000000 1.0
C      1  0.4536760000000  0.5071290000000  0.4380240000000 1.0
C      1  0.4536760000000  0.4426880000000  0.5259450000000 1.0
C      1  0.4536760000000  0.5510500000000  0.5377920000000 1.0
C      1  0.4961940000000  0.5322030000000  0.5507200000000 1.0
C      1  0.4961940000000  0.5277480000000  0.4478820000000 1.0
C      1  0.4961940000000  0.4409150000000  0.5031590000000 1.0
C      1  0.4817400000000  0.4321410000000  0.5297070000000 1.0
C      1  0.4817400000000  0.5595820000000  0.5450450000000 1.0
C      1  0.4817400000000  0.5091440000000  0.4270090000000 1.0
C      1  0.5262440000000  0.5281420000000  0.4513630000000 1.0
C      1  0.5262440000000  0.4437340000000  0.5010770000000 1.0
C      1  0.5262440000000  0.5289910000000  0.5493200000000 1.0
C      1  0.5225780000000  0.5329100000000  0.4998070000000 1.0
C      1  0.5225780000000  0.4833030000000  0.4727270000000 1.0
C      1  0.5225780000000  0.4846550000000  0.5292270000000 1.0
C      1  0.5611980000000  0.4999470000000  0.4795210000000 1.0
C      1  0.5611980000000  0.4822160000000  0.5114160000000 1.0
C      1  0.5611980000000  0.5187040000000  0.5108240000000 1.0
C      1  0.5287570000000  0.4441120000000  0.5487690000000 1.0
C      1  0.5287570000000  0.5701050000000  0.5251470000000 1.0
C      1  0.5287570000000  0.4866500000000  0.4278450000000 1.0
C      1  0.4813980000000  0.5131750000000  0.5673570000000 1.0
C      1  0.4813980000000  0.5516700000000  0.4560420000000 1.0
C      1  0.4813980000000  0.4360220000000  0.4783620000000 1.0
C      1  0.4817210000000  0.5244680000000  0.5203180000000 1.0
C      1  0.4817210000000  0.5052870000000  0.4697820000000 1.0
C      1  0.4817210000000  0.4711120000000  0.5116610000000 1.0
C      1  0.4492180000000  0.4953470000000  0.5323520000000 1.0
C      1  0.4492180000000  0.5302690000000  0.4889840000000 1.0
C      1  0.4492180000000  0.4752510000000  0.4804250000000 1.0
C      1  0.4934450000000  0.4737160000000  0.5398380000000 1.0
C      1  0.4934450000000  0.5475680000000  0.5039750000000 1.0
C      1  0.4934450000000  0.4795830000000  0.4579480000000 1.0
C      1  0.4490230000000  0.5051570000000  0.4690720000000 1.0
C      1  0.4490230000000  0.4705620000000  0.5121290000000 1.0
C      1  0.4490230000000  0.5251480000000  0.5205600000000 1.0
C      1  0.5334740000000  0.5430160000000  0.4746310000000 1.0
C      1  0.5334740000000  0.4564470000000  0.4765620000000 1.0
C      1  0.5334740000000  0.5014040000000  0.5505680000000 1.0
C      1  0.5244490000000  0.5002890000000  0.5005870000000 1.0
C      1  0.4826030000000  0.5002890000000  0.5005870000000 1.0
END
