TITL C-862127-1500-144 0.000528877475236431 125000 -665.658473113977 0 0 124 (C1) n - 1
REM
REM in /home/nfs/bkarasulu/CARBON/AIRSS/Generating-Clusters/TERSOFF/Higher-Symm/FIRE-HFTN
REM
REM
REM
REM
REM
REM ./C.cell (b20cbc046b6831c77cfcea5457e17084)
REM AIRSS Version 0.9.1 bugfix July 2018 build 013d7b7c2542+ Fri, 06 Jul 2018 19:26:36 +0100
REM compiler GCC version 9.2.1 20190827 (Red Hat 9.2.1-1)
REM options -cpp -mtune=generic -march=x86-64 -g -O0 -fpre-include=/usr/include/finclude/math-vector-fortran.h
REM seed -496072599 -310992803 1034381325 -1433956026 -341316895 -1044595571 -792178739 260977904 1597153613 -1571952843 -1893283973 1356097696 -1269539117 -335983193 2045618287 293682486 303402143 110291104 1607959676 177653443 314231239 1689749603 1075367524 -659138465 65396911 471557099 -145283175 -752674776 1251092198 1993216849 -1107054922 1092055718 -363850439
REM
CELL 1.54180   50.00000   50.00000   50.00000   90.00000   90.00000   90.00000
LATT -1
SFAC C  
C      1  0.4492590000000  0.5479280000000  0.5982040000000 1.0
C      1  0.5649130000000  0.5226270000000  0.5981870000000 1.0
C      1  0.4868560000000  0.4298730000000  0.5988770000000 1.0
C      1  0.5496850000000  0.5474900000000  0.5974520000000 1.0
C      1  0.4337890000000  0.5232260000000  0.5991490000000 1.0
C      1  0.5159900000000  0.4307950000000  0.5979960000000 1.0
C      1  0.5539240000000  0.4854480000000  0.4719530000000 1.0
C      1  0.4650710000000  0.4619020000000  0.4740240000000 1.0
C      1  0.4832090000000  0.5520550000000  0.4729130000000 1.0
C      1  0.4479740000000  0.4875710000000  0.4728630000000 1.0
C      1  0.5361590000000  0.4602610000000  0.4731030000000 1.0
C      1  0.5142120000000  0.5571280000000  0.4714700000000 1.0
C      1  0.4083000000000  0.5177930000000  0.5246620000000 1.0
C      1  0.5600280000000  0.5710580000000  0.5237420000000 1.0
C      1  0.5306730000000  0.4101910000000  0.5242510000000 1.0
C      1  0.5906000000000  0.5175990000000  0.5241380000000 1.0
C      1  0.4379680000000  0.5713440000000  0.5248520000000 1.0
C      1  0.4697370000000  0.4104450000000  0.5244740000000 1.0
C      1  0.5380070000000  0.4425210000000  0.4985000000000 1.0
C      1  0.4319110000000  0.4948720000000  0.4986050000000 1.0
C      1  0.5275120000000  0.5640190000000  0.4981490000000 1.0
C      1  0.4627980000000  0.4430680000000  0.4989870000000 1.0
C      1  0.5678230000000  0.4935780000000  0.4983160000000 1.0
C      1  0.4696650000000  0.5628030000000  0.4986770000000 1.0
C      1  0.3972610000000  0.4889410000000  0.5235960000000 1.0
C      1  0.5412020000000  0.5964880000000  0.5229430000000 1.0
C      1  0.5620270000000  0.4134720000000  0.5231760000000 1.0
C      1  0.6028760000000  0.4889090000000  0.5233270000000 1.0
C      1  0.4563880000000  0.5970610000000  0.5237000000000 1.0
C      1  0.4389000000000  0.4144970000000  0.5232720000000 1.0
C      1  0.5602240000000  0.4810240000000  0.5277060000000 1.0
C      1  0.4534490000000  0.4551760000000  0.5287980000000 1.0
C      1  0.4839790000000  0.5608650000000  0.5272210000000 1.0
C      1  0.4381590000000  0.4808930000000  0.5287490000000 1.0
C      1  0.5451640000000  0.4553260000000  0.5277320000000 1.0
C      1  0.5136740000000  0.5612230000000  0.5269240000000 1.0
C      1  0.4824530000000  0.4589220000000  0.5376940000000 1.0
C      1  0.4721090000000  0.5339210000000  0.5350840000000 1.0
C      1  0.5431100000000  0.5049950000000  0.5360580000000 1.0
C      1  0.5159590000000  0.4589630000000  0.5358510000000 1.0
C      1  0.5262880000000  0.5342250000000  0.5340390000000 1.0
C      1  0.4555840000000  0.5046400000000  0.5373780000000 1.0
C      1  0.5326580000000  0.4987670000000  0.5655610000000 1.0
C      1  0.4819740000000  0.4709450000000  0.5673540000000 1.0
C      1  0.4838100000000  0.5289520000000  0.5647640000000 1.0
C      1  0.4661070000000  0.4986060000000  0.5669800000000 1.0
C      1  0.5171780000000  0.4712440000000  0.5657430000000 1.0
C      1  0.5150830000000  0.5288880000000  0.5640180000000 1.0
C      1  0.4586980000000  0.5055680000000  0.4523010000000 1.0
C      1  0.5258540000000  0.5354860000000  0.4539110000000 1.0
C      1  0.5151630000000  0.4620420000000  0.4519470000000 1.0
C      1  0.5392550000000  0.5029540000000  0.4528860000000 1.0
C      1  0.4814890000000  0.5250060000000  0.4562390000000 1.0
C      1  0.4850230000000  0.4625420000000  0.4521630000000 1.0
C      1  0.5653790000000  0.4453740000000  0.4668300000000 1.0
C      1  0.4173020000000  0.4739790000000  0.4652510000000 1.0
C      1  0.5151200000000  0.5890650000000  0.4625480000000 1.0
C      1  0.4353530000000  0.4478540000000  0.4676540000000 1.0
C      1  0.5835600000000  0.4717460000000  0.4634890000000 1.0
C      1  0.4831500000000  0.5847580000000  0.4655310000000 1.0
C      1  0.5420040000000  0.4942140000000  0.4228910000000 1.0
C      1  0.4732610000000  0.4659600000000  0.4230380000000 1.0
C      1  0.4854180000000  0.5371120000000  0.4266120000000 1.0
C      1  0.4563310000000  0.4946590000000  0.4225340000000 1.0
C      1  0.5258160000000  0.4655480000000  0.4223120000000 1.0
C      1  0.5179560000000  0.5404180000000  0.4223650000000 1.0
C      1  0.5761220000000  0.5273130000000  0.5492600000000 1.0
C      1  0.4851900000000  0.4187830000000  0.5497090000000 1.0
C      1  0.4380810000000  0.5536590000000  0.5497490000000 1.0
C      1  0.4227080000000  0.5274760000000  0.5500390000000 1.0
C      1  0.5154400000000  0.4191920000000  0.5492910000000 1.0
C      1  0.5605420000000  0.5534840000000  0.5488200000000 1.0
C      1  0.5790440000000  0.5273640000000  0.4439920000000 1.0
C      1  0.4844460000000  0.4172820000000  0.4438010000000 1.0
C      1  0.4381870000000  0.5546140000000  0.4448300000000 1.0
C      1  0.4217030000000  0.5293540000000  0.4437190000000 1.0
C      1  0.5146450000000  0.4170350000000  0.4434000000000 1.0
C      1  0.5651180000000  0.5539750000000  0.4431890000000 1.0
C      1  0.5265780000000  0.4392080000000  0.5713590000000 1.0
C      1  0.4340450000000  0.5084000000000  0.5732130000000 1.0
C      1  0.5375700000000  0.5526790000000  0.5706860000000 1.0
C      1  0.4741140000000  0.4378820000000  0.5730400000000 1.0
C      1  0.5644900000000  0.5081740000000  0.5720570000000 1.0
C      1  0.4612840000000  0.5529570000000  0.5713560000000 1.0
C      1  0.5231120000000  0.5844230000000  0.5438040000000 1.0
C      1  0.5603980000000  0.4351820000000  0.5438760000000 1.0
C      1  0.4128710000000  0.4768870000000  0.5462470000000 1.0
C      1  0.4745250000000  0.5840070000000  0.5437990000000 1.0
C      1  0.4378250000000  0.4348730000000  0.5452650000000 1.0
C      1  0.5853010000000  0.4773260000000  0.5447350000000 1.0
C      1  0.5431530000000  0.5592150000000  0.4239070000000 1.0
C      1  0.5303950000000  0.4342220000000  0.4244350000000 1.0
C      1  0.4276360000000  0.5075750000000  0.4241300000000 1.0
C      1  0.4632440000000  0.5581610000000  0.4286830000000 1.0
C      1  0.4684050000000  0.4348030000000  0.4253760000000 1.0
C      1  0.5713230000000  0.5047900000000  0.4258270000000 1.0
C      1  0.5770940000000  0.5254420000000  0.4970900000000 1.0
C      1  0.4836740000000  0.4180620000000  0.4973540000000 1.0
C      1  0.4376970000000  0.5556740000000  0.4978720000000 1.0
C      1  0.4215800000000  0.5264850000000  0.4974320000000 1.0
C      1  0.5167260000000  0.4178120000000  0.4970610000000 1.0
C      1  0.5601830000000  0.5552900000000  0.4964020000000 1.0
C      1  0.5145000000000  0.4758790000000  0.5077440000000 1.0
C      1  0.4715510000000  0.4993740000000  0.5112550000000 1.0
C      1  0.5132980000000  0.5252640000000  0.5052620000000 1.0
C      1  0.4859170000000  0.4755620000000  0.5116760000000 1.0
C      1  0.5279560000000  0.5004490000000  0.5091520000000 1.0
C      1  0.4850730000000  0.5245850000000  0.5061060000000 1.0
C      1  0.5736310000000  0.4359030000000  0.4979720000000 1.0
C      1  0.4086290000000  0.4683040000000  0.4980410000000 1.0
C      1  0.5165550000000  0.5975190000000  0.4967190000000 1.0
C      1  0.4269330000000  0.4368810000000  0.4982340000000 1.0
C      1  0.5916150000000  0.4674970000000  0.4973030000000 1.0
C      1  0.4802230000000  0.5967230000000  0.4973340000000 1.0
C      1  0.4732930000000  0.4083720000000  0.4698340000000 1.0
C      1  0.4347360000000  0.5690470000000  0.4703040000000 1.0
C      1  0.5915330000000  0.5219270000000  0.4701070000000 1.0
C      1  0.5264040000000  0.4080680000000  0.4692270000000 1.0
C      1  0.5659590000000  0.5684030000000  0.4690700000000 1.0
C      1  0.4081620000000  0.5233450000000  0.4695380000000 1.0
C      1  0.4993780000000  0.4690740000000  0.4080330000000 1.0
C      1  0.5270840000000  0.5155590000000  0.4082310000000 1.0
C      1  0.4742340000000  0.5151170000000  0.4097600000000 1.0
C      1  0.5069750000000  0.5089380000000  0.4642050000000 1.0
END
