TITL C-862501-1041-136 0.16638150289902 125000 -196.988280193612 0 0 36 (C1) n - 1
REM
REM in /home/nfs/bkarasulu/CARBON/AIRSS/Generating-Clusters/TERSOFF/Higher-Symm/FIRE-HFTN
REM
REM
REM
REM
REM
REM ./C.cell (b20cbc046b6831c77cfcea5457e17084)
REM AIRSS Version 0.9.1 bugfix July 2018 build 013d7b7c2542+ Fri, 06 Jul 2018 19:26:36 +0100
REM compiler GCC version 9.2.1 20190827 (Red Hat 9.2.1-1)
REM options -cpp -mtune=generic -march=x86-64 -g -O0 -fpre-include=/usr/include/finclude/math-vector-fortran.h
REM seed 280466802 -1123664567 1195821389 -1998972156 891886431 -1378431249 -219533984 247872884 -193446594 1942668786 2033677797 1758439547 510078172 1640590392 -1300922363 -1147077639 -632509724 626265772 222352937 -658763668 -501060952 1445925918 650745458 1410622363 873213259 1590242094 1863263598 -90391111 -785961082 1209000161 1776448051 1326545517 -463012218
REM
CELL 1.54180   50.00000   50.00000   50.00000   90.00000   90.00000   90.00000
LATT -1
SFAC C  
C      1  0.5382480000000  0.4866100000000  0.4588850000000 1.0
C      1  0.5015160000000  0.5234310000000  0.4629960000000 1.0
C      1  0.4629890000000  0.4799900000000  0.4638740000000 1.0
C      1  0.4662290000000  0.5167400000000  0.5479140000000 1.0
C      1  0.5017080000000  0.4686530000000  0.5450440000000 1.0
C      1  0.5250040000000  0.5223950000000  0.5465500000000 1.0
C      1  0.4574420000000  0.4705910000000  0.5155440000000 1.0
C      1  0.5438020000000  0.4873150000000  0.5150690000000 1.0
C      1  0.4918720000000  0.5079680000000  0.5080880000000 1.0
C      1  0.4724430000000  0.4824250000000  0.5386330000000 1.0
C      1  0.5276930000000  0.4916440000000  0.5394240000000 1.0
C      1  0.4949980000000  0.5175590000000  0.5346140000000 1.0
C      1  0.5703370000000  0.5191360000000  0.5081920000000 1.0
C      1  0.4675310000000  0.5537900000000  0.5054160000000 1.0
C      1  0.4788450000000  0.4362040000000  0.5044820000000 1.0
C      1  0.5121550000000  0.4759210000000  0.4456140000000 1.0
C      1  0.5231050000000  0.5291250000000  0.4437130000000 1.0
C      1  0.4610270000000  0.5039290000000  0.4472020000000 1.0
C      1  0.5303920000000  0.4849310000000  0.4878800000000 1.0
C      1  0.5113840000000  0.5113560000000  0.4882800000000 1.0
C      1  0.4505280000000  0.4851450000000  0.4911160000000 1.0
C      1  0.4825340000000  0.4420050000000  0.5333450000000 1.0
C      1  0.5592900000000  0.5197400000000  0.5368090000000 1.0
C      1  0.4663560000000  0.5482560000000  0.5345400000000 1.0
C      1  0.5222660000000  0.4526310000000  0.5249260000000 1.0
C      1  0.5272230000000  0.5432540000000  0.5233090000000 1.0
C      1  0.4407620000000  0.5155910000000  0.5280900000000 1.0
C      1  0.4725610000000  0.5278640000000  0.4595050000000 1.0
C      1  0.4883900000000  0.4642900000000  0.4614420000000 1.0
C      1  0.5481290000000  0.5157310000000  0.4551920000000 1.0
C      1  0.4576280000000  0.5346750000000  0.4851970000000 1.0
C      1  0.4967850000000  0.4475280000000  0.4841030000000 1.0
C      1  0.5555300000000  0.5294980000000  0.4836320000000 1.0
C      1  0.5206950000000  0.4574620000000  0.4964820000000 1.0
C      1  0.5292100000000  0.5340380000000  0.4961290000000 1.0
C      1  0.4433900000000  0.5125790000000  0.4987660000000 1.0
END
