TITL C-862132-7359-526 0.0711915886908869 125000 -1067.0875141971 0 0 200 (C1) n - 1
REM
REM in /home/nfs/bkarasulu/CARBON/AIRSS/Generating-Clusters/TERSOFF/Higher-Symm/FIRE-HFTN
REM
REM
REM
REM
REM
REM ./C.cell (b20cbc046b6831c77cfcea5457e17084)
REM AIRSS Version 0.9.1 bugfix July 2018 build 013d7b7c2542+ Fri, 06 Jul 2018 19:26:36 +0100
REM compiler GCC version 9.2.1 20190827 (Red Hat 9.2.1-1)
REM options -cpp -mtune=generic -march=x86-64 -g -O0 -fpre-include=/usr/include/finclude/math-vector-fortran.h
REM seed -243796031 374889787 -1554276611 502765538 -1498031301 -833823730 2025814256 -1313418144 -1469322619 -249384858 -1298048706 928682240 1603806336 -68765915 -1391527953 -1758083838 -1155620480 145156895 366638052 603303719 -1680430471 -1747990995 -1333422567 -852235799 1684856655 1571403575 -377880917 -2029543720 -1264748221 25242332 -2010583913 -309737215 -1080596254
REM
CELL 1.54180   50.00000   50.00000   50.00000   90.00000   90.00000   90.00000
LATT -1
SFAC C  
C      1  0.5726180000000  0.4201110000000  0.5619750000000 1.0
C      1  0.5305460000000  0.6001790000000  0.5632080000000 1.0
C      1  0.3931310000000  0.4785820000000  0.5614130000000 1.0
C      1  0.5731860000000  0.4207050000000  0.4385920000000 1.0
C      1  0.5299710000000  0.6003590000000  0.4373280000000 1.0
C      1  0.3932640000000  0.4776930000000  0.4392540000000 1.0
C      1  0.5051160000000  0.4301880000000  0.6045450000000 1.0
C      1  0.5599360000000  0.5377690000000  0.6052770000000 1.0
C      1  0.4342900000000  0.5321550000000  0.6055730000000 1.0
C      1  0.5055900000000  0.4302290000000  0.3958900000000 1.0
C      1  0.5595670000000  0.5381580000000  0.3950660000000 1.0
C      1  0.4340240000000  0.5315560000000  0.3948650000000 1.0
C      1  0.4298260000000  0.5245070000000  0.5154610000000 1.0
C      1  0.5148170000000  0.4281190000000  0.5154680000000 1.0
C      1  0.5550030000000  0.5487650000000  0.5155300000000 1.0
C      1  0.4295020000000  0.5247430000000  0.4844830000000 1.0
C      1  0.5147830000000  0.4279030000000  0.4844990000000 1.0
C      1  0.5548980000000  0.5488730000000  0.4846630000000 1.0
C      1  0.4674540000000  0.5817100000000  0.4403470000000 1.0
C      1  0.4459320000000  0.4299200000000  0.4407400000000 1.0
C      1  0.5898830000000  0.4883730000000  0.4422560000000 1.0
C      1  0.4676700000000  0.5813980000000  0.5599260000000 1.0
C      1  0.4460880000000  0.4302920000000  0.5595520000000 1.0
C      1  0.5897480000000  0.4881130000000  0.5579290000000 1.0
C      1  0.5812700000000  0.5197920000000  0.4015970000000 1.0
C      1  0.4424770000000  0.5587700000000  0.4012260000000 1.0
C      1  0.4783520000000  0.4220130000000  0.4013650000000 1.0
C      1  0.5814630000000  0.5192150000000  0.5987960000000 1.0
C      1  0.4431320000000  0.5592670000000  0.5995890000000 1.0
C      1  0.4777510000000  0.4223380000000  0.5993960000000 1.0
C      1  0.5488310000000  0.4861070000000  0.5836610000000 1.0
C      1  0.4872820000000  0.5424040000000  0.5844400000000 1.0
C      1  0.4651610000000  0.4677460000000  0.5856850000000 1.0
C      1  0.5488740000000  0.4864600000000  0.4166860000000 1.0
C      1  0.4868800000000  0.5423260000000  0.4161020000000 1.0
C      1  0.4653490000000  0.4673940000000  0.4147640000000 1.0
C      1  0.5240660000000  0.4592010000000  0.4747540000000 1.0
C      1  0.5233350000000  0.5399920000000  0.4750180000000 1.0
C      1  0.4523170000000  0.5000980000000  0.4745180000000 1.0
C      1  0.5241570000000  0.4591270000000  0.5253960000000 1.0
C      1  0.5235870000000  0.5399920000000  0.5252960000000 1.0
C      1  0.4524420000000  0.5001160000000  0.5256410000000 1.0
C      1  0.4595320000000  0.4160300000000  0.5141840000000 1.0
C      1  0.5947820000000  0.5074330000000  0.5149650000000 1.0
C      1  0.4483480000000  0.5777460000000  0.5138030000000 1.0
C      1  0.4592560000000  0.4145320000000  0.4832650000000 1.0
C      1  0.5952300000000  0.5076810000000  0.4841990000000 1.0
C      1  0.4469290000000  0.5790240000000  0.4829360000000 1.0
C      1  0.5310150000000  0.5276810000000  0.6046820000000 1.0
C      1  0.4551750000000  0.5102810000000  0.6062130000000 1.0
C      1  0.5129320000000  0.4597000000000  0.6053960000000 1.0
C      1  0.5307040000000  0.5278950000000  0.3957740000000 1.0
C      1  0.4550860000000  0.5098880000000  0.3943030000000 1.0
C      1  0.5131230000000  0.4597960000000  0.3950740000000 1.0
C      1  0.4382620000000  0.5188240000000  0.5603790000000 1.0
C      1  0.5149430000000  0.4394640000000  0.5612440000000 1.0
C      1  0.5450530000000  0.5423090000000  0.5612190000000 1.0
C      1  0.4378560000000  0.5182810000000  0.4396230000000 1.0
C      1  0.5154550000000  0.4394880000000  0.4387830000000 1.0
C      1  0.5447060000000  0.5425710000000  0.4390560000000 1.0
C      1  0.5204630000000  0.4696780000000  0.4426470000000 1.0
C      1  0.5162390000000  0.5303480000000  0.4436040000000 1.0
C      1  0.4589360000000  0.4974180000000  0.4433910000000 1.0
C      1  0.5202360000000  0.4696380000000  0.5576930000000 1.0
C      1  0.5165130000000  0.5302500000000  0.5568630000000 1.0
C      1  0.4591510000000  0.4977280000000  0.5569170000000 1.0
C      1  0.4179470000000  0.5640730000000  0.5533860000000 1.0
C      1  0.4873260000000  0.3976960000000  0.5536290000000 1.0
C      1  0.5952260000000  0.5409350000000  0.5537570000000 1.0
C      1  0.4169730000000  0.5627900000000  0.4452460000000 1.0
C      1  0.4886450000000  0.3975380000000  0.4453860000000 1.0
C      1  0.5948140000000  0.5415390000000  0.4460570000000 1.0
C      1  0.4776590000000  0.5117590000000  0.4165280000000 1.0
C      1  0.4982500000000  0.4820540000000  0.4167400000000 1.0
C      1  0.5242970000000  0.5062360000000  0.4180280000000 1.0
C      1  0.4778170000000  0.5119520000000  0.5840050000000 1.0
C      1  0.4981990000000  0.4820980000000  0.5837240000000 1.0
C      1  0.5244030000000  0.5060680000000  0.5824200000000 1.0
C      1  0.4796660000000  0.4190630000000  0.4632460000000 1.0
C      1  0.5809080000000  0.5230110000000  0.4642080000000 1.0
C      1  0.4401950000000  0.5592310000000  0.4630330000000 1.0
C      1  0.4791260000000  0.4197000000000  0.5359160000000 1.0
C      1  0.5809560000000  0.5226070000000  0.5356760000000 1.0
C      1  0.4412140000000  0.5594130000000  0.5358490000000 1.0
C      1  0.5890230000000  0.5934280000000  0.5159110000000 1.0
C      1  0.3742100000000  0.5353230000000  0.5155440000000 1.0
C      1  0.5345990000000  0.3750780000000  0.5156420000000 1.0
C      1  0.5888440000000  0.5936190000000  0.4841670000000 1.0
C      1  0.3737120000000  0.5352600000000  0.4836340000000 1.0
C      1  0.5349060000000  0.3748820000000  0.4837980000000 1.0
C      1  0.4419150000000  0.4721640000000  0.5619920000000 1.0
C      1  0.5529640000000  0.4636820000000  0.5605660000000 1.0
C      1  0.5041100000000  0.5604010000000  0.5610690000000 1.0
C      1  0.4419300000000  0.4716640000000  0.4384160000000 1.0
C      1  0.5532350000000  0.4639980000000  0.4397410000000 1.0
C      1  0.5037140000000  0.5605340000000  0.4394390000000 1.0
C      1  0.4154100000000  0.4849770000000  0.5827320000000 1.0
C      1  0.5548860000000  0.4354690000000  0.5829940000000 1.0
C      1  0.5268600000000  0.5763970000000  0.5839880000000 1.0
C      1  0.4153230000000  0.4840650000000  0.4175670000000 1.0
C      1  0.5555570000000  0.4358820000000  0.4172460000000 1.0
C      1  0.5262850000000  0.5766340000000  0.4164260000000 1.0
C      1  0.5123490000000  0.5505160000000  0.6010010000000 1.0
C      1  0.4435200000000  0.4832260000000  0.6024270000000 1.0
C      1  0.5428550000000  0.4615750000000  0.6012350000000 1.0
C      1  0.5118950000000  0.5506090000000  0.3995060000000 1.0
C      1  0.4436330000000  0.4827180000000  0.3979840000000 1.0
C      1  0.5430500000000  0.4619220000000  0.3990910000000 1.0
C      1  0.5892120000000  0.5603880000000  0.4831040000000 1.0
C      1  0.4035280000000  0.5503480000000  0.4829830000000 1.0
C      1  0.5067410000000  0.3925050000000  0.4828920000000 1.0
C      1  0.5893550000000  0.5601370000000  0.5169360000000 1.0
C      1  0.4040760000000  0.5502080000000  0.5163110000000 1.0
C      1  0.5065190000000  0.3928300000000  0.5166540000000 1.0
C      1  0.4890030000000  0.4453170000000  0.5437240000000 1.0
C      1  0.5540410000000  0.5173470000000  0.5432870000000 1.0
C      1  0.4578640000000  0.5375810000000  0.5438060000000 1.0
C      1  0.4891580000000  0.4451690000000  0.4561160000000 1.0
C      1  0.5539080000000  0.5175070000000  0.4568470000000 1.0
C      1  0.4575900000000  0.5374230000000  0.4560140000000 1.0
C      1  0.5350480000000  0.4997070000000  0.4739090000000 1.0
C      1  0.4828720000000  0.5288460000000  0.4734750000000 1.0
C      1  0.4835610000000  0.4706030000000  0.4736760000000 1.0
C      1  0.5350740000000  0.4996440000000  0.5263430000000 1.0
C      1  0.4831790000000  0.5286680000000  0.5268990000000 1.0
C      1  0.4835480000000  0.4709060000000  0.5265970000000 1.0
C      1  0.4122610000000  0.5169890000000  0.5404940000000 1.0
C      1  0.5301420000000  0.4178190000000  0.5406920000000 1.0
C      1  0.5556320000000  0.5666220000000  0.5410800000000 1.0
C      1  0.4118660000000  0.5164980000000  0.4597060000000 1.0
C      1  0.5306590000000  0.4178490000000  0.4595000000000 1.0
C      1  0.5552990000000  0.5668980000000  0.4592280000000 1.0
C      1  0.4880910000000  0.5781140000000  0.4656740000000 1.0
C      1  0.4376200000000  0.4498300000000  0.4655600000000 1.0
C      1  0.5756960000000  0.4703410000000  0.4657740000000 1.0
C      1  0.4885410000000  0.5777950000000  0.5349290000000 1.0
C      1  0.4376710000000  0.4503070000000  0.5349190000000 1.0
C      1  0.5755530000000  0.4700840000000  0.5344810000000 1.0
C      1  0.4311440000000  0.6041810000000  0.4729270000000 1.0
C      1  0.4463140000000  0.3879040000000  0.4729280000000 1.0
C      1  0.6244560000000  0.5103920000000  0.4729520000000 1.0
C      1  0.4316840000000  0.6015350000000  0.5272340000000 1.0
C      1  0.4479340000000  0.3893570000000  0.5272370000000 1.0
C      1  0.6238190000000  0.5105910000000  0.5270620000000 1.0
C      1  0.5760000000000  0.4965890000000  0.4176450000000 1.0
C      1  0.4659180000000  0.5633150000000  0.4173780000000 1.0
C      1  0.4611700000000  0.4385030000000  0.4170860000000 1.0
C      1  0.5760070000000  0.4961270000000  0.5826610000000 1.0
C      1  0.4664440000000  0.5635310000000  0.5832350000000 1.0
C      1  0.4608360000000  0.4388690000000  0.5834600000000 1.0
C      1  0.5170680000000  0.3975710000000  0.4377440000000 1.0
C      1  0.5798150000000  0.5654890000000  0.4375360000000 1.0
C      1  0.4013370000000  0.5388160000000  0.4378490000000 1.0
C      1  0.5156780000000  0.3975120000000  0.5619790000000 1.0
C      1  0.5803680000000  0.5649200000000  0.5625750000000 1.0
C      1  0.4022460000000  0.5402740000000  0.5616920000000 1.0
C      1  0.4839190000000  0.6035140000000  0.4837080000000 1.0
C      1  0.4184230000000  0.4328590000000  0.4835560000000 1.0
C      1  0.6003650000000  0.4628140000000  0.4835630000000 1.0
C      1  0.4840900000000  0.6032760000000  0.5172810000000 1.0
C      1  0.4185460000000  0.4330650000000  0.5172470000000 1.0
C      1  0.6003000000000  0.4627340000000  0.5167210000000 1.0
C      1  0.5254410000000  0.4190370000000  0.5853600000000 1.0
C      1  0.5571760000000  0.5608090000000  0.5860850000000 1.0
C      1  0.4160400000000  0.5200470000000  0.5849660000000 1.0
C      1  0.5264420000000  0.4191090000000  0.4146280000000 1.0
C      1  0.5566470000000  0.5612660000000  0.4141760000000 1.0
C      1  0.4154430000000  0.5189500000000  0.4149990000000 1.0
C      1  0.4554730000000  0.6190310000000  0.5164090000000 1.0
C      1  0.4206210000000  0.4004160000000  0.5162760000000 1.0
C      1  0.6275970000000  0.4812740000000  0.5159090000000 1.0
C      1  0.4553610000000  0.6200930000000  0.4850240000000 1.0
C      1  0.4199350000000  0.3999230000000  0.4849490000000 1.0
C      1  0.6278020000000  0.4812020000000  0.4844660000000 1.0
C      1  0.3941300000000  0.4947510000000  0.5369490000000 1.0
C      1  0.5585990000000  0.4134250000000  0.5370840000000 1.0
C      1  0.5438260000000  0.5928650000000  0.5379270000000 1.0
C      1  0.3941180000000  0.4939870000000  0.4637210000000 1.0
C      1  0.5591470000000  0.4138330000000  0.4634810000000 1.0
C      1  0.5433750000000  0.5930730000000  0.4625840000000 1.0
C      1  0.4749620000000  0.3756280000000  0.4840500000000 1.0
C      1  0.6198490000000  0.5416610000000  0.4842000000000 1.0
C      1  0.4056140000000  0.5862820000000  0.4839740000000 1.0
C      1  0.4758920000000  0.3773840000000  0.5151740000000 1.0
C      1  0.6191570000000  0.5415910000000  0.5154960000000 1.0
C      1  0.4068880000000  0.5842140000000  0.5150960000000 1.0
C      1  0.4976830000000  0.5530980000000  0.5152560000000 1.0
C      1  0.4549040000000  0.4712360000000  0.5152030000000 1.0
C      1  0.5489600000000  0.4745900000000  0.5151610000000 1.0
C      1  0.4974760000000  0.5532130000000  0.4851230000000 1.0
C      1  0.4548760000000  0.4711090000000  0.4850190000000 1.0
C      1  0.5489750000000  0.4746420000000  0.4850460000000 1.0
C      1  0.3722270000000  0.5026580000000  0.5177540000000 1.0
C      1  0.5631970000000  0.3906990000000  0.5178190000000 1.0
C      1  0.5603030000000  0.6090720000000  0.5182250000000 1.0
C      1  0.3721310000000  0.5023940000000  0.4826910000000 1.0
C      1  0.5634760000000  0.3908230000000  0.4825460000000 1.0
C      1  0.5600590000000  0.6092190000000  0.4822050000000 1.0
C      1  0.5005520000000  0.4995340000000  0.5182820000000 1.0
C      1  0.5005330000000  0.4995160000000  0.4819690000000 1.0
END
