TITL C-862132-7359-352 -0.000598619391616089 125000 -481.664273508536 0 0 85 (C1) n - 1
REM
REM in /home/nfs/bkarasulu/CARBON/AIRSS/Generating-Clusters/TERSOFF/Higher-Symm/FIRE-HFTN
REM
REM
REM
REM
REM
REM ./C.cell (b20cbc046b6831c77cfcea5457e17084)
REM AIRSS Version 0.9.1 bugfix July 2018 build 013d7b7c2542+ Fri, 06 Jul 2018 19:26:36 +0100
REM compiler GCC version 9.2.1 20190827 (Red Hat 9.2.1-1)
REM options -cpp -mtune=generic -march=x86-64 -g -O0 -fpre-include=/usr/include/finclude/math-vector-fortran.h
REM seed 1030456321 -92147339 1167550912 269262119 262872287 -518029623 228848691 -851247935 1269734018 563970246 1447984153 1387846626 406472829 1519723608 -1212042801 -1011211764 504459243 -644224693 2140386059 -1370882989 3028967 53405132 285063613 1447474450 -566656747 -1165277015 2062559278 -2035587259 -1765443883 -178098133 827105025 1281700554 -1242367616
REM
CELL 1.54180   50.00000   50.00000   50.00000   90.00000   90.00000   90.00000
LATT -1
SFAC C  
C      1  0.5575350000000  0.4651940000000  0.5485980000000 1.0
C      1  0.5509130000000  0.5439320000000  0.5485740000000 1.0
C      1  0.4739510000000  0.5618840000000  0.5482460000000 1.0
C      1  0.4331650000000  0.4942780000000  0.5481130000000 1.0
C      1  0.4847730000000  0.4346160000000  0.5483100000000 1.0
C      1  0.4743870000000  0.5173300000000  0.5082050000000 1.0
C      1  0.4756950000000  0.4807830000000  0.5081930000000 1.0
C      1  0.5108690000000  0.4707950000000  0.5083270000000 1.0
C      1  0.5312770000000  0.5011370000000  0.5085180000000 1.0
C      1  0.5087190000000  0.5299150000000  0.5084390000000 1.0
C      1  0.5254800000000  0.4651830000000  0.4049790000000 1.0
C      1  0.5401940000000  0.5137020000000  0.4050560000000 1.0
C      1  0.4988920000000  0.5431540000000  0.4047650000000 1.0
C      1  0.4581440000000  0.5126240000000  0.4042490000000 1.0
C      1  0.4746110000000  0.4643400000000  0.4044280000000 1.0
C      1  0.5290950000000  0.4604300000000  0.5593700000000 1.0
C      1  0.5466000000000  0.5154130000000  0.5594100000000 1.0
C      1  0.4997200000000  0.5490220000000  0.5592020000000 1.0
C      1  0.4532900000000  0.5148440000000  0.5590510000000 1.0
C      1  0.4714190000000  0.4601240000000  0.5591560000000 1.0
C      1  0.5377750000000  0.4189830000000  0.5121700000000 1.0
C      1  0.5887640000000  0.5106690000000  0.5123010000000 1.0
C      1  0.5172910000000  0.5876030000000  0.5122510000000 1.0
C      1  0.4219490000000  0.5432790000000  0.5122110000000 1.0
C      1  0.4347610000000  0.4389880000000  0.5120980000000 1.0
C      1  0.4846530000000  0.4784440000000  0.5820120000000 1.0
C      1  0.5157040000000  0.4787760000000  0.5821640000000 1.0
C      1  0.5249770000000  0.5084310000000  0.5822040000000 1.0
C      1  0.4996320000000  0.5263970000000  0.5820680000000 1.0
C      1  0.4747290000000  0.5078560000000  0.5819600000000 1.0
C      1  0.5582790000000  0.5512440000000  0.5138880000000 1.0
C      1  0.4693240000000  0.5709580000000  0.5135020000000 1.0
C      1  0.4233330000000  0.4926160000000  0.5133210000000 1.0
C      1  0.4832990000000  0.4247290000000  0.5135370000000 1.0
C      1  0.5666770000000  0.4605670000000  0.5138880000000 1.0
C      1  0.4574740000000  0.4854810000000  0.4156250000000 1.0
C      1  0.5001470000000  0.4554420000000  0.4160460000000 1.0
C      1  0.5415900000000  0.4868110000000  0.4165030000000 1.0
C      1  0.5248580000000  0.5359060000000  0.4163620000000 1.0
C      1  0.4728490000000  0.5353780000000  0.4157850000000 1.0
C      1  0.5004390000000  0.4375520000000  0.4392630000000 1.0
C      1  0.5591650000000  0.4815830000000  0.4393710000000 1.0
C      1  0.5355140000000  0.5509320000000  0.4391500000000 1.0
C      1  0.4618960000000  0.5497780000000  0.4388350000000 1.0
C      1  0.4405630000000  0.4796930000000  0.4388600000000 1.0
C      1  0.4806350000000  0.4401690000000  0.4853120000000 1.0
C      1  0.5516500000000  0.4627520000000  0.4853270000000 1.0
C      1  0.5519070000000  0.5379070000000  0.4850780000000 1.0
C      1  0.4802600000000  0.5606200000000  0.4848570000000 1.0
C      1  0.4370430000000  0.4999970000000  0.4850360000000 1.0
C      1  0.5153570000000  0.4359140000000  0.5497910000000 1.0
C      1  0.5657130000000  0.4947180000000  0.5499860000000 1.0
C      1  0.5253290000000  0.5608060000000  0.5498540000000 1.0
C      1  0.4500010000000  0.5427880000000  0.5495850000000 1.0
C      1  0.4438630000000  0.4655960000000  0.5495840000000 1.0
C      1  0.5659870000000  0.5129990000000  0.4771250000000 1.0
C      1  0.5082430000000  0.5665360000000  0.4770970000000 1.0
C      1  0.4398530000000  0.5283480000000  0.4773110000000 1.0
C      1  0.4545680000000  0.4516460000000  0.4773270000000 1.0
C      1  0.5323610000000  0.4416160000000  0.4772400000000 1.0
C      1  0.5239370000000  0.4946060000000  0.4676900000000 1.0
C      1  0.5126750000000  0.5212030000000  0.4675500000000 1.0
C      1  0.4840830000000  0.5188730000000  0.4637420000000 1.0
C      1  0.4772710000000  0.4905170000000  0.4618110000000 1.0
C      1  0.5023760000000  0.4757050000000  0.4639300000000 1.0
C      1  0.4758810000000  0.5081850000000  0.5399870000000 1.0
C      1  0.4847730000000  0.4794750000000  0.5400350000000 1.0
C      1  0.5148210000000  0.4790540000000  0.5401850000000 1.0
C      1  0.5245000000000  0.5075120000000  0.5402280000000 1.0
C      1  0.5004270000000  0.5255090000000  0.5400950000000 1.0
C      1  0.5045910000000  0.4467220000000  0.4674560000000 1.0
C      1  0.5524530000000  0.4880660000000  0.4677400000000 1.0
C      1  0.5279010000000  0.5461870000000  0.4676020000000 1.0
C      1  0.4648440000000  0.5407180000000  0.4671640000000 1.0
C      1  0.4506280000000  0.4792690000000  0.4670840000000 1.0
C      1  0.4535230000000  0.4175070000000  0.5132990000000 1.0
C      1  0.5640520000000  0.4300360000000  0.5135590000000 1.0
C      1  0.5864260000000  0.5390780000000  0.5137040000000 1.0
C      1  0.4895090000000  0.5940450000000  0.5134610000000 1.0
C      1  0.4073470000000  0.5187710000000  0.5133150000000 1.0
C      1  0.5264680000000  0.5598270000000  0.5183570000000 1.0
C      1  0.4513310000000  0.5434110000000  0.5180740000000 1.0
C      1  0.4437630000000  0.4669110000000  0.5180780000000 1.0
C      1  0.5140940000000  0.4361580000000  0.5182890000000 1.0
C      1  0.5651840000000  0.4934460000000  0.5184890000000 1.0
END
