TITL C-862501-1041-1208 2.35988953696682 125000 -314.607646511576 0 0 56 (C2) n - 1
REM
REM in /home/nfs/bkarasulu/CARBON/AIRSS/Generating-Clusters/TERSOFF/Higher-Symm/FIRE-HFTN
REM
REM
REM
REM
REM
REM ./C.cell (b20cbc046b6831c77cfcea5457e17084)
REM AIRSS Version 0.9.1 bugfix July 2018 build 013d7b7c2542+ Fri, 06 Jul 2018 19:26:36 +0100
REM compiler GCC version 9.2.1 20190827 (Red Hat 9.2.1-1)
REM options -cpp -mtune=generic -march=x86-64 -g -O0 -fpre-include=/usr/include/finclude/math-vector-fortran.h
REM seed -1077969046 -1589098639 -2011935837 1683685473 -1884084698 1452979715 -1540922438 1636830775 1739471407 849882637 157595333 -1692298264 92623744 1786756839 -1949516807 -1971807033 1797618064 1577847659 -1430181168 2040735622 1984434144 -465407504 -1273011833 -228249396 -1915857062 -712221335 -913965439 -636938461 -659620338 -1508137323 -1300582831 874038813 -1412223305
REM
CELL 1.54180   50.00000   50.00000   50.00000   90.00000   90.00000   90.00000
LATT -1
SFAC C  
C      1  0.5286730000000  0.4610960000000  0.5835550000000 1.0
C      1  0.4713270000000  0.4610950000000  0.4164450000000 1.0
C      1  0.5335540000000  0.4663690000000  0.4162540000000 1.0
C      1  0.4664460000000  0.4663690000000  0.5837460000000 1.0
C      1  0.5149430000000  0.4879090000000  0.5815210000000 1.0
C      1  0.4850570000000  0.4879080000000  0.4184790000000 1.0
C      1  0.5156580000000  0.4905530000000  0.4179760000000 1.0
C      1  0.4843420000000  0.4905530000000  0.5820240000000 1.0
C      1  0.4754690000000  0.5376540000000  0.5816000000000 1.0
C      1  0.5245310000000  0.5376540000000  0.4184000000000 1.0
C      1  0.4685610000000  0.5328010000000  0.4193380000000 1.0
C      1  0.5314390000000  0.5328010000000  0.5806620000000 1.0
C      1  0.5320580000000  0.4674160000000  0.5115590000000 1.0
C      1  0.4679420000000  0.4674160000000  0.4884410000000 1.0
C      1  0.5430230000000  0.4831300000000  0.4898620000000 1.0
C      1  0.4569770000000  0.4831300000000  0.5101380000000 1.0
C      1  0.4418210000000  0.5225690000000  0.5491710000000 1.0
C      1  0.5581790000000  0.5225690000000  0.4508290000000 1.0
C      1  0.4383500000000  0.5121400000000  0.4522660000000 1.0
C      1  0.5616500000000  0.5121400000000  0.5477340000000 1.0
C      1  0.4659780000000  0.4743410000000  0.4603690000000 1.0
C      1  0.5340220000000  0.4743410000000  0.5396310000000 1.0
C      1  0.4643580000000  0.4802570000000  0.5379810000000 1.0
C      1  0.5356430000000  0.4802570000000  0.4620190000000 1.0
C      1  0.5281950000000  0.5299270000000  0.4474070000000 1.0
C      1  0.4718050000000  0.5299270000000  0.5525930000000 1.0
C      1  0.5332520000000  0.5243920000000  0.5517020000000 1.0
C      1  0.4667480000000  0.5243920000000  0.4482980000000 1.0
C      1  0.4299450000000  0.4969520000000  0.5590610000000 1.0
C      1  0.5700550000000  0.4969520000000  0.4409390000000 1.0
C      1  0.4299080000000  0.4853160000000  0.4415500000000 1.0
C      1  0.5700920000000  0.4853160000000  0.5584500000000 1.0
C      1  0.4755670000000  0.5637890000000  0.5143540000000 1.0
C      1  0.5244330000000  0.5637890000000  0.4856450000000 1.0
C      1  0.4657520000000  0.5566680000000  0.4880770000000 1.0
C      1  0.5342470000000  0.5566680000000  0.5119230000000 1.0
C      1  0.4808300000000  0.4410150000000  0.5886190000000 1.0
C      1  0.5191700000000  0.4410140000000  0.4113810000000 1.0
C      1  0.4897290000000  0.4385460000000  0.4113320000000 1.0
C      1  0.5102710000000  0.4385460000000  0.5886680000000 1.0
C      1  0.4818870000000  0.5143980000000  0.4002590000000 1.0
C      1  0.5181130000000  0.5143980000000  0.5997410000000 1.0
C      1  0.4859840000000  0.5171680000000  0.6003170000000 1.0
C      1  0.5140160000000  0.5171680000000  0.3996830000000 1.0
C      1  0.4789990000000  0.4968330000000  0.4470070000000 1.0
C      1  0.5210010000000  0.4968330000000  0.5529930000000 1.0
C      1  0.4792750000000  0.5006160000000  0.5538060000000 1.0
C      1  0.5207250000000  0.5006160000000  0.4461940000000 1.0
C      1  0.5189200000000  0.5422740000000  0.5320270000000 1.0
C      1  0.4810800000000  0.5422730000000  0.4679730000000 1.0
C      1  0.5114720000000  0.5453760000000  0.4672090000000 1.0
C      1  0.4885280000000  0.5453760000000  0.5327910000000 1.0
C      1  0.5544990000000  0.4701380000000  0.4397200000000 1.0
C      1  0.4455010000000  0.4701380000000  0.5602800000000 1.0
C      1  0.5511330000000  0.4603570000000  0.5606730000000 1.0
C      1  0.4488680000000  0.4603560000000  0.4393270000000 1.0
END
