TITL C-862129-6180-530 28.7836905304366 125000 -986.267918368263 0 0 174 (C2) n - 1
REM
REM in /home/nfs/bkarasulu/CARBON/AIRSS/Generating-Clusters/TERSOFF/Higher-Symm/FIRE-HFTN
REM
REM
REM
REM
REM
REM ./C.cell (b20cbc046b6831c77cfcea5457e17084)
REM AIRSS Version 0.9.1 bugfix July 2018 build 013d7b7c2542+ Fri, 06 Jul 2018 19:26:36 +0100
REM compiler GCC version 9.2.1 20190827 (Red Hat 9.2.1-1)
REM options -cpp -mtune=generic -march=x86-64 -g -O0 -fpre-include=/usr/include/finclude/math-vector-fortran.h
REM seed 494172770 1828784399 683609361 -583630813 884537641 -2000809028 1611045004 641808532 1079911857 -588958089 1146009168 2013571942 1818158536 -955088712 1814107665 371341907 -432324028 2108160150 299623091 174577616 -460711100 -1708070269 -1869603407 501855827 2135243470 -1093744893 1494771791 -1975891401 -929691545 -62607262 -1060386962 -1618409565 1859829652
REM
CELL 1.54180   50.00000   50.00000   50.00000   90.00000   90.00000   90.00000
LATT -1
SFAC C  
C      1  0.5273450000000  0.5232590000000  0.3992760000000 1.0
C      1  0.5273450000000  0.4767410000000  0.6007240000000 1.0
C      1  0.4723150000000  0.5229350000000  0.3982460000000 1.0
C      1  0.4723150000000  0.4770650000000  0.6017540000000 1.0
C      1  0.4710590000000  0.4036130000000  0.5973040000000 1.0
C      1  0.4710590000000  0.5963880000000  0.4026960000000 1.0
C      1  0.5275940000000  0.4032290000000  0.5963470000000 1.0
C      1  0.5275940000000  0.5967710000000  0.4036530000000 1.0
C      1  0.4483920000000  0.4645520000000  0.4086120000000 1.0
C      1  0.4483920000000  0.5354480000000  0.5913880000000 1.0
C      1  0.5479130000000  0.4687990000000  0.4110690000000 1.0
C      1  0.5479130000000  0.5312010000000  0.5889310000000 1.0
C      1  0.5140090000000  0.4957210000000  0.4321580000000 1.0
C      1  0.5140090000000  0.5042790000000  0.5678420000000 1.0
C      1  0.4846090000000  0.4834310000000  0.4183430000000 1.0
C      1  0.4846090000000  0.5165690000000  0.5816570000000 1.0
C      1  0.5676880000000  0.4606510000000  0.4313490000000 1.0
C      1  0.5676880000000  0.5393490000000  0.5686510000000 1.0
C      1  0.4299870000000  0.4576210000000  0.4305450000000 1.0
C      1  0.4299880000000  0.5423790000000  0.5694550000000 1.0
C      1  0.5973180000000  0.4615490000000  0.4637080000000 1.0
C      1  0.5973180000000  0.5384500000000  0.5362920000000 1.0
C      1  0.4061950000000  0.4655630000000  0.4670870000000 1.0
C      1  0.4061950000000  0.5344370000000  0.5329130000000 1.0
C      1  0.5431930000000  0.5486960000000  0.3974030000000 1.0
C      1  0.5431930000000  0.4513040000000  0.6025970000000 1.0
C      1  0.4565810000000  0.5482220000000  0.3959950000000 1.0
C      1  0.4565820000000  0.4517780000000  0.6040050000000 1.0
C      1  0.5270700000000  0.6310030000000  0.4956750000000 1.0
C      1  0.5270700000000  0.3689970000000  0.5043250000000 1.0
C      1  0.4698660000000  0.6325620000000  0.4904780000000 1.0
C      1  0.4698660000000  0.3674380000000  0.5095220000000 1.0
C      1  0.4094540000000  0.5425370000000  0.4283260000000 1.0
C      1  0.4094540000000  0.4574630000000  0.5716740000000 1.0
C      1  0.5922120000000  0.5464700000000  0.4283140000000 1.0
C      1  0.5922120000000  0.4535300000000  0.5716850000000 1.0
C      1  0.5662800000000  0.4121700000000  0.5167670000000 1.0
C      1  0.5662800000000  0.5878300000000  0.4832330000000 1.0
C      1  0.4335010000000  0.4138770000000  0.5193770000000 1.0
C      1  0.4335020000000  0.5861230000000  0.4806240000000 1.0
C      1  0.4687610000000  0.4420840000000  0.4010780000000 1.0
C      1  0.4687620000000  0.5579160000000  0.5989220000000 1.0
C      1  0.5275040000000  0.4472030000000  0.4036670000000 1.0
C      1  0.5275040000000  0.5527970000000  0.5963330000000 1.0
C      1  0.4575090000000  0.4977430000000  0.4112120000000 1.0
C      1  0.4575100000000  0.5022570000000  0.5887880000000 1.0
C      1  0.5398440000000  0.4996020000000  0.4159110000000 1.0
C      1  0.5398440000000  0.5003980000000  0.5840890000000 1.0
C      1  0.6073950000000  0.5052770000000  0.4688970000000 1.0
C      1  0.6073950000000  0.4947220000000  0.5311030000000 1.0
C      1  0.3930260000000  0.5054130000000  0.4685470000000 1.0
C      1  0.3930260000000  0.4945880000000  0.5314530000000 1.0
C      1  0.4740880000000  0.5828890000000  0.5490830000000 1.0
C      1  0.4740880000000  0.4171110000000  0.4509170000000 1.0
C      1  0.5232480000000  0.5736730000000  0.5470920000000 1.0
C      1  0.5232480000000  0.4263270000000  0.4529080000000 1.0
C      1  0.4866900000000  0.5087170000000  0.4809920000000 1.0
C      1  0.4866900000000  0.4912830000000  0.5190080000000 1.0
C      1  0.5166860000000  0.5085230000000  0.4808370000000 1.0
C      1  0.5166860000000  0.4914770000000  0.5191630000000 1.0
C      1  0.4396060000000  0.5481370000000  0.4974680000000 1.0
C      1  0.4396060000000  0.4518640000000  0.5025320000000 1.0
C      1  0.5629960000000  0.5486080000000  0.4978720000000 1.0
C      1  0.5629960000000  0.4513920000000  0.5021280000000 1.0
C      1  0.5363270000000  0.5536480000000  0.4876320000000 1.0
C      1  0.5363270000000  0.4463520000000  0.5123680000000 1.0
C      1  0.4653860000000  0.5536920000000  0.4870270000000 1.0
C      1  0.4653860000000  0.4463080000000  0.5129730000000 1.0
C      1  0.4448060000000  0.4546190000000  0.4548860000000 1.0
C      1  0.4448070000000  0.5453820000000  0.5451140000000 1.0
C      1  0.5558860000000  0.4592940000000  0.4574360000000 1.0
C      1  0.5558860000000  0.5407060000000  0.5425630000000 1.0
C      1  0.5403440000000  0.6151180000000  0.5172560000000 1.0
C      1  0.5403440000000  0.3848820000000  0.4827440000000 1.0
C      1  0.4558910000000  0.6180120000000  0.5123570000000 1.0
C      1  0.4558910000000  0.3819880000000  0.4876430000000 1.0
C      1  0.4590240000000  0.5722030000000  0.4134980000000 1.0
C      1  0.4590240000000  0.4277980000000  0.5865020000000 1.0
C      1  0.5402840000000  0.5730530000000  0.4147480000000 1.0
C      1  0.5402840000000  0.4269470000000  0.5852520000000 1.0
C      1  0.4699570000000  0.5541040000000  0.5473100000000 1.0
C      1  0.4699570000000  0.4458960000000  0.4526900000000 1.0
C      1  0.5299450000000  0.5471700000000  0.5403900000000 1.0
C      1  0.5299450000000  0.4528300000000  0.4596100000000 1.0
C      1  0.5221340000000  0.4085830000000  0.4779350000000 1.0
C      1  0.5221340000000  0.5914170000000  0.5220650000000 1.0
C      1  0.4742330000000  0.4045280000000  0.4796050000000 1.0
C      1  0.4742330000000  0.5954720000000  0.5203960000000 1.0
C      1  0.5112510000000  0.4734480000000  0.4556230000000 1.0
C      1  0.5112520000000  0.5265520000000  0.5443770000000 1.0
C      1  0.4883240000000  0.4638640000000  0.4415400000000 1.0
C      1  0.4883240000000  0.5361360000000  0.5584600000000 1.0
C      1  0.5664490000000  0.3957650000000  0.4922510000000 1.0
C      1  0.5664490000000  0.6042350000000  0.5077490000000 1.0
C      1  0.4308090000000  0.3946940000000  0.4972580000000 1.0
C      1  0.4308090000000  0.6053060000000  0.5027420000000 1.0
C      1  0.4378000000000  0.5026750000000  0.4791780000000 1.0
C      1  0.4378000000000  0.4973250000000  0.5208220000000 1.0
C      1  0.5668260000000  0.5054180000000  0.4797180000000 1.0
C      1  0.5668260000000  0.4945820000000  0.5202820000000 1.0
C      1  0.5157380000000  0.6169150000000  0.4716350000000 1.0
C      1  0.5157370000000  0.3830850000000  0.5283650000000 1.0
C      1  0.4841740000000  0.6167830000000  0.4692950000000 1.0
C      1  0.4841740000000  0.3832170000000  0.5307050000000 1.0
C      1  0.4848140000000  0.5768770000000  0.5792970000000 1.0
C      1  0.4848130000000  0.4231230000000  0.4207030000000 1.0
C      1  0.5139600000000  0.5727680000000  0.5766150000000 1.0
C      1  0.5139600000000  0.4272320000000  0.4233850000000 1.0
C      1  0.5353350000000  0.4590640000000  0.5379220000000 1.0
C      1  0.5353350000000  0.5409360000000  0.4620780000000 1.0
C      1  0.4673910000000  0.4596780000000  0.5385360000000 1.0
C      1  0.4673910000000  0.5403220000000  0.4614640000000 1.0
C      1  0.5764810000000  0.4407210000000  0.5508780000000 1.0
C      1  0.5764810000000  0.5592790000000  0.4491220000000 1.0
C      1  0.4248540000000  0.4437040000000  0.5512210000000 1.0
C      1  0.4248540000000  0.5562960000000  0.4487790000000 1.0
C      1  0.4078570000000  0.5017310000000  0.4381410000000 1.0
C      1  0.4078570000000  0.4982690000000  0.5618590000000 1.0
C      1  0.5931320000000  0.5015200000000  0.4385580000000 1.0
C      1  0.5931320000000  0.4984800000000  0.5614410000000 1.0
C      1  0.5855900000000  0.4423900000000  0.5208140000000 1.0
C      1  0.5855900000000  0.5576100000000  0.4791860000000 1.0
C      1  0.4159350000000  0.4452950000000  0.5209100000000 1.0
C      1  0.4159350000000  0.5547050000000  0.4790900000000 1.0
C      1  0.4374670000000  0.4708160000000  0.4795560000000 1.0
C      1  0.4374670000000  0.5291840000000  0.5204450000000 1.0
C      1  0.5678220000000  0.4732610000000  0.4810650000000 1.0
C      1  0.5678220000000  0.5267390000000  0.5189340000000 1.0
C      1  0.5142280000000  0.5943310000000  0.3776720000000 1.0
C      1  0.5142280000000  0.4056680000000  0.6223280000000 1.0
C      1  0.4853190000000  0.5942340000000  0.3771620000000 1.0
C      1  0.4853190000000  0.4057660000000  0.6228380000000 1.0
C      1  0.4642310000000  0.4106330000000  0.5351040000000 1.0
C      1  0.4642320000000  0.5893670000000  0.4648960000000 1.0
C      1  0.5364810000000  0.4092020000000  0.5335220000000 1.0
C      1  0.5364810000000  0.5907980000000  0.4664780000000 1.0
C      1  0.5133380000000  0.3853920000000  0.5779550000000 1.0
C      1  0.5133380000000  0.6146080000000  0.4220450000000 1.0
C      1  0.4844300000000  0.3855140000000  0.5784990000000 1.0
C      1  0.4844300000000  0.6144860000000  0.4215010000000 1.0
C      1  0.4373840000000  0.5110750000000  0.4320940000000 1.0
C      1  0.4373840000000  0.4889250000000  0.5679060000000 1.0
C      1  0.5641410000000  0.5127210000000  0.4321690000000 1.0
C      1  0.5641410000000  0.4872790000000  0.5678310000000 1.0
C      1  0.5550180000000  0.5203500000000  0.4579250000000 1.0
C      1  0.5550180000000  0.4796500000000  0.5420750000000 1.0
C      1  0.4489900000000  0.5180220000000  0.4573350000000 1.0
C      1  0.4489900000000  0.4819780000000  0.5426650000000 1.0
C      1  0.3866980000000  0.5227890000000  0.5150580000000 1.0
C      1  0.3866980000000  0.4772110000000  0.4849420000000 1.0
C      1  0.6126500000000  0.5226030000000  0.5163620000000 1.0
C      1  0.6126500000000  0.4773960000000  0.4836380000000 1.0
C      1  0.4716630000000  0.4795960000000  0.4882640000000 1.0
C      1  0.4716640000000  0.5204040000000  0.5117360000000 1.0
C      1  0.5338180000000  0.4815800000000  0.4899710000000 1.0
C      1  0.5338180000000  0.5184200000000  0.5100290000000 1.0
C      1  0.4491210000000  0.4277200000000  0.5586620000000 1.0
C      1  0.4491210000000  0.5722800000000  0.4413380000000 1.0
C      1  0.5513830000000  0.4257520000000  0.5577370000000 1.0
C      1  0.5513830000000  0.5742480000000  0.4422630000000 1.0
C      1  0.4047940000000  0.5284760000000  0.5630910000000 1.0
C      1  0.4047940000000  0.4715240000000  0.4369090000000 1.0
C      1  0.5951710000000  0.5284330000000  0.5657750000000 1.0
C      1  0.5951710000000  0.4715670000000  0.4342250000000 1.0
C      1  0.5211360000000  0.5780150000000  0.4941580000000 1.0
C      1  0.5211360000000  0.4219850000000  0.5058420000000 1.0
C      1  0.4791730000000  0.5792870000000  0.4939650000000 1.0
C      1  0.4791730000000  0.4207130000000  0.5060350000000 1.0
C      1  0.6054390000000  0.4709550000000  0.5130040000000 1.0
C      1  0.6054390000000  0.5290450000000  0.4869960000000 1.0
C      1  0.3946600000000  0.4706140000000  0.5141190000000 1.0
C      1  0.3946600000000  0.5293860000000  0.4858810000000 1.0
C      1  0.5001150000000  0.5203720000000  0.3858360000000 1.0
C      1  0.5001150000000  0.4796280000000  0.6141640000000 1.0
END
