TITL C-862133-5440-498 -0.00100594445814228 125000 -539.148497270947 0 0 99 (C5) n - 1
REM
REM in /home/nfs/bkarasulu/CARBON/AIRSS/Generating-Clusters/TERSOFF/Higher-Symm/FIRE-HFTN
REM
REM
REM
REM
REM
REM ./C.cell (b20cbc046b6831c77cfcea5457e17084)
REM AIRSS Version 0.9.1 bugfix July 2018 build 013d7b7c2542+ Fri, 06 Jul 2018 19:26:36 +0100
REM compiler GCC version 9.2.1 20190827 (Red Hat 9.2.1-1)
REM options -cpp -mtune=generic -march=x86-64 -g -O0 -fpre-include=/usr/include/finclude/math-vector-fortran.h
REM seed 1498613705 -578255633 -204442973 702502461 -1129364355 -1342185703 -615545785 2084504725 -1739699936 -385804397 -1955324587 -1301589542 575727028 -431745943 294564757 2136856529 528027878 230319817 30250613 976255230 -1169345418 -1861782821 -868358535 -2145895495 1221398843 -1491630857 -788150071 1439280749 863503620 1361839455 2133357302 1855638760 -254864484
REM
CELL 1.54180   50.00000   50.00000   50.00000   90.00000   90.00000   90.00000
LATT -1
SFAC C  
C      1  0.5335430000000  0.5450170000000  0.4303210000000 1.0
C      1  0.5335440000000  0.5808770000000  0.5209520000000 1.0
C      1  0.5335450000000  0.5057620000000  0.5830630000000 1.0
C      1  0.5335450000000  0.4234790000000  0.5308190000000 1.0
C      1  0.5335440000000  0.4477400000000  0.4364180000000 1.0
C      1  0.4947780000000  0.4708980000000  0.5201860000000 1.0
C      1  0.4947770000000  0.4725060000000  0.4782320000000 1.0
C      1  0.4947770000000  0.5129030000000  0.4667960000000 1.0
C      1  0.4947770000000  0.5362630000000  0.5016820000000 1.0
C      1  0.4947780000000  0.5103030000000  0.5346790000000 1.0
C      1  0.4101040000000  0.4524050000000  0.4823850000000 1.0
C      1  0.4101040000000  0.5027420000000  0.4489630000000 1.0
C      1  0.4101040000000  0.5500830000000  0.4865090000000 1.0
C      1  0.4101040000000  0.5290050000000  0.5431350000000 1.0
C      1  0.4101050000000  0.4686360000000  0.5405870000000 1.0
C      1  0.4509640000000  0.4430790000000  0.4823210000000 1.0
C      1  0.4509640000000  0.4999210000000  0.4400740000000 1.0
C      1  0.4509640000000  0.5576660000000  0.4810780000000 1.0
C      1  0.4509640000000  0.5365120000000  0.5486680000000 1.0
C      1  0.4509650000000  0.4656940000000  0.5494360000000 1.0
C      1  0.5260180000000  0.4695390000000  0.4831410000000 1.0
C      1  0.5260180000000  0.5073180000000  0.4654900000000 1.0
C      1  0.5260180000000  0.5357790000000  0.4959660000000 1.0
C      1  0.5260180000000  0.5155890000000  0.5324520000000 1.0
C      1  0.5260180000000  0.4746500000000  0.5245250000000 1.0
C      1  0.5994080000000  0.4656780000000  0.4926970000000 1.0
C      1  0.5994070000000  0.4970360000000  0.4647710000000 1.0
C      1  0.5994070000000  0.5332850000000  0.4859650000000 1.0
C      1  0.5994080000000  0.5243300000000  0.5269890000000 1.0
C      1  0.5994080000000  0.4825470000000  0.5311490000000 1.0
C      1  0.5230270000000  0.5817530000000  0.4911670000000 1.0
C      1  0.5230270000000  0.5343610000000  0.5746930000000 1.0
C      1  0.5230280000000  0.4402780000000  0.5554310000000 1.0
C      1  0.5230270000000  0.4295230000000  0.4600000000000 1.0
C      1  0.5230260000000  0.5169600000000  0.4202830000000 1.0
C      1  0.4679150000000  0.5370440000000  0.4303130000000 1.0
C      1  0.4679150000000  0.5784200000000  0.5133670000000 1.0
C      1  0.4679160000000  0.5122170000000  0.5783840000000 1.0
C      1  0.4679170000000  0.4299240000000  0.5355130000000 1.0
C      1  0.4679160000000  0.4452680000000  0.4439990000000 1.0
C      1  0.5545480000000  0.4683210000000  0.4692370000000 1.0
C      1  0.5545480000000  0.5201640000000  0.4600350000000 1.0
C      1  0.5545480000000  0.5449360000000  0.5064980000000 1.0
C      1  0.5545490000000  0.5084030000000  0.5444150000000 1.0
C      1  0.5545490000000  0.4610520000000  0.5213870000000 1.0
C      1  0.5314090000000  0.5432870000000  0.5465820000000 1.0
C      1  0.5314090000000  0.4697710000000  0.5552340000000 1.0
C      1  0.5314090000000  0.4388250000000  0.4879890000000 1.0
C      1  0.5314080000000  0.4932150000000  0.4377780000000 1.0
C      1  0.5314080000000  0.5577770000000  0.4739900000000 1.0
C      1  0.4917290000000  0.5837570000000  0.4882210000000 1.0
C      1  0.4917300000000  0.5377820000000  0.5756890000000 1.0
C      1  0.4917300000000  0.4403870000000  0.5589930000000 1.0
C      1  0.4917300000000  0.4261700000000  0.4612060000000 1.0
C      1  0.4917290000000  0.5147770000000  0.4174660000000 1.0
C      1  0.4880160000000  0.4690700000000  0.4444090000000 1.0
C      1  0.4880150000000  0.5440090000000  0.4530760000000 1.0
C      1  0.4880160000000  0.5589240000000  0.5270260000000 1.0
C      1  0.4880170000000  0.4932020000000  0.5640620000000 1.0
C      1  0.4880170000000  0.4376690000000  0.5130020000000 1.0
C      1  0.5091130000000  0.4173050000000  0.5162660000000 1.0
C      1  0.5091120000000  0.4596720000000  0.4260500000000 1.0
C      1  0.5091110000000  0.5585650000000  0.4384650000000 1.0
C      1  0.5091120000000  0.5773170000000  0.5363540000000 1.0
C      1  0.5091130000000  0.4900140000000  0.5844380000000 1.0
C      1  0.4353830000000  0.5278440000000  0.4407030000000 1.0
C      1  0.4353830000000  0.5656960000000  0.5078290000000 1.0
C      1  0.4353840000000  0.5135520000000  0.5645710000000 1.0
C      1  0.4353840000000  0.4434740000000  0.5325140000000 1.0
C      1  0.4353830000000  0.4523070000000  0.4559600000000 1.0
C      1  0.5571430000000  0.4731150000000  0.4388150000000 1.0
C      1  0.5571430000000  0.5505790000000  0.4551940000000 1.0
C      1  0.5571430000000  0.5589400000000  0.5339280000000 1.0
C      1  0.5571440000000  0.4866420000000  0.5662100000000 1.0
C      1  0.5571440000000  0.4336000000000  0.5074260000000 1.0
C      1  0.4797550000000  0.4685250000000  0.5497530000000 1.0
C      1  0.4797550000000  0.4436530000000  0.4851120000000 1.0
C      1  0.4797540000000  0.4974440000000  0.4414810000000 1.0
C      1  0.4797540000000  0.5555620000000  0.4791570000000 1.0
C      1  0.4797550000000  0.5376890000000  0.5460730000000 1.0
C      1  0.4307380000000  0.4369830000000  0.5035770000000 1.0
C      1  0.4307370000000  0.4778220000000  0.4408450000000 1.0
C      1  0.4307370000000  0.5501030000000  0.4602990000000 1.0
C      1  0.4307380000000  0.5539380000000  0.5350550000000 1.0
C      1  0.4307380000000  0.4840260000000  0.5618020000000 1.0
C      1  0.5742020000000  0.5002030000000  0.4502690000000 1.0
C      1  0.5742020000000  0.5480560000000  0.4844950000000 1.0
C      1  0.5742030000000  0.5302920000000  0.5405830000000 1.0
C      1  0.5742030000000  0.4714600000000  0.5410210000000 1.0
C      1  0.5742030000000  0.4528640000000  0.4852040000000 1.0
C      1  0.3961750000000  0.5018590000000  0.4746910000000 1.0
C      1  0.3961750000000  0.5253420000000  0.4936190000000 1.0
C      1  0.3961750000000  0.5145970000000  0.5218020000000 1.0
C      1  0.3961760000000  0.4844730000000  0.5202920000000 1.0
C      1  0.3961750000000  0.4766000000000  0.4911750000000 1.0
C      1  0.5326270000000  0.5005750000000  0.5003150000000 1.0
C      1  0.4854390000000  0.5005750000000  0.5003150000000 1.0
C      1  0.4547270000000  0.5005740000000  0.5003150000000 1.0
C      1  0.6029790000000  0.5005750000000  0.5003140000000 1.0
END
