TITL C-862507-1800-1272 -2.13349613146463e-07 125000 -71.9511965012634 0 0 17 (Td) n - 1
REM
REM in /home/nfs/bkarasulu/CARBON/AIRSS/Generating-Clusters/TERSOFF/Higher-Symm/FIRE-HFTN
REM
REM
REM
REM
REM
REM ./C.cell (b20cbc046b6831c77cfcea5457e17084)
REM AIRSS Version 0.9.1 bugfix July 2018 build 013d7b7c2542+ Fri, 06 Jul 2018 19:26:36 +0100
REM compiler GCC version 9.2.1 20190827 (Red Hat 9.2.1-1)
REM options -cpp -mtune=generic -march=x86-64 -g -O0 -fpre-include=/usr/include/finclude/math-vector-fortran.h
REM seed -1319708074 662576211 -2016724549 -626864822 -638654894 575145786 885944724 605558179 818782469 1692403001 -36859612 2044409308 1227355465 2005434500 -1577688640 -36209629 727859952 1914745431 -1528374720 814260281 -2045303069 192391393 -1127276499 -588016648 -102157195 153646898 -668058155 804682618 -360647466 -858795337 -1115471706 -1624494841 -643760350
REM
CELL 1.54180   50.00000   50.00000   50.00000   90.00000   90.00000   90.00000
LATT -1
SFAC C  
C      1  0.4681660000000  0.4669580000000  0.4938130000000 1.0
C      1  0.4681660000000  0.4919000000000  0.4688710000000 1.0
C      1  0.4931080000000  0.4669580000000  0.4688710000000 1.0
C      1  0.5315150000000  0.5303070000000  0.4938130000000 1.0
C      1  0.4681660000000  0.5303070000000  0.5072790000000 1.0
C      1  0.5315150000000  0.4669580000000  0.5072790000000 1.0
C      1  0.5315150000000  0.5053660000000  0.4688710000000 1.0
C      1  0.4681660000000  0.5053660000000  0.5322200000000 1.0
C      1  0.5315150000000  0.4919000000000  0.5322200000000 1.0
C      1  0.5065730000000  0.5303070000000  0.4688710000000 1.0
C      1  0.4931080000000  0.5303070000000  0.5322200000000 1.0
C      1  0.5065730000000  0.4669580000000  0.5322200000000 1.0
C      1  0.5187210000000  0.4797520000000  0.4816650000000 1.0
C      1  0.4809600000000  0.4797520000000  0.5194260000000 1.0
C      1  0.4809600000000  0.5175130000000  0.4816650000000 1.0
C      1  0.5187210000000  0.5175130000000  0.5194260000000 1.0
C      1  0.4998410000000  0.4986330000000  0.5005460000000 1.0
END
