TITL C-862130-1496-691 1.59270084272952e-06 125000 -908.38986218605 0 0 163 (C1) n - 1
REM
REM in /home/nfs/bkarasulu/CARBON/AIRSS/Generating-Clusters/TERSOFF/Higher-Symm/FIRE-HFTN
REM
REM
REM
REM
REM
REM ./C.cell (b20cbc046b6831c77cfcea5457e17084)
REM AIRSS Version 0.9.1 bugfix July 2018 build 013d7b7c2542+ Fri, 06 Jul 2018 19:26:36 +0100
REM compiler GCC version 9.2.1 20190827 (Red Hat 9.2.1-1)
REM options -cpp -mtune=generic -march=x86-64 -g -O0 -fpre-include=/usr/include/finclude/math-vector-fortran.h
REM seed 1257354445 -1977900636 458507468 2070079402 785109508 -178768373 1585139157 -2117450778 -799743102 1755007343 618924670 -579887444 1853583423 910739245 153513688 1167034440 -921981204 2072574200 1270172300 1218641514 1756234020 1564190171 1592232519 885014738 -1506673689 -1933677848 -632861563 -222054217 1199966467 -797564510 218690098 222828001 2025571667
REM
CELL 1.54180   50.00000   50.00000   50.00000   90.00000   90.00000   90.00000
LATT -1
SFAC C  
C      1  0.4405380000000  0.5593240000000  0.4247400000000 1.0
C      1  0.4171490000000  0.5127330000000  0.5757820000000 1.0
C      1  0.4253650000000  0.4612850000000  0.4246660000000 1.0
C      1  0.4622000000000  0.4242630000000  0.5761510000000 1.0
C      1  0.5140480000000  0.4167070000000  0.4247300000000 1.0
C      1  0.5604050000000  0.4406590000000  0.5758230000000 1.0
C      1  0.5837800000000  0.4872910000000  0.4247810000000 1.0
C      1  0.5753920000000  0.5386250000000  0.5757600000000 1.0
C      1  0.5383570000000  0.5753660000000  0.4248180000000 1.0
C      1  0.4868730000000  0.5831360000000  0.5757280000000 1.0
C      1  0.5405270000000  0.5327290000000  0.5032270000000 1.0
C      1  0.5136880000000  0.5500990000000  0.4975330000000 1.0
C      1  0.4817860000000  0.5481200000000  0.5031450000000 1.0
C      1  0.4570170000000  0.5279270000000  0.4974200000000 1.0
C      1  0.4492600000000  0.4969510000000  0.5028960000000 1.0
C      1  0.4611030000000  0.4674840000000  0.4969960000000 1.0
C      1  0.4872750000000  0.4500870000000  0.5045660000000 1.0
C      1  0.5187550000000  0.4522240000000  0.4972650000000 1.0
C      1  0.5438730000000  0.4720870000000  0.5031560000000 1.0
C      1  0.5521030000000  0.5029560000000  0.4974570000000 1.0
C      1  0.5309590000000  0.4955700000000  0.6035270000000 1.0
C      1  0.5277630000000  0.5143060000000  0.3972400000000 1.0
C      1  0.5141910000000  0.5276050000000  0.6033240000000 1.0
C      1  0.4953860000000  0.5304050000000  0.3972760000000 1.0
C      1  0.4785320000000  0.5215950000000  0.6032800000000 1.0
C      1  0.4700630000000  0.5045930000000  0.3971820000000 1.0
C      1  0.4731980000000  0.4858310000000  0.6034200000000 1.0
C      1  0.4867800000000  0.4725310000000  0.3969720000000 1.0
C      1  0.5055940000000  0.4697930000000  0.6039850000000 1.0
C      1  0.5224410000000  0.4785370000000  0.3970360000000 1.0
C      1  0.4072350000000  0.4640130000000  0.5199270000000 1.0
C      1  0.4463190000000  0.4162230000000  0.4807440000000 1.0
C      1  0.5059160000000  0.4001680000000  0.5201130000000 1.0
C      1  0.5635540000000  0.4223970000000  0.4804410000000 1.0
C      1  0.5971240000000  0.4742640000000  0.5200240000000 1.0
C      1  0.5937780000000  0.5359880000000  0.4805500000000 1.0
C      1  0.5548050000000  0.5839300000000  0.5200490000000 1.0
C      1  0.4950790000000  0.5998560000000  0.4805650000000 1.0
C      1  0.4374390000000  0.5775800000000  0.5199930000000 1.0
C      1  0.4038780000000  0.5256930000000  0.4805130000000 1.0
C      1  0.5132710000000  0.5780210000000  0.5185390000000 1.0
C      1  0.4649980000000  0.5706110000000  0.4820220000000 1.0
C      1  0.4302860000000  0.5362440000000  0.5184640000000 1.0
C      1  0.4225920000000  0.4881410000000  0.4819080000000 1.0
C      1  0.4445920000000  0.4449060000000  0.5186510000000 1.0
C      1  0.4878040000000  0.4224310000000  0.4823610000000 1.0
C      1  0.5360220000000  0.4293650000000  0.5183470000000 1.0
C      1  0.5706720000000  0.4637350000000  0.4820580000000 1.0
C      1  0.5786420000000  0.5119240000000  0.5185060000000 1.0
C      1  0.5567060000000  0.5556240000000  0.4820710000000 1.0
C      1  0.5582660000000  0.5080370000000  0.5421870000000 1.0
C      1  0.5424740000000  0.5405680000000  0.4583750000000 1.0
C      1  0.5106860000000  0.5574010000000  0.5422070000000 1.0
C      1  0.4749080000000  0.5524890000000  0.4582710000000 1.0
C      1  0.4489990000000  0.5274050000000  0.5421930000000 1.0
C      1  0.4426320000000  0.4918770000000  0.4578880000000 1.0
C      1  0.4582940000000  0.4594370000000  0.5429540000000 1.0
C      1  0.4904560000000  0.4426890000000  0.4583390000000 1.0
C      1  0.5262050000000  0.4475220000000  0.5420360000000 1.0
C      1  0.5519690000000  0.4726480000000  0.4583700000000 1.0
C      1  0.4989090000000  0.4496550000000  0.5532400000000 1.0
C      1  0.5280340000000  0.4585980000000  0.4484280000000 1.0
C      1  0.5470200000000  0.4826190000000  0.5519000000000 1.0
C      1  0.5482960000000  0.5133490000000  0.4487700000000 1.0
C      1  0.5313520000000  0.5387780000000  0.5518070000000 1.0
C      1  0.5026190000000  0.5496220000000  0.4487850000000 1.0
C      1  0.4731250000000  0.5412830000000  0.5517620000000 1.0
C      1  0.4540200000000  0.5173630000000  0.4486520000000 1.0
C      1  0.4527030000000  0.4867240000000  0.5518670000000 1.0
C      1  0.4696390000000  0.4610080000000  0.4482390000000 1.0
C      1  0.5118910000000  0.4063310000000  0.4903480000000 1.0
C      1  0.5649050000000  0.4307030000000  0.5102300000000 1.0
C      1  0.5932950000000  0.4817690000000  0.4902350000000 1.0
C      1  0.5863240000000  0.5398220000000  0.5103460000000 1.0
C      1  0.5465270000000  0.5827100000000  0.4902440000000 1.0
C      1  0.4891200000000  0.5939360000000  0.5103560000000 1.0
C      1  0.4360970000000  0.5692940000000  0.4901940000000 1.0
C      1  0.4076720000000  0.5181950000000  0.5103100000000 1.0
C      1  0.4148680000000  0.4603020000000  0.4901710000000 1.0
C      1  0.4547130000000  0.4177880000000  0.5105120000000 1.0
C      1  0.5225040000000  0.5910010000000  0.4714870000000 1.0
C      1  0.4648350000000  0.5864680000000  0.5290860000000 1.0
C      1  0.4207920000000  0.5490220000000  0.4714220000000 1.0
C      1  0.4072240000000  0.4928110000000  0.5290830000000 1.0
C      1  0.4293030000000  0.4394070000000  0.4714770000000 1.0
C      1  0.4785190000000  0.4089870000000  0.5293220000000 1.0
C      1  0.5361380000000  0.4135130000000  0.4714210000000 1.0
C      1  0.5802250000000  0.4509220000000  0.5290990000000 1.0
C      1  0.5937980000000  0.5071730000000  0.4714680000000 1.0
C      1  0.5717420000000  0.5606140000000  0.5291090000000 1.0
C      1  0.4725580000000  0.5942280000000  0.4572450000000 1.0
C      1  0.4225370000000  0.5597670000000  0.5432860000000 1.0
C      1  0.4022080000000  0.5025590000000  0.4571820000000 1.0
C      1  0.4193510000000  0.4442110000000  0.5433150000000 1.0
C      1  0.4678290000000  0.4075340000000  0.4574880000000 1.0
C      1  0.5284440000000  0.4057900000000  0.5433790000000 1.0
C      1  0.5783880000000  0.4402520000000  0.4571820000000 1.0
C      1  0.5986980000000  0.4974180000000  0.5433320000000 1.0
C      1  0.5814510000000  0.5556790000000  0.4572610000000 1.0
C      1  0.5332640000000  0.5925850000000  0.5433230000000 1.0
C      1  0.5312600000000  0.4280890000000  0.4031410000000 1.0
C      1  0.5676820000000  0.4599170000000  0.5974240000000 1.0
C      1  0.5783970000000  0.5071630000000  0.4031930000000 1.0
C      1  0.5593610000000  0.5515450000000  0.5973530000000 1.0
C      1  0.5178040000000  0.5763660000000  0.4032120000000 1.0
C      1  0.4696440000000  0.5719150000000  0.5973360000000 1.0
C      1  0.4332540000000  0.5401110000000  0.4030950000000 1.0
C      1  0.4225120000000  0.4929150000000  0.5974440000000 1.0
C      1  0.4415490000000  0.4484280000000  0.4031080000000 1.0
C      1  0.4829960000000  0.4236260000000  0.5976990000000 1.0
C      1  0.5261190000000  0.5069590000000  0.4289480000000 1.0
C      1  0.5171890000000  0.5205780000000  0.5716490000000 1.0
C      1  0.5018970000000  0.5265340000000  0.4289790000000 1.0
C      1  0.4860990000000  0.5221690000000  0.5716080000000 1.0
C      1  0.4757940000000  0.5095400000000  0.4288780000000 1.0
C      1  0.4749800000000  0.4930870000000  0.5716600000000 1.0
C      1  0.4839150000000  0.4793950000000  0.4286370000000 1.0
C      1  0.4994350000000  0.4733930000000  0.5723320000000 1.0
C      1  0.5150510000000  0.4778440000000  0.4287350000000 1.0
C      1  0.5253900000000  0.4905310000000  0.5717880000000 1.0
C      1  0.4341460000000  0.5389170000000  0.5709550000000 1.0
C      1  0.4237620000000  0.4924600000000  0.4294480000000 1.0
C      1  0.4427710000000  0.4485700000000  0.5710600000000 1.0
C      1  0.4839540000000  0.4248890000000  0.4296680000000 1.0
C      1  0.5312250000000  0.4294470000000  0.5710750000000 1.0
C      1  0.5667620000000  0.4611110000000  0.4295360000000 1.0
C      1  0.5770270000000  0.5074490000000  0.5709870000000 1.0
C      1  0.5580110000000  0.5511140000000  0.4296060000000 1.0
C      1  0.5170340000000  0.5750750000000  0.5709770000000 1.0
C      1  0.4696690000000  0.5705460000000  0.4295670000000 1.0
C      1  0.4728960000000  0.5235040000000  0.4703230000000 1.0
C      1  0.4644230000000  0.5027090000000  0.5301610000000 1.0
C      1  0.4695060000000  0.4811230000000  0.4694280000000 1.0
C      1  0.4865960000000  0.4658480000000  0.5325010000000 1.0
C      1  0.5091150000000  0.4649450000000  0.4698360000000 1.0
C      1  0.5280710000000  0.4764510000000  0.5302770000000 1.0
C      1  0.5364690000000  0.4973240000000  0.4704280000000 1.0
C      1  0.5310870000000  0.5187730000000  0.5301750000000 1.0
C      1  0.5142440000000  0.5335700000000  0.4705070000000 1.0
C      1  0.4920770000000  0.5348300000000  0.5301240000000 1.0
C      1  0.4919210000000  0.5618810000000  0.4058210000000 1.0
C      1  0.4572170000000  0.5449910000000  0.5947340000000 1.0
C      1  0.4390000000000  0.5109970000000  0.4056700000000 1.0
C      1  0.4442590000000  0.4727050000000  0.5949140000000 1.0
C      1  0.4710090000000  0.4450170000000  0.4057970000000 1.0
C      1  0.5088520000000  0.4382000000000  0.5949080000000 1.0
C      1  0.5436760000000  0.4550330000000  0.4057810000000 1.0
C      1  0.5619420000000  0.4890140000000  0.5947870000000 1.0
C      1  0.5566370000000  0.5273090000000  0.4058270000000 1.0
C      1  0.5299120000000  0.5550590000000  0.5947370000000 1.0
C      1  0.4814240000000  0.4253270000000  0.5539430000000 1.0
C      1  0.5284870000000  0.4287810000000  0.4472020000000 1.0
C      1  0.5650420000000  0.4588480000000  0.5533000000000 1.0
C      1  0.5768100000000  0.5046590000000  0.4473340000000 1.0
C      1  0.5595110000000  0.5485380000000  0.5532200000000 1.0
C      1  0.5196760000000  0.5740730000000  0.4473540000000 1.0
C      1  0.4725350000000  0.5710920000000  0.5531900000000 1.0
C      1  0.4360060000000  0.5411310000000  0.4472580000000 1.0
C      1  0.4241770000000  0.4953840000000  0.5532490000000 1.0
C      1  0.4413920000000  0.4512980000000  0.4471290000000 1.0
C      1  0.5004790000000  0.5002320000000  0.4710940000000 1.0
C      1  0.5004350000000  0.4996940000000  0.5295800000000 1.0
C      1  0.4962320000000  0.4908050000000  0.5002590000000 1.0
END
