TITL C-862129-6180-1354 4.15964962744463e-07 125000 -511.190559935726 0 0 78 (Oh) n - 1
REM
REM in /home/nfs/bkarasulu/CARBON/AIRSS/Generating-Clusters/TERSOFF/Higher-Symm/FIRE-HFTN
REM
REM
REM
REM
REM
REM ./C.cell (b20cbc046b6831c77cfcea5457e17084)
REM AIRSS Version 0.9.1 bugfix July 2018 build 013d7b7c2542+ Fri, 06 Jul 2018 19:26:36 +0100
REM compiler GCC version 9.2.1 20190827 (Red Hat 9.2.1-1)
REM options -cpp -mtune=generic -march=x86-64 -g -O0 -fpre-include=/usr/include/finclude/math-vector-fortran.h
REM seed 635070414 799149202 401852498 1380274944 -299275017 -1184644326 -360019702 -534410118 1705282352 1812850045 -1800296674 327427981 -1772401878 -1369914130 -1917177458 582744089 2086238724 2119669497 1033145941 -1056927013 101514171 -1889623094 -212491601 -1304168186 -1070742122 372430370 -1393239475 -1226760727 -147592855 -660718095 285071712 -868854905 180631
REM
CELL 1.54180   50.00000   50.00000   50.00000   90.00000   90.00000   90.00000
LATT -1
SFAC C  
C      1  0.4337620000000  0.4539720000000  0.4751790000000 1.0
C      1  0.4749560000000  0.4333150000000  0.4546420000000 1.0
C      1  0.4544190000000  0.4745100000000  0.4339850000000 1.0
C      1  0.5668540000000  0.5457510000000  0.4751800000000 1.0
C      1  0.5668540000000  0.4539730000000  0.5258830000000 1.0
C      1  0.4337610000000  0.5457510000000  0.5258820000000 1.0
C      1  0.5256590000000  0.5664080000000  0.4546420000000 1.0
C      1  0.5256590000000  0.4333150000000  0.5464210000000 1.0
C      1  0.4749560000000  0.5664080000000  0.5464200000000 1.0
C      1  0.5461970000000  0.5252130000000  0.4339850000000 1.0
C      1  0.5461960000000  0.4745100000000  0.5670780000000 1.0
C      1  0.4544180000000  0.5252130000000  0.5670770000000 1.0
C      1  0.4544190000000  0.4333150000000  0.4751790000000 1.0
C      1  0.4337620000000  0.4745100000000  0.4546410000000 1.0
C      1  0.4749570000000  0.4539720000000  0.4339850000000 1.0
C      1  0.5461970000000  0.5664080000000  0.4751800000000 1.0
C      1  0.4544180000000  0.5664080000000  0.5258820000000 1.0
C      1  0.5461970000000  0.4333150000000  0.5258830000000 1.0
C      1  0.5668540000000  0.5252130000000  0.4546420000000 1.0
C      1  0.4337610000000  0.5252130000000  0.5464200000000 1.0
C      1  0.5668540000000  0.4745100000000  0.5464210000000 1.0
C      1  0.5256590000000  0.5457510000000  0.4339850000000 1.0
C      1  0.4749560000000  0.5457510000000  0.5670770000000 1.0
C      1  0.5256590000000  0.4539730000000  0.5670780000000 1.0
C      1  0.5461970000000  0.4745100000000  0.4339850000000 1.0
C      1  0.4337610000000  0.5457510000000  0.4751790000000 1.0
C      1  0.4749560000000  0.4333150000000  0.5464200000000 1.0
C      1  0.4544190000000  0.5252130000000  0.4339840000000 1.0
C      1  0.4544180000000  0.4745100000000  0.5670770000000 1.0
C      1  0.5461960000000  0.5252130000000  0.5670780000000 1.0
C      1  0.5668540000000  0.4539720000000  0.4751800000000 1.0
C      1  0.5668540000000  0.5457510000000  0.5258830000000 1.0
C      1  0.4337610000000  0.4539720000000  0.5258820000000 1.0
C      1  0.5256590000000  0.5664080000000  0.5464200000000 1.0
C      1  0.5256600000000  0.4333150000000  0.4546420000000 1.0
C      1  0.4749560000000  0.5664080000000  0.4546420000000 1.0
C      1  0.4749560000000  0.5457510000000  0.4339850000000 1.0
C      1  0.5461970000000  0.4333150000000  0.4751800000000 1.0
C      1  0.4337610000000  0.4745100000000  0.5464200000000 1.0
C      1  0.5256600000000  0.4539720000000  0.4339850000000 1.0
C      1  0.4749560000000  0.4539720000000  0.5670770000000 1.0
C      1  0.5256590000000  0.5457510000000  0.5670770000000 1.0
C      1  0.4544180000000  0.5664080000000  0.4751790000000 1.0
C      1  0.5461970000000  0.5664080000000  0.5258830000000 1.0
C      1  0.4544180000000  0.4333150000000  0.5258820000000 1.0
C      1  0.5668540000000  0.5252130000000  0.5464210000000 1.0
C      1  0.4337610000000  0.5252130000000  0.4546410000000 1.0
C      1  0.5668540000000  0.4745100000000  0.4546420000000 1.0
C      1  0.4662580000000  0.5753080000000  0.5005310000000 1.0
C      1  0.5003070000000  0.4658120000000  0.5759770000000 1.0
C      1  0.5757540000000  0.4998620000000  0.4664820000000 1.0
C      1  0.5343580000000  0.4244150000000  0.5005310000000 1.0
C      1  0.5343570000000  0.5753080000000  0.5005310000000 1.0
C      1  0.4662580000000  0.4244150000000  0.5005310000000 1.0
C      1  0.5003070000000  0.5339120000000  0.5759770000000 1.0
C      1  0.5003080000000  0.4658120000000  0.4250850000000 1.0
C      1  0.5003080000000  0.5339110000000  0.4250850000000 1.0
C      1  0.4248610000000  0.4998610000000  0.4664810000000 1.0
C      1  0.4248610000000  0.4998610000000  0.5345810000000 1.0
C      1  0.5757540000000  0.4998620000000  0.5345810000000 1.0
C      1  0.5757540000000  0.4658120000000  0.5005320000000 1.0
C      1  0.4662570000000  0.4998620000000  0.5759770000000 1.0
C      1  0.5003080000000  0.5753080000000  0.4664810000000 1.0
C      1  0.4248610000000  0.5339110000000  0.5005310000000 1.0
C      1  0.5757540000000  0.5339120000000  0.5005310000000 1.0
C      1  0.4248610000000  0.4658120000000  0.5005310000000 1.0
C      1  0.5343570000000  0.4998620000000  0.5759780000000 1.0
C      1  0.4662580000000  0.4998610000000  0.4250850000000 1.0
C      1  0.5343580000000  0.4998610000000  0.4250850000000 1.0
C      1  0.5003080000000  0.4244150000000  0.4664810000000 1.0
C      1  0.5003080000000  0.4244150000000  0.5345810000000 1.0
C      1  0.5003070000000  0.5753080000000  0.5345810000000 1.0
C      1  0.5003070000000  0.4998620000000  0.5825720000000 1.0
C      1  0.5003080000000  0.4998610000000  0.4184900000000 1.0
C      1  0.5003070000000  0.5819020000000  0.5005310000000 1.0
C      1  0.5003080000000  0.4178210000000  0.5005310000000 1.0
C      1  0.5823480000000  0.4998620000000  0.5005320000000 1.0
C      1  0.4182670000000  0.4998610000000  0.5005310000000 1.0
END
