TITL C-862502-1143-565 1.08652587621065 125000 -237.90388208888 0 0 46 (C1) n - 1
REM
REM in /home/nfs/bkarasulu/CARBON/AIRSS/Generating-Clusters/TERSOFF/Higher-Symm/FIRE-HFTN
REM
REM
REM
REM
REM
REM ./C.cell (b20cbc046b6831c77cfcea5457e17084)
REM AIRSS Version 0.9.1 bugfix July 2018 build 013d7b7c2542+ Fri, 06 Jul 2018 19:26:36 +0100
REM compiler GCC version 9.2.1 20190827 (Red Hat 9.2.1-1)
REM options -cpp -mtune=generic -march=x86-64 -g -O0 -fpre-include=/usr/include/finclude/math-vector-fortran.h
REM seed -1096376233 1824931409 1051976773 -1337048736 -587780066 -2028213373 -1065648559 -171225663 -2090141205 -1589461809 -1825568483 -1003337782 2063636753 1079412916 178807307 -154489143 -777331002 2049625932 435446308 743671256 -419832316 2081407280 -1412845953 -50855868 -1499828078 -846766583 -861379814 -50513564 313858060 -1892238948 181640440 -785708167 831133832
REM
CELL 1.54180   50.00000   50.00000   50.00000   90.00000   90.00000   90.00000
LATT -1
SFAC C  
C      1  0.5216190000000  0.5516830000000  0.5272570000000 1.0
C      1  0.4750980000000  0.5263350000000  0.4491290000000 1.0
C      1  0.5232560000000  0.4466460000000  0.4715150000000 1.0
C      1  0.4777920000000  0.4718570000000  0.5525250000000 1.0
C      1  0.4870520000000  0.4990880000000  0.5442500000000 1.0
C      1  0.5132870000000  0.5442460000000  0.4993260000000 1.0
C      1  0.4880610000000  0.4999840000000  0.4503410000000 1.0
C      1  0.5128200000000  0.4546120000000  0.4988620000000 1.0
C      1  0.5243410000000  0.4469570000000  0.5250280000000 1.0
C      1  0.4754110000000  0.5245630000000  0.5535360000000 1.0
C      1  0.5254430000000  0.5543770000000  0.4735950000000 1.0
C      1  0.4727990000000  0.4750360000000  0.4481890000000 1.0
C      1  0.4456820000000  0.4735490000000  0.5093270000000 1.0
C      1  0.5545980000000  0.5087430000000  0.5262490000000 1.0
C      1  0.4451860000000  0.5259300000000  0.4926390000000 1.0
C      1  0.5568510000000  0.4908760000000  0.4746950000000 1.0
C      1  0.4917250000000  0.4494830000000  0.4543510000000 1.0
C      1  0.5028890000000  0.4504970000000  0.5491690000000 1.0
C      1  0.4971510000000  0.5485770000000  0.5491460000000 1.0
C      1  0.4948550000000  0.5512000000000  0.4548580000000 1.0
C      1  0.5038370000000  0.5004800000000  0.5214560000000 1.0
C      1  0.4974180000000  0.5205970000000  0.4964730000000 1.0
C      1  0.5063400000000  0.4985170000000  0.4718960000000 1.0
C      1  0.4968030000000  0.4783250000000  0.4985350000000 1.0
C      1  0.5284510000000  0.5040640000000  0.5392760000000 1.0
C      1  0.4721870000000  0.5389660000000  0.4925680000000 1.0
C      1  0.5326250000000  0.4954780000000  0.4583190000000 1.0
C      1  0.4713050000000  0.4603860000000  0.5012890000000 1.0
C      1  0.4467410000000  0.5137020000000  0.5433360000000 1.0
C      1  0.5535170000000  0.5423580000000  0.4874290000000 1.0
C      1  0.4449770000000  0.4861360000000  0.4593670000000 1.0
C      1  0.5528970000000  0.4576770000000  0.5149410000000 1.0
C      1  0.5344940000000  0.4970080000000  0.4293600000000 1.0
C      1  0.4725480000000  0.4318270000000  0.4961800000000 1.0
C      1  0.5261600000000  0.5028960000000  0.5682050000000 1.0
C      1  0.4750170000000  0.5676450000000  0.4890110000000 1.0
C      1  0.4488860000000  0.4821210000000  0.5399190000000 1.0
C      1  0.5505030000000  0.5391340000000  0.5180890000000 1.0
C      1  0.4476450000000  0.5171450000000  0.4624240000000 1.0
C      1  0.5516460000000  0.4606530000000  0.4840660000000 1.0
C      1  0.4331730000000  0.5282230000000  0.5213950000000 1.0
C      1  0.5681140000000  0.5202790000000  0.4740700000000 1.0
C      1  0.4318480000000  0.4728790000000  0.4820560000000 1.0
C      1  0.5660760000000  0.4800480000000  0.5288350000000 1.0
C      1  0.5415520000000  0.5000820000000  0.4995740000000 1.0
C      1  0.4593230000000  0.5005620000000  0.5036580000000 1.0
END
