TITL C-862506-1665-1379 -0.00532132389589475 125000 -204.61808642539 0 0 39 (C2h) n - 1
REM
REM in /home/nfs/bkarasulu/CARBON/AIRSS/Generating-Clusters/TERSOFF/Higher-Symm/FIRE-HFTN
REM
REM
REM
REM
REM
REM ./C.cell (b20cbc046b6831c77cfcea5457e17084)
REM AIRSS Version 0.9.1 bugfix July 2018 build 013d7b7c2542+ Fri, 06 Jul 2018 19:26:36 +0100
REM compiler GCC version 9.2.1 20190827 (Red Hat 9.2.1-1)
REM options -cpp -mtune=generic -march=x86-64 -g -O0 -fpre-include=/usr/include/finclude/math-vector-fortran.h
REM seed 1216251031 1437793854 -46796346 1368836759 -1235427726 -1578670643 -418299116 685007574 -404509270 -1303638931 873073580 307393629 -790223165 -232678540 1418196110 -1896028406 736924731 -563388173 100910230 1012976921 1889361083 -1345682256 1184627439 1420867307 2124388846 -644743709 902687287 1081547816 1819567326 330892579 2133212929 -738068804 -694582789
REM
CELL 1.54180   50.00000   50.00000   50.00000   90.00000   90.00000   90.00000
LATT -1
SFAC C  
C      1  0.5327000000000  0.5470050000000  0.5142080000000 1.0
C      1  0.4656610000000  0.4544080000000  0.5142020000000 1.0
C      1  0.5327020000000  0.5470060000000  0.4839490000000 1.0
C      1  0.4656630000000  0.4544080000000  0.4839430000000 1.0
C      1  0.4877820000000  0.4454560000000  0.4672510000000 1.0
C      1  0.5105850000000  0.5559580000000  0.4672540000000 1.0
C      1  0.4877780000000  0.4454550000000  0.5308970000000 1.0
C      1  0.5105800000000  0.5559580000000  0.5309000000000 1.0
C      1  0.4933960000000  0.5369960000000  0.4484150000000 1.0
C      1  0.5049740000000  0.4644190000000  0.4484150000000 1.0
C      1  0.4933880000000  0.5369950000000  0.5497360000000 1.0
C      1  0.5049670000000  0.4644180000000  0.5497360000000 1.0
C      1  0.5220380000000  0.4914930000000  0.4510670000000 1.0
C      1  0.4763320000000  0.5099210000000  0.4510640000000 1.0
C      1  0.5220310000000  0.4914920000000  0.5470870000000 1.0
C      1  0.4763250000000  0.5099200000000  0.5470840000000 1.0
C      1  0.4696890000000  0.5032380000000  0.5200380000000 1.0
C      1  0.5286710000000  0.4981750000000  0.5200420000000 1.0
C      1  0.4696920000000  0.5032380000000  0.4781090000000 1.0
C      1  0.5286740000000  0.4981760000000  0.4781130000000 1.0
C      1  0.5284060000000  0.4553970000000  0.4715710000000 1.0
C      1  0.4699610000000  0.5460170000000  0.4715680000000 1.0
C      1  0.5284020000000  0.4553970000000  0.5265830000000 1.0
C      1  0.4699570000000  0.5460160000000  0.5265800000000 1.0
C      1  0.5465680000000  0.5219640000000  0.4766320000000 1.0
C      1  0.4517970000000  0.4794500000000  0.4766250000000 1.0
C      1  0.5465650000000  0.5219630000000  0.5215260000000 1.0
C      1  0.4517940000000  0.4794500000000  0.5215190000000 1.0
C      1  0.5149580000000  0.5158580000000  0.4357700000000 1.0
C      1  0.4834140000000  0.4855570000000  0.4357670000000 1.0
C      1  0.5149490000000  0.5158560000000  0.5623840000000 1.0
C      1  0.4834050000000  0.4855560000000  0.5623810000000 1.0
C      1  0.5747610000000  0.5188910000000  0.4845660000000 1.0
C      1  0.4236040000000  0.4825230000000  0.4845550000000 1.0
C      1  0.5747580000000  0.5188900000000  0.5135970000000 1.0
C      1  0.4236020000000  0.4825230000000  0.5135850000000 1.0
C      1  0.4630670000000  0.5298650000000  0.4990730000000 1.0
C      1  0.5352960000000  0.4715490000000  0.4990780000000 1.0
C      1  0.4991810000000  0.5007070000000  0.4990760000000 1.0
END
