TITL C-862130-1496-968 1.24492873716084e-06 125000 -50.9007826953229 0 0 12 (Td) n - 1
REM
REM in /home/nfs/bkarasulu/CARBON/AIRSS/Generating-Clusters/TERSOFF/Higher-Symm/FIRE-HFTN
REM
REM
REM
REM
REM
REM ./C.cell (b20cbc046b6831c77cfcea5457e17084)
REM AIRSS Version 0.9.1 bugfix July 2018 build 013d7b7c2542+ Fri, 06 Jul 2018 19:26:36 +0100
REM compiler GCC version 9.2.1 20190827 (Red Hat 9.2.1-1)
REM options -cpp -mtune=generic -march=x86-64 -g -O0 -fpre-include=/usr/include/finclude/math-vector-fortran.h
REM seed 939463305 422702394 -1721651519 1494364587 -1028588373 -1937888827 -775969176 1976186081 -1915440039 320437736 811302917 -676877281 -323865153 339336373 -362514669 -354493039 -515637886 1365979404 -321202218 -2144120402 -396363638 -1992172930 616237612 1647909418 276142810 1066893210 2146348302 392023831 -1164977481 1137987792 -2114851036 1518001593 136872436
REM
CELL 1.54180   50.00000   50.00000   50.00000   90.00000   90.00000   90.00000
LATT -1
SFAC C  
C      1  0.5103280000000  0.4896720000000  0.5351200000000 1.0
C      1  0.5103280000000  0.5103280000000  0.4648800000000 1.0
C      1  0.5351200000000  0.5103280000000  0.4896720000000 1.0
C      1  0.4896720000000  0.5351200000000  0.5103280000000 1.0
C      1  0.5351200000000  0.4896720000000  0.5103280000000 1.0
C      1  0.4896720000000  0.5103280000000  0.5351200000000 1.0
C      1  0.5103280000000  0.4648800000000  0.5103280000000 1.0
C      1  0.4896720000000  0.4648800000000  0.4896720000000 1.0
C      1  0.5103280000000  0.5351200000000  0.4896720000000 1.0
C      1  0.4648800000000  0.5103280000000  0.5103280000000 1.0
C      1  0.4648800000000  0.4896720000000  0.4896720000000 1.0
C      1  0.4896720000000  0.4896720000000  0.4648800000000 1.0
END
