TITL C-862129-6180-732 8.10788611822221e-08 125000 -120.925854001875 0 0 21 (C3v) n - 1
REM
REM in /home/nfs/bkarasulu/CARBON/AIRSS/Generating-Clusters/TERSOFF/Higher-Symm/FIRE-HFTN
REM
REM
REM
REM
REM
REM ./C.cell (b20cbc046b6831c77cfcea5457e17084)
REM AIRSS Version 0.9.1 bugfix July 2018 build 013d7b7c2542+ Fri, 06 Jul 2018 19:26:36 +0100
REM compiler GCC version 9.2.1 20190827 (Red Hat 9.2.1-1)
REM options -cpp -mtune=generic -march=x86-64 -g -O0 -fpre-include=/usr/include/finclude/math-vector-fortran.h
REM seed 1798509018 1333433760 2099371332 195097733 1499987042 229068280 393551159 474275779 -1803425178 -71036369 2054663002 583764603 -1781833628 -1742513003 1148774095 -525897471 -1732322026 -790938430 155787205 362661353 -108763135 110370749 -215535624 1711413167 -864816635 -1296866938 1866353925 -624592672 -1861890824 183122038 -1020076161 1872746395 -1978380483
REM
CELL 1.54180   50.00000   50.00000   50.00000   90.00000   90.00000   90.00000
LATT -1
SFAC C  
C      1  0.5151960000000  0.4894230000000  0.5422720000000 1.0
C      1  0.5290110000000  0.4894230000000  0.4657040000000 1.0
C      1  0.4557940000000  0.4894230000000  0.4920240000000 1.0
C      1  0.4848040000000  0.4894230000000  0.5422720000000 1.0
C      1  0.4709890000000  0.4894230000000  0.4657040000000 1.0
C      1  0.5442060000000  0.4894230000000  0.4920240000000 1.0
C      1  0.4698480000000  0.4659560000000  0.5340060000000 1.0
C      1  0.5445260000000  0.4659560000000  0.5091090000000 1.0
C      1  0.4856250000000  0.4659560000000  0.4568850000000 1.0
C      1  0.5301520000000  0.4659560000000  0.5340060000000 1.0
C      1  0.4554740000000  0.4659560000000  0.5091090000000 1.0
C      1  0.5143750000000  0.4659560000000  0.4568850000000 1.0
C      1  0.4603090000000  0.5165700000000  0.5056650000000 1.0
C      1  0.5247520000000  0.5165700000000  0.5315410000000 1.0
C      1  0.5149390000000  0.5165700000000  0.4627940000000 1.0
C      1  0.5396910000000  0.5165700000000  0.5056650000000 1.0
C      1  0.4752480000000  0.5165700000000  0.5315410000000 1.0
C      1  0.4850610000000  0.5165700000000  0.4627940000000 1.0
C      1  0.4714320000000  0.5331650000000  0.4835060000000 1.0
C      1  0.5285680000000  0.5331650000000  0.4835060000000 1.0
C      1  0.5000000000000  0.5331650000000  0.5329870000000 1.0
END
