TITL C-862132-7359-323 2.2010955365699e-06 125000 -26.7711942286538 0 0 8 (D(inf)h) n - 1
REM
REM in /home/nfs/bkarasulu/CARBON/AIRSS/Generating-Clusters/TERSOFF/Higher-Symm/FIRE-HFTN
REM
REM
REM
REM
REM
REM ./C.cell (b20cbc046b6831c77cfcea5457e17084)
REM AIRSS Version 0.9.1 bugfix July 2018 build 013d7b7c2542+ Fri, 06 Jul 2018 19:26:36 +0100
REM compiler GCC version 9.2.1 20190827 (Red Hat 9.2.1-1)
REM options -cpp -mtune=generic -march=x86-64 -g -O0 -fpre-include=/usr/include/finclude/math-vector-fortran.h
REM seed -1666435817 -1556284169 2017903655 -1550770408 -1748806797 -136682303 -2046770691 -1074040960 -1154983587 -1110840775 1598877190 1512751456 1467803702 -664019842 -172800922 -803229927 -1146341950 393249444 836135729 316885979 -1559749125 1005330319 1439513499 -225285781 1738937138 -1267454222 1081832753 -1430723827 -1869636589 -860630866 -1169578458 2127477454 2086463010
REM
CELL 1.54180   50.00000   50.00000   50.00000   90.00000   90.00000   90.00000
LATT -1
SFAC C  
C      1  0.3925960000000  0.4998540000000  0.5002620000000 1.0
C      1  0.4225290000000  0.4998540000000  0.5002620000000 1.0
C      1  0.5154940000000  0.4998540000000  0.5002620000000 1.0
C      1  0.4845060000000  0.4998540000000  0.5002620000000 1.0
C      1  0.5774710000000  0.4998540000000  0.5002620000000 1.0
C      1  0.5464830000000  0.4998540000000  0.5002620000000 1.0
C      1  0.6074040000000  0.4998540000000  0.5002620000000 1.0
C      1  0.4535170000000  0.4998540000000  0.5002620000000 1.0
END
