TITL C-862130-1496-647 54.1662886634223 125000 -873.35129547482 0 0 156 (C1) n - 1
REM
REM in /home/nfs/bkarasulu/CARBON/AIRSS/Generating-Clusters/TERSOFF/Higher-Symm/FIRE-HFTN
REM
REM
REM
REM
REM
REM ./C.cell (b20cbc046b6831c77cfcea5457e17084)
REM AIRSS Version 0.9.1 bugfix July 2018 build 013d7b7c2542+ Fri, 06 Jul 2018 19:26:36 +0100
REM compiler GCC version 9.2.1 20190827 (Red Hat 9.2.1-1)
REM options -cpp -mtune=generic -march=x86-64 -g -O0 -fpre-include=/usr/include/finclude/math-vector-fortran.h
REM seed -115721294 -981948961 1718946007 2055692936 1678456333 -1979136037 1856255357 -118522183 1271243182 -1547172800 1982112170 67297200 1496163732 370690712 1378658908 1887060212 293241145 -617265876 -579349068 -1748161773 1237682269 -2050624318 767673405 1430344177 1583314541 -1745026961 2137168062 -1111813786 1743908585 216364587 1736152722 -1320407100 -834520875
REM
CELL 1.54180   50.00000   50.00000   50.00000   90.00000   90.00000   90.00000
LATT -1
SFAC C  
C      1  0.4625610000000  0.4496800000000  0.5885540000000 1.0
C      1  0.4436160000000  0.4501150000000  0.4247750000000 1.0
C      1  0.5956100000000  0.4485890000000  0.4880290000000 1.0
C      1  0.5354110000000  0.5461670000000  0.5826980000000 1.0
C      1  0.5579970000000  0.5439450000000  0.4231970000000 1.0
C      1  0.4061020000000  0.5458610000000  0.4880180000000 1.0
C      1  0.5150260000000  0.6052880000000  0.4337310000000 1.0
C      1  0.5538780000000  0.6032370000000  0.5441460000000 1.0
C      1  0.4286160000000  0.6046760000000  0.5221270000000 1.0
C      1  0.4839170000000  0.3949000000000  0.4407230000000 1.0
C      1  0.4570170000000  0.3961740000000  0.5439840000000 1.0
C      1  0.5594080000000  0.3950680000000  0.5151340000000 1.0
C      1  0.4601120000000  0.5126700000000  0.4708390000000 1.0
C      1  0.5516450000000  0.5113160000000  0.4816500000000 1.0
C      1  0.4921540000000  0.5116970000000  0.5472860000000 1.0
C      1  0.5365010000000  0.4889680000000  0.4700310000000 1.0
C      1  0.4568900000000  0.4885970000000  0.4876620000000 1.0
C      1  0.5087900000000  0.4880270000000  0.5422010000000 1.0
C      1  0.5304460000000  0.3829590000000  0.4579820000000 1.0
C      1  0.5213550000000  0.3837120000000  0.5472430000000 1.0
C      1  0.4481710000000  0.3829990000000  0.4954910000000 1.0
C      1  0.4685020000000  0.6135770000000  0.4545130000000 1.0
C      1  0.4706630000000  0.6156470000000  0.5493090000000 1.0
C      1  0.5538540000000  0.6133450000000  0.4944510000000 1.0
C      1  0.5810150000000  0.4670870000000  0.5564260000000 1.0
C      1  0.4104520000000  0.4673670000000  0.5412330000000 1.0
C      1  0.5099750000000  0.4675960000000  0.4036940000000 1.0
C      1  0.4189130000000  0.5289460000000  0.5594270000000 1.0
C      1  0.5896510000000  0.5277360000000  0.5366040000000 1.0
C      1  0.4916390000000  0.5295880000000  0.4038470000000 1.0
C      1  0.4181600000000  0.4427410000000  0.4686280000000 1.0
C      1  0.5692520000000  0.4415460000000  0.4445780000000 1.0
C      1  0.5132930000000  0.4430030000000  0.5852180000000 1.0
C      1  0.5892820000000  0.5525240000000  0.4646120000000 1.0
C      1  0.4298560000000  0.5539850000000  0.4429320000000 1.0
C      1  0.4851510000000  0.5539590000000  0.5873140000000 1.0
C      1  0.4409050000000  0.5048650000000  0.4297720000000 1.0
C      1  0.5939010000000  0.5032570000000  0.4826670000000 1.0
C      1  0.4678440000000  0.5046600000000  0.5887080000000 1.0
C      1  0.5573940000000  0.4901200000000  0.4322800000000 1.0
C      1  0.4126780000000  0.4911810000000  0.4854970000000 1.0
C      1  0.5301670000000  0.4914720000000  0.5808510000000 1.0
C      1  0.5866740000000  0.5231100000000  0.4617040000000 1.0
C      1  0.4893710000000  0.5249900000000  0.5899380000000 1.0
C      1  0.4262320000000  0.5247960000000  0.4458180000000 1.0
C      1  0.4245470000000  0.4708380000000  0.4676210000000 1.0
C      1  0.5088590000000  0.4710880000000  0.5806310000000 1.0
C      1  0.5682630000000  0.4697570000000  0.4503860000000 1.0
C      1  0.4489180000000  0.4848810000000  0.5546950000000 1.0
C      1  0.4807770000000  0.4866020000000  0.4320930000000 1.0
C      1  0.5731040000000  0.4844060000000  0.5189900000000 1.0
C      1  0.5521400000000  0.5134900000000  0.5490100000000 1.0
C      1  0.5217430000000  0.5150900000000  0.4292900000000 1.0
C      1  0.4290900000000  0.5134720000000  0.5217350000000 1.0
C      1  0.5023660000000  0.4084690000000  0.4759260000000 1.0
C      1  0.5193150000000  0.4096440000000  0.5143100000000 1.0
C      1  0.4775710000000  0.4093130000000  0.5097950000000 1.0
C      1  0.4994760000000  0.5981820000000  0.4782960000000 1.0
C      1  0.4767410000000  0.5946990000000  0.5134320000000 1.0
C      1  0.5200840000000  0.5989860000000  0.5148710000000 1.0
C      1  0.5386690000000  0.4593230000000  0.4782660000000 1.0
C      1  0.4991500000000  0.4591950000000  0.5415560000000 1.0
C      1  0.4634790000000  0.4597340000000  0.4787670000000 1.0
C      1  0.4471680000000  0.5404640000000  0.4786760000000 1.0
C      1  0.5055370000000  0.5400020000000  0.5533870000000 1.0
C      1  0.5492060000000  0.5407250000000  0.4685410000000 1.0
C      1  0.5612640000000  0.4842940000000  0.5777550000000 1.0
C      1  0.4000550000000  0.4841780000000  0.5139520000000 1.0
C      1  0.5388550000000  0.4832910000000  0.4078720000000 1.0
C      1  0.4367330000000  0.5127040000000  0.5836300000000 1.0
C      1  0.6043870000000  0.5113210000000  0.5114530000000 1.0
C      1  0.4612780000000  0.5134180000000  0.4063550000000 1.0
C      1  0.4121280000000  0.4283210000000  0.4932130000000 1.0
C      1  0.5502810000000  0.4276370000000  0.4273580000000 1.0
C      1  0.5379850000000  0.4291380000000  0.5785920000000 1.0
C      1  0.5876950000000  0.5666340000000  0.4903900000000 1.0
C      1  0.4526220000000  0.5666560000000  0.4292970000000 1.0
C      1  0.4604180000000  0.5664530000000  0.5779080000000 1.0
C      1  0.5364480000000  0.4919010000000  0.5380440000000 1.0
C      1  0.4454830000000  0.4914930000000  0.5133750000000 1.0
C      1  0.5174190000000  0.4959730000000  0.4503360000000 1.0
C      1  0.4633440000000  0.5088860000000  0.5471740000000 1.0
C      1  0.5610180000000  0.5084380000000  0.5082710000000 1.0
C      1  0.4780050000000  0.5103760000000  0.4486600000000 1.0
C      1  0.4230120000000  0.4413950000000  0.5428340000000 1.0
C      1  0.5020340000000  0.4415200000000  0.4130200000000 1.0
C      1  0.5755760000000  0.4413660000000  0.5443990000000 1.0
C      1  0.5721860000000  0.5508520000000  0.5372600000000 1.0
C      1  0.5012020000000  0.5524230000000  0.4189180000000 1.0
C      1  0.4249670000000  0.5529110000000  0.5438540000000 1.0
C      1  0.5020880000000  0.5718020000000  0.4652300000000 1.0
C      1  0.5294960000000  0.5690570000000  0.5141520000000 1.0
C      1  0.4661460000000  0.5673300000000  0.5202420000000 1.0
C      1  0.5050870000000  0.4320180000000  0.4590970000000 1.0
C      1  0.4614180000000  0.4327920000000  0.5156550000000 1.0
C      1  0.5332040000000  0.4331060000000  0.5244400000000 1.0
C      1  0.4400970000000  0.4771540000000  0.4411950000000 1.0
C      1  0.5839190000000  0.4757620000000  0.4764560000000 1.0
C      1  0.4783690000000  0.4769690000000  0.5835590000000 1.0
C      1  0.5667840000000  0.5174890000000  0.4383290000000 1.0
C      1  0.4119220000000  0.5183840000000  0.4733110000000 1.0
C      1  0.5200500000000  0.5188340000000  0.5865780000000 1.0
C      1  0.4303490000000  0.4261160000000  0.5168850000000 1.0
C      1  0.5205930000000  0.4257830000000  0.4318050000000 1.0
C      1  0.5493920000000  0.4264520000000  0.5510640000000 1.0
C      1  0.5647820000000  0.5664450000000  0.5119870000000 1.0
C      1  0.4828930000000  0.5676080000000  0.4374940000000 1.0
C      1  0.4500210000000  0.5692330000000  0.5492160000000 1.0
C      1  0.5318650000000  0.5660380000000  0.4618020000000 1.0
C      1  0.5221340000000  0.5645630000000  0.5430670000000 1.0
C      1  0.4465220000000  0.5642260000000  0.4984190000000 1.0
C      1  0.4783160000000  0.4463390000000  0.4564100000000 1.0
C      1  0.4726560000000  0.4463950000000  0.5400900000000 1.0
C      1  0.5496380000000  0.4455880000000  0.5022850000000 1.0
C      1  0.5353040000000  0.5839450000000  0.4364780000000 1.0
C      1  0.5411230000000  0.5819170000000  0.5598440000000 1.0
C      1  0.4222730000000  0.5821830000000  0.5041960000000 1.0
C      1  0.4679880000000  0.4195790000000  0.4401600000000 1.0
C      1  0.4636040000000  0.4213490000000  0.5575840000000 1.0
C      1  0.5685660000000  0.4195210000000  0.5016850000000 1.0
C      1  0.4397180000000  0.4361290000000  0.5698010000000 1.0
C      1  0.4708650000000  0.4363400000000  0.4142610000000 1.0
C      1  0.5902750000000  0.4353520000000  0.5169580000000 1.0
C      1  0.5590580000000  0.5576460000000  0.5646340000000 1.0
C      1  0.5313210000000  0.5598590000000  0.4185830000000 1.0
C      1  0.4083090000000  0.5581200000000  0.5178010000000 1.0
C      1  0.4743340000000  0.3953730000000  0.4823820000000 1.0
C      1  0.5279270000000  0.3952550000000  0.4872720000000 1.0
C      1  0.4970490000000  0.3966470000000  0.5312950000000 1.0
C      1  0.5241410000000  0.6141640000000  0.4887640000000 1.0
C      1  0.4713380000000  0.6085190000000  0.4853260000000 1.0
C      1  0.4961800000000  0.6081310000000  0.5329400000000 1.0
C      1  0.5983530000000  0.4867260000000  0.5378930000000 1.0
C      1  0.4190560000000  0.4872930000000  0.5644900000000 1.0
C      1  0.4864640000000  0.4880600000000  0.4011700000000 1.0
C      1  0.4038100000000  0.5087660000000  0.5402970000000 1.0
C      1  0.5815380000000  0.5088100000000  0.5607170000000 1.0
C      1  0.5151630000000  0.5089490000000  0.3988650000000 1.0
C      1  0.4770530000000  0.5188010000000  0.5087580000000 1.0
C      1  0.4957610000000  0.5040910000000  0.4912510000000 1.0
C      1  0.5052850000000  0.4773170000000  0.4962560000000 1.0
C      1  0.4851510000000  0.5459840000000  0.5163190000000 1.0
C      1  0.5096000000000  0.5513260000000  0.5010800000000 1.0
C      1  0.5129580000000  0.5271620000000  0.4845110000000 1.0
C      1  0.5132270000000  0.3958810000000  0.4373660000000 1.0
C      1  0.5478030000000  0.3964670000000  0.5422090000000 1.0
C      1  0.4391210000000  0.3962790000000  0.5205330000000 1.0
C      1  0.4864380000000  0.5986600000000  0.4364700000000 1.0
C      1  0.4461880000000  0.5997550000000  0.5451490000000 1.0
C      1  0.5632560000000  0.5973170000000  0.5169790000000 1.0
C      1  0.4871530000000  0.4307510000000  0.5922970000000 1.0
C      1  0.4269570000000  0.4309760000000  0.4427930000000 1.0
C      1  0.5872620000000  0.4293670000000  0.4648950000000 1.0
C      1  0.5120730000000  0.5660430000000  0.5856790000000 1.0
C      1  0.5769600000000  0.5625970000000  0.4392980000000 1.0
C      1  0.4156150000000  0.5654230000000  0.4662820000000 1.0
END
