TITL C-862128-1543-809 -0.00588723870578987 125000 -385.352276563545 0 0 72 (Ci) n - 1
REM
REM in /home/nfs/bkarasulu/CARBON/AIRSS/Generating-Clusters/TERSOFF/Higher-Symm/FIRE-HFTN
REM
REM
REM
REM
REM
REM ./C.cell (b20cbc046b6831c77cfcea5457e17084)
REM AIRSS Version 0.9.1 bugfix July 2018 build 013d7b7c2542+ Fri, 06 Jul 2018 19:26:36 +0100
REM compiler GCC version 9.2.1 20190827 (Red Hat 9.2.1-1)
REM options -cpp -mtune=generic -march=x86-64 -g -O0 -fpre-include=/usr/include/finclude/math-vector-fortran.h
REM seed -1114960541 685655670 -33610533 -2119858918 -84581657 81968512 -227517247 -888888155 1388002195 -390694321 657418906 -264958625 1016360249 1457951090 1759820405 -1947719607 462263615 -343947451 -2106490052 -1091295868 -2028880930 79611624 -670235203 -1449772067 537860382 -932928079 -833244633 -907129196 1431397254 315062971 -1809246775 -1575546063 2114575339
REM
CELL 1.54180   50.00000   50.00000   50.00000   90.00000   90.00000   90.00000
LATT -1
SFAC C  
C      1  0.5291560000000  0.4775030000000  0.5240410000000 1.0
C      1  0.4708440000000  0.5224970000000  0.4759590000000 1.0
C      1  0.4997340000000  0.4359630000000  0.5460980000000 1.0
C      1  0.5002660000000  0.5640370000000  0.4539020000000 1.0
C      1  0.5126080000000  0.5307960000000  0.5715510000000 1.0
C      1  0.4873920000000  0.4692040000000  0.4284490000000 1.0
C      1  0.5173590000000  0.5786030000000  0.4736770000000 1.0
C      1  0.4826410000000  0.4213970000000  0.5263230000000 1.0
C      1  0.4937740000000  0.5059960000000  0.5788050000000 1.0
C      1  0.5062260000000  0.4940040000000  0.4211950000000 1.0
C      1  0.4770320000000  0.4370680000000  0.4987780000000 1.0
C      1  0.5229680000000  0.5629320000000  0.5012220000000 1.0
C      1  0.4886410000000  0.5087540000000  0.5191770000000 1.0
C      1  0.5113590000000  0.4912460000000  0.4808230000000 1.0
C      1  0.4978810000000  0.5162070000000  0.4374710000000 1.0
C      1  0.5021190000000  0.4837930000000  0.5625290000000 1.0
C      1  0.5425790000000  0.4876950000000  0.4986220000000 1.0
C      1  0.4574210000000  0.5123050000000  0.5013780000000 1.0
C      1  0.5631220000000  0.5586160000000  0.4896930000000 1.0
C      1  0.4368780000000  0.4413840000000  0.5103070000000 1.0
C      1  0.5275250000000  0.4443030000000  0.5335500000000 1.0
C      1  0.4724750000000  0.5556970000000  0.4664500000000 1.0
C      1  0.5275810000000  0.5586750000000  0.5339380000000 1.0
C      1  0.4724190000000  0.4413250000000  0.4660620000000 1.0
C      1  0.4959220000000  0.4447820000000  0.4454150000000 1.0
C      1  0.5040780000000  0.5552180000000  0.5545850000000 1.0
C      1  0.4704240000000  0.5262690000000  0.5387720000000 1.0
C      1  0.5295760000000  0.4737310000000  0.4612280000000 1.0
C      1  0.4270110000000  0.4835650000000  0.5283570000000 1.0
C      1  0.5729890000000  0.5164350000000  0.4716430000000 1.0
C      1  0.4539860000000  0.5431920000000  0.4435430000000 1.0
C      1  0.5460140000000  0.4568080000000  0.5564570000000 1.0
C      1  0.4584090000000  0.4708940000000  0.4503970000000 1.0
C      1  0.5415910000000  0.5291060000000  0.5496030000000 1.0
C      1  0.4778500000000  0.5536720000000  0.5428210000000 1.0
C      1  0.5221500000000  0.4463280000000  0.4571790000000 1.0
C      1  0.5096600000000  0.4455260000000  0.5051230000000 1.0
C      1  0.4903400000000  0.5544740000000  0.4948770000000 1.0
C      1  0.5645480000000  0.4407120000000  0.4987350000000 1.0
C      1  0.4354520000000  0.5592880000000  0.5012650000000 1.0
C      1  0.4860580000000  0.4590490000000  0.5597460000000 1.0
C      1  0.5139420000000  0.5409510000000  0.4402540000000 1.0
C      1  0.5080670000000  0.5241200000000  0.4961940000000 1.0
C      1  0.4919330000000  0.4758800000000  0.5038060000000 1.0
C      1  0.5800140000000  0.4782390000000  0.5272660000000 1.0
C      1  0.4199860000000  0.5217610000000  0.4727340000000 1.0
C      1  0.4608680000000  0.4657200000000  0.5463030000000 1.0
C      1  0.5391320000000  0.5342800000000  0.4536970000000 1.0
C      1  0.4360840000000  0.5203840000000  0.4481600000000 1.0
C      1  0.5639160000000  0.4796160000000  0.5518400000000 1.0
C      1  0.4450200000000  0.5167410000000  0.5467380000000 1.0
C      1  0.5549800000000  0.4832590000000  0.4532620000000 1.0
C      1  0.5581410000000  0.5117850000000  0.4415790000000 1.0
C      1  0.4418590000000  0.4882150000000  0.5584210000000 1.0
C      1  0.4529190000000  0.5728870000000  0.4829080000000 1.0
C      1  0.5470810000000  0.4271130000000  0.5170920000000 1.0
C      1  0.5103020000000  0.4936610000000  0.5371020000000 1.0
C      1  0.4896980000000  0.5063390000000  0.4628980000000 1.0
C      1  0.4372260000000  0.4746340000000  0.4747620000000 1.0
C      1  0.5627740000000  0.5253660000000  0.5252380000000 1.0
C      1  0.4636840000000  0.5041830000000  0.5821860000000 1.0
C      1  0.5363160000000  0.4958170000000  0.4178140000000 1.0
C      1  0.4607880000000  0.4618980000000  0.5156470000000 1.0
C      1  0.5392120000000  0.5381020000000  0.4843530000000 1.0
C      1  0.5241580000000  0.4336930000000  0.4825240000000 1.0
C      1  0.4758420000000  0.5663070000000  0.5174760000000 1.0
C      1  0.4442010000000  0.4847630000000  0.5019420000000 1.0
C      1  0.5557990000000  0.5152370000000  0.4980580000000 1.0
C      1  0.4320390000000  0.5305470000000  0.4984370000000 1.0
C      1  0.5679610000000  0.4694530000000  0.5015630000000 1.0
C      1  0.5576640000000  0.5057510000000  0.5640260000000 1.0
C      1  0.4423360000000  0.4942490000000  0.4359740000000 1.0
END
