TITL C-862131-2149-1390 0.0570727147729037 125000 -527.252996307894 0 0 90 (C1) n - 1
REM
REM in /home/nfs/bkarasulu/CARBON/AIRSS/Generating-Clusters/TERSOFF/Higher-Symm/FIRE-HFTN
REM
REM
REM
REM
REM
REM ./C.cell (b20cbc046b6831c77cfcea5457e17084)
REM AIRSS Version 0.9.1 bugfix July 2018 build 013d7b7c2542+ Fri, 06 Jul 2018 19:26:36 +0100
REM compiler GCC version 9.2.1 20190827 (Red Hat 9.2.1-1)
REM options -cpp -mtune=generic -march=x86-64 -g -O0 -fpre-include=/usr/include/finclude/math-vector-fortran.h
REM seed 702665168 206610947 1473949070 -2125780721 -2147019121 599771292 32543890 -567161014 -1883422196 -491654362 2024782780 1401707016 -1330725430 897619652 -301916377 437078532 -1402120994 85091485 -1811170495 -1490961736 1091507064 -604924901 -503449388 616349259 -1235357615 404292118 588955725 -886056793 86561442 -2073811666 -1664062618 235848970 1370235420
REM
CELL 1.54180   50.00000   50.00000   50.00000   90.00000   90.00000   90.00000
LATT -1
SFAC C  
C      1  0.4456040000000  0.4370760000000  0.5157900000000 1.0
C      1  0.4451770000000  0.4357870000000  0.4847520000000 1.0
C      1  0.4868070000000  0.4885190000000  0.4141260000000 1.0
C      1  0.4874080000000  0.4883920000000  0.5860600000000 1.0
C      1  0.5155220000000  0.5235120000000  0.5258000000000 1.0
C      1  0.5151030000000  0.5234630000000  0.4745370000000 1.0
C      1  0.5067970000000  0.4759350000000  0.5278700000000 1.0
C      1  0.5064030000000  0.4757190000000  0.4726700000000 1.0
C      1  0.5570970000000  0.5312210000000  0.5621530000000 1.0
C      1  0.5565720000000  0.5312530000000  0.4380050000000 1.0
C      1  0.5181320000000  0.5371550000000  0.4025250000000 1.0
C      1  0.5185970000000  0.5369620000000  0.5978050000000 1.0
C      1  0.5343870000000  0.4136200000000  0.5288860000000 1.0
C      1  0.5344390000000  0.4134540000000  0.4716010000000 1.0
C      1  0.4719610000000  0.5159310000000  0.5832770000000 1.0
C      1  0.4715320000000  0.5163790000000  0.4168530000000 1.0
C      1  0.5598520000000  0.5677420000000  0.4724620000000 1.0
C      1  0.5600290000000  0.5678280000000  0.5278040000000 1.0
C      1  0.5096010000000  0.4195260000000  0.5148770000000 1.0
C      1  0.5096500000000  0.4194680000000  0.4855430000000 1.0
C      1  0.4861940000000  0.5665830000000  0.5778390000000 1.0
C      1  0.4858840000000  0.5668300000000  0.4227770000000 1.0
C      1  0.4891900000000  0.5419680000000  0.5958020000000 1.0
C      1  0.4888410000000  0.5422770000000  0.4047930000000 1.0
C      1  0.5355770000000  0.5787340000000  0.5153360000000 1.0
C      1  0.5355020000000  0.5787220000000  0.4850720000000 1.0
C      1  0.4420840000000  0.5171670000000  0.4126660000000 1.0
C      1  0.4423740000000  0.5160090000000  0.5868620000000 1.0
C      1  0.5090770000000  0.5788050000000  0.4698640000000 1.0
C      1  0.5092170000000  0.5787180000000  0.5306800000000 1.0
C      1  0.5599120000000  0.4562130000000  0.5148340000000 1.0
C      1  0.5598820000000  0.4562200000000  0.4851340000000 1.0
C      1  0.4873400000000  0.4311410000000  0.5296680000000 1.0
C      1  0.4873390000000  0.4307710000000  0.4706370000000 1.0
C      1  0.5631780000000  0.5371480000000  0.4676990000000 1.0
C      1  0.5635430000000  0.5371930000000  0.5323380000000 1.0
C      1  0.4792560000000  0.5299640000000  0.4437510000000 1.0
C      1  0.4799090000000  0.5300530000000  0.5566490000000 1.0
C      1  0.5285880000000  0.5359110000000  0.5703910000000 1.0
C      1  0.5280500000000  0.5359210000000  0.4299280000000 1.0
C      1  0.5151900000000  0.4510510000000  0.5659130000000 1.0
C      1  0.5148990000000  0.4510800000000  0.4342470000000 1.0
C      1  0.4232310000000  0.5293650000000  0.4313740000000 1.0
C      1  0.4234720000000  0.5267940000000  0.5672910000000 1.0
C      1  0.5688410000000  0.5066950000000  0.5716090000000 1.0
C      1  0.5683440000000  0.5068130000000  0.4283750000000 1.0
C      1  0.5626840000000  0.4813880000000  0.5299470000000 1.0
C      1  0.5625580000000  0.4814040000000  0.4700160000000 1.0
C      1  0.4599170000000  0.5418050000000  0.5388890000000 1.0
C      1  0.4590310000000  0.5412100000000  0.4617720000000 1.0
C      1  0.4834710000000  0.4576440000000  0.4323720000000 1.0
C      1  0.4837540000000  0.4577930000000  0.5679040000000 1.0
C      1  0.4451520000000  0.4863870000000  0.4841650000000 1.0
C      1  0.4477630000000  0.4885850000000  0.5144600000000 1.0
C      1  0.5588030000000  0.4820490000000  0.5602100000000 1.0
C      1  0.5584480000000  0.4821060000000  0.4397650000000 1.0
C      1  0.5082110000000  0.5782200000000  0.5608020000000 1.0
C      1  0.5079350000000  0.5784570000000  0.4397540000000 1.0
C      1  0.5037810000000  0.5003360000000  0.4861760000000 1.0
C      1  0.5042560000000  0.5003940000000  0.5142810000000 1.0
C      1  0.5344310000000  0.4717010000000  0.5749000000000 1.0
C      1  0.5339580000000  0.4718210000000  0.4252210000000 1.0
C      1  0.5698950000000  0.5074770000000  0.4846520000000 1.0
C      1  0.5699700000000  0.5074650000000  0.5152870000000 1.0
C      1  0.4845610000000  0.4598570000000  0.4631790000000 1.0
C      1  0.4850080000000  0.4601940000000  0.5371550000000 1.0
C      1  0.5071670000000  0.5320670000000  0.4499520000000 1.0
C      1  0.5077390000000  0.5320480000000  0.5504360000000 1.0
C      1  0.4566980000000  0.4636870000000  0.5261520000000 1.0
C      1  0.4557930000000  0.4620320000000  0.4737080000000 1.0
C      1  0.5170630000000  0.4899830000000  0.5904340000000 1.0
C      1  0.5165240000000  0.4901000000000  0.4097700000000 1.0
C      1  0.4847490000000  0.5790380000000  0.4858720000000 1.0
C      1  0.4848150000000  0.5789920000000  0.5147850000000 1.0
C      1  0.4145790000000  0.5259340000000  0.4813990000000 1.0
C      1  0.4151700000000  0.5302840000000  0.5162730000000 1.0
C      1  0.4607510000000  0.4175600000000  0.5360320000000 1.0
C      1  0.4610430000000  0.4168240000000  0.4644180000000 1.0
C      1  0.5576950000000  0.4308910000000  0.5292480000000 1.0
C      1  0.5575630000000  0.4309200000000  0.4707350000000 1.0
C      1  0.4482460000000  0.4222890000000  0.4117650000000 1.0
C      1  0.4482970000000  0.4229660000000  0.5887010000000 1.0
C      1  0.4177250000000  0.4989140000000  0.5133910000000 1.0
C      1  0.4145100000000  0.4945640000000  0.4807590000000 1.0
C      1  0.4304620000000  0.5371450000000  0.4587550000000 1.0
C      1  0.4315430000000  0.5369950000000  0.5410300000000 1.0
C      1  0.5378750000000  0.5345840000000  0.4858970000000 1.0
C      1  0.5380620000000  0.5347130000000  0.5142510000000 1.0
C      1  0.4633950000000  0.4323140000000  0.5657480000000 1.0
C      1  0.4633660000000  0.4317720000000  0.4346530000000 1.0
END
