TITL C-862507-1800-1419 1.48940070571965e-05 125000 -961.249042624375 0 0 175 (C1) n - 1
REM
REM in /home/nfs/bkarasulu/CARBON/AIRSS/Generating-Clusters/TERSOFF/Higher-Symm/FIRE-HFTN
REM
REM
REM
REM
REM
REM ./C.cell (b20cbc046b6831c77cfcea5457e17084)
REM AIRSS Version 0.9.1 bugfix July 2018 build 013d7b7c2542+ Fri, 06 Jul 2018 19:26:36 +0100
REM compiler GCC version 9.2.1 20190827 (Red Hat 9.2.1-1)
REM options -cpp -mtune=generic -march=x86-64 -g -O0 -fpre-include=/usr/include/finclude/math-vector-fortran.h
REM seed -1974791537 -1711492505 820601204 1782189067 1142274523 430801580 -1738518256 1015725983 286875392 -250991956 -1888381976 1778224968 -1453927674 485143717 2121967445 1008661255 -1472101274 717008651 -1761159325 1831084738 1557913227 1138377590 -829756949 734440281 1999749040 93531317 1865956515 -772067511 1595861082 993146777 1603262641 -69809288 -1779664376
REM
CELL 1.54180   50.00000   50.00000   50.00000   90.00000   90.00000   90.00000
LATT -1
SFAC C  
C      1  0.5481650000000  0.4567580000000  0.5415540000000 1.0
C      1  0.5480020000000  0.5143250000000  0.5577090000000 1.0
C      1  0.5480060000000  0.5573540000000  0.5162310000000 1.0
C      1  0.5481620000000  0.5431900000000  0.4579660000000 1.0
C      1  0.5489520000000  0.4853170000000  0.4414060000000 1.0
C      1  0.5488820000000  0.4420530000000  0.4833640000000 1.0
C      1  0.4510760000000  0.4567220000000  0.5427530000000 1.0
C      1  0.4519120000000  0.5147770000000  0.5581920000000 1.0
C      1  0.4518720000000  0.5576000000000  0.5169290000000 1.0
C      1  0.4508080000000  0.5441430000000  0.4582420000000 1.0
C      1  0.4529020000000  0.4845740000000  0.4418850000000 1.0
C      1  0.4526900000000  0.4434450000000  0.4822350000000 1.0
C      1  0.5758800000000  0.4261610000000  0.5487520000000 1.0
C      1  0.5757530000000  0.5054490000000  0.5878470000000 1.0
C      1  0.5757710000000  0.5790730000000  0.5389110000000 1.0
C      1  0.5758400000000  0.5738350000000  0.4508350000000 1.0
C      1  0.5763900000000  0.4947840000000  0.4111980000000 1.0
C      1  0.5764440000000  0.4206420000000  0.4601860000000 1.0
C      1  0.4239010000000  0.4255300000000  0.5489990000000 1.0
C      1  0.4245580000000  0.5054890000000  0.5885570000000 1.0
C      1  0.4244250000000  0.5796470000000  0.5396670000000 1.0
C      1  0.4236150000000  0.5750540000000  0.4508610000000 1.0
C      1  0.4252770000000  0.4946310000000  0.4120110000000 1.0
C      1  0.4249740000000  0.4211630000000  0.4600840000000 1.0
C      1  0.5289110000000  0.5203170000000  0.5208480000000 1.0
C      1  0.5291430000000  0.5285280000000  0.4923180000000 1.0
C      1  0.5295400000000  0.5079160000000  0.4708860000000 1.0
C      1  0.5298350000000  0.4790240000000  0.4781860000000 1.0
C      1  0.5293740000000  0.4708130000000  0.5068280000000 1.0
C      1  0.5289400000000  0.4915350000000  0.5281380000000 1.0
C      1  0.4707410000000  0.5203790000000  0.5211230000000 1.0
C      1  0.4705470000000  0.5293890000000  0.4921750000000 1.0
C      1  0.4704210000000  0.5093290000000  0.4707220000000 1.0
C      1  0.4763690000000  0.4809420000000  0.4806140000000 1.0
C      1  0.4711320000000  0.4702150000000  0.5085870000000 1.0
C      1  0.4707590000000  0.4911690000000  0.5291470000000 1.0
C      1  0.4851220000000  0.5124650000000  0.4435300000000 1.0
C      1  0.4864650000000  0.4575600000000  0.4616480000000 1.0
C      1  0.4854940000000  0.4449340000000  0.5185280000000 1.0
C      1  0.4850690000000  0.4879770000000  0.5564210000000 1.0
C      1  0.4849780000000  0.5423650000000  0.5380730000000 1.0
C      1  0.4850980000000  0.5547070000000  0.4821480000000 1.0
C      1  0.5151890000000  0.5117980000000  0.4434810000000 1.0
C      1  0.5162120000000  0.4567380000000  0.4609950000000 1.0
C      1  0.5153510000000  0.4451490000000  0.5175730000000 1.0
C      1  0.5149940000000  0.4878250000000  0.5558940000000 1.0
C      1  0.5149050000000  0.5423100000000  0.5379310000000 1.0
C      1  0.5149970000000  0.5542890000000  0.4819630000000 1.0
C      1  0.5189570000000  0.4979730000000  0.3991650000000 1.0
C      1  0.5190650000000  0.4118540000000  0.4511790000000 1.0
C      1  0.5184540000000  0.4136810000000  0.5518770000000 1.0
C      1  0.5185490000000  0.5019940000000  0.6002740000000 1.0
C      1  0.5185080000000  0.5879740000000  0.5481720000000 1.0
C      1  0.5183230000000  0.5860310000000  0.4476760000000 1.0
C      1  0.4822930000000  0.4983360000000  0.3995190000000 1.0
C      1  0.4824120000000  0.4123600000000  0.4515870000000 1.0
C      1  0.4817520000000  0.4136740000000  0.5521870000000 1.0
C      1  0.4818820000000  0.5021970000000  0.6006170000000 1.0
C      1  0.4818530000000  0.5881350000000  0.5484010000000 1.0
C      1  0.4816340000000  0.5864830000000  0.4478590000000 1.0
C      1  0.5574630000000  0.4862200000000  0.5447820000000 1.0
C      1  0.5573910000000  0.5320510000000  0.5340410000000 1.0
C      1  0.5575260000000  0.5458300000000  0.4889780000000 1.0
C      1  0.5579600000000  0.5136800000000  0.4544780000000 1.0
C      1  0.5583430000000  0.4674520000000  0.4652000000000 1.0
C      1  0.5579150000000  0.4539330000000  0.5105760000000 1.0
C      1  0.4421070000000  0.4864950000000  0.5453840000000 1.0
C      1  0.4424990000000  0.5321390000000  0.5343730000000 1.0
C      1  0.4419550000000  0.5465140000000  0.4895820000000 1.0
C      1  0.4416990000000  0.5138790000000  0.4546320000000 1.0
C      1  0.4458420000000  0.4709270000000  0.4680320000000 1.0
C      1  0.4420940000000  0.4538790000000  0.5104990000000 1.0
C      1  0.5497450000000  0.4501660000000  0.4184660000000 1.0
C      1  0.5493470000000  0.4046320000000  0.5023880000000 1.0
C      1  0.5490380000000  0.4545530000000  0.5834660000000 1.0
C      1  0.5490570000000  0.5495450000000  0.5805370000000 1.0
C      1  0.5490150000000  0.5947510000000  0.4971710000000 1.0
C      1  0.5492360000000  0.5454620000000  0.4160620000000 1.0
C      1  0.4518870000000  0.4499520000000  0.4181990000000 1.0
C      1  0.4514150000000  0.4059720000000  0.5021770000000 1.0
C      1  0.4511160000000  0.4544650000000  0.5846540000000 1.0
C      1  0.4512950000000  0.5499400000000  0.5811170000000 1.0
C      1  0.4512210000000  0.5948700000000  0.4975910000000 1.0
C      1  0.4513490000000  0.5457000000000  0.4162910000000 1.0
C      1  0.5243880000000  0.5872400000000  0.4832790000000 1.0
C      1  0.5246510000000  0.5296160000000  0.4156300000000 1.0
C      1  0.5251380000000  0.4418540000000  0.4319220000000 1.0
C      1  0.5246270000000  0.4122230000000  0.5162730000000 1.0
C      1  0.5244100000000  0.4703490000000  0.5838120000000 1.0
C      1  0.5244310000000  0.5577550000000  0.5670670000000 1.0
C      1  0.4757870000000  0.5873940000000  0.4835440000000 1.0
C      1  0.4760810000000  0.5299650000000  0.4159170000000 1.0
C      1  0.4765610000000  0.4420930000000  0.4319300000000 1.0
C      1  0.4760200000000  0.4126420000000  0.5164930000000 1.0
C      1  0.4758030000000  0.4703750000000  0.5846250000000 1.0
C      1  0.4758500000000  0.5579650000000  0.5673550000000 1.0
C      1  0.4098590000000  0.4697630000000  0.4304650000000 1.0
C      1  0.4082630000000  0.4245410000000  0.4914250000000 1.0
C      1  0.4081830000000  0.4550080000000  0.5620890000000 1.0
C      1  0.4082550000000  0.5312040000000  0.5702100000000 1.0
C      1  0.4079340000000  0.5767500000000  0.5083590000000 1.0
C      1  0.4080760000000  0.5452590000000  0.4378960000000 1.0
C      1  0.5926550000000  0.4690960000000  0.4298430000000 1.0
C      1  0.5923710000000  0.4239250000000  0.4917910000000 1.0
C      1  0.5919870000000  0.4548450000000  0.5615030000000 1.0
C      1  0.5920480000000  0.5308290000000  0.5695150000000 1.0
C      1  0.5920260000000  0.5759210000000  0.5078670000000 1.0
C      1  0.5921420000000  0.5453210000000  0.4380890000000 1.0
C      1  0.5488810000000  0.5213710000000  0.5989730000000 1.0
C      1  0.5488160000000  0.5966170000000  0.5307450000000 1.0
C      1  0.5487700000000  0.5755920000000  0.4314710000000 1.0
C      1  0.5493820000000  0.4786810000000  0.4000800000000 1.0
C      1  0.5493450000000  0.4029160000000  0.4685140000000 1.0
C      1  0.5487990000000  0.4243830000000  0.5680940000000 1.0
C      1  0.4515160000000  0.5215480000000  0.5995100000000 1.0
C      1  0.4514980000000  0.5969760000000  0.5311550000000 1.0
C      1  0.4513220000000  0.5761690000000  0.4313130000000 1.0
C      1  0.4520220000000  0.4788650000000  0.4004110000000 1.0
C      1  0.4519220000000  0.4038130000000  0.4687660000000 1.0
C      1  0.4513820000000  0.4239040000000  0.5687070000000 1.0
C      1  0.5178820000000  0.5531340000000  0.4497400000000 1.0
C      1  0.5189700000000  0.4832580000000  0.4286790000000 1.0
C      1  0.5189000000000  0.4299910000000  0.4786760000000 1.0
C      1  0.5181350000000  0.4465110000000  0.5498220000000 1.0
C      1  0.5182530000000  0.5163910000000  0.5706740000000 1.0
C      1  0.5181910000000  0.5695750000000  0.5208500000000 1.0
C      1  0.4813510000000  0.5536720000000  0.4501630000000 1.0
C      1  0.4826170000000  0.4835380000000  0.4290080000000 1.0
C      1  0.4824580000000  0.4307120000000  0.4791520000000 1.0
C      1  0.4816250000000  0.4466470000000  0.5504920000000 1.0
C      1  0.4818820000000  0.5165780000000  0.5709360000000 1.0
C      1  0.4818080000000  0.5696910000000  0.5211350000000 1.0
C      1  0.4164610000000  0.4707570000000  0.5040550000000 1.0
C      1  0.4159930000000  0.4887120000000  0.5277570000000 1.0
C      1  0.4160460000000  0.5184550000000  0.5239650000000 1.0
C      1  0.4157320000000  0.5303700000000  0.4966190000000 1.0
C      1  0.4155360000000  0.5124800000000  0.4730540000000 1.0
C      1  0.4184870000000  0.4827460000000  0.4772960000000 1.0
C      1  0.5841020000000  0.4703760000000  0.5037000000000 1.0
C      1  0.5837300000000  0.4885890000000  0.5273730000000 1.0
C      1  0.5836910000000  0.5181720000000  0.5233520000000 1.0
C      1  0.5837880000000  0.5295770000000  0.4957610000000 1.0
C      1  0.5840540000000  0.5114240000000  0.4720980000000 1.0
C      1  0.5843680000000  0.4818200000000  0.4760530000000 1.0
C      1  0.3963320000000  0.4497610000000  0.4990350000000 1.0
C      1  0.3961880000000  0.4742540000000  0.5442140000000 1.0
C      1  0.3962330000000  0.5253960000000  0.5446800000000 1.0
C      1  0.3958410000000  0.5517090000000  0.5007660000000 1.0
C      1  0.3958660000000  0.5261180000000  0.4558040000000 1.0
C      1  0.3989720000000  0.4756570000000  0.4562920000000 1.0
C      1  0.6041430000000  0.4490700000000  0.4996320000000 1.0
C      1  0.6037600000000  0.4742250000000  0.5436630000000 1.0
C      1  0.6038100000000  0.5250520000000  0.5438250000000 1.0
C      1  0.6038430000000  0.5507970000000  0.5000820000000 1.0
C      1  0.6040330000000  0.5260170000000  0.4559490000000 1.0
C      1  0.6044610000000  0.4749360000000  0.4555300000000 1.0
C      1  0.4254940000000  0.4699630000000  0.5827020000000 1.0
C      1  0.4255150000000  0.5566270000000  0.5673430000000 1.0
C      1  0.4252470000000  0.5868900000000  0.4848380000000 1.0
C      1  0.4258450000000  0.5301710000000  0.4177930000000 1.0
C      1  0.4262070000000  0.4438060000000  0.4325280000000 1.0
C      1  0.4254990000000  0.4141210000000  0.5148810000000 1.0
C      1  0.5747370000000  0.4699280000000  0.5820490000000 1.0
C      1  0.5747790000000  0.5561900000000  0.5666880000000 1.0
C      1  0.5747720000000  0.5862040000000  0.4844920000000 1.0
C      1  0.5750460000000  0.5302300000000  0.4173810000000 1.0
C      1  0.5754300000000  0.4436750000000  0.4325180000000 1.0
C      1  0.5749990000000  0.4135890000000  0.5150270000000 1.0
C      1  0.5004160000000  0.5443640000000  0.4091870000000 1.0
C      1  0.5001760000000  0.6002770000000  0.4927840000000 1.0
C      1  0.5008800000000  0.4435140000000  0.4160510000000 1.0
C      1  0.5002090000000  0.4558590000000  0.5908590000000 1.0
C      1  0.5002300000000  0.5562480000000  0.5830910000000 1.0
C      1  0.5001550000000  0.3994140000000  0.5069970000000 1.0
C      1  0.4997030000000  0.4994280000000  0.4990890000000 1.0
END
