TITL C-862500-986-840 -0.0185502044041456 125000 -723.881090231754 0 0 123 (C1) n - 1
REM
REM in /home/nfs/bkarasulu/CARBON/AIRSS/Generating-Clusters/TERSOFF/Higher-Symm/FIRE-HFTN
REM
REM
REM
REM
REM
REM ./C.cell (b20cbc046b6831c77cfcea5457e17084)
REM AIRSS Version 0.9.1 bugfix July 2018 build 013d7b7c2542+ Fri, 06 Jul 2018 19:26:36 +0100
REM compiler GCC version 9.2.1 20190827 (Red Hat 9.2.1-1)
REM options -cpp -mtune=generic -march=x86-64 -g -O0 -fpre-include=/usr/include/finclude/math-vector-fortran.h
REM seed 964064028 -1212415781 2026224786 -1746990765 240855259 -858059917 -1605231461 -1106784305 17061194 -1988890415 1825236793 -1200826004 -67487417 -2028726889 907176435 -178984267 -734706376 -611109589 -1393447404 -150374931 -1235325505 2097160751 1681975792 1412341769 1234111575 -1062065947 -1939995173 -1441009616 -926503146 1356488614 855792882 -25813011 1562415034
REM
CELL 1.54180   50.00000   50.00000   50.00000   90.00000   90.00000   90.00000
LATT -1
SFAC C  
C      1  0.5624660000000  0.4641340000000  0.5758250000000 1.0
C      1  0.4995100000000  0.5709460000000  0.5762910000000 1.0
C      1  0.4393610000000  0.4646650000000  0.5742900000000 1.0
C      1  0.5325770000000  0.5249560000000  0.5279450000000 1.0
C      1  0.4530850000000  0.5146730000000  0.5292450000000 1.0
C      1  0.5079220000000  0.4579480000000  0.5253600000000 1.0
C      1  0.5366380000000  0.4765870000000  0.5891720000000 1.0
C      1  0.5024080000000  0.5430690000000  0.5897150000000 1.0
C      1  0.4617010000000  0.4813110000000  0.5882950000000 1.0
C      1  0.4875710000000  0.4693520000000  0.3998340000000 1.0
C      1  0.5312440000000  0.4993180000000  0.3961520000000 1.0
C      1  0.4839080000000  0.5222670000000  0.3983380000000 1.0
C      1  0.4409080000000  0.5596460000000  0.5395170000000 1.0
C      1  0.4785240000000  0.4212850000000  0.5380060000000 1.0
C      1  0.5799360000000  0.5189480000000  0.5381530000000 1.0
C      1  0.5117950000000  0.4383080000000  0.5689700000000 1.0
C      1  0.5488280000000  0.5410170000000  0.5696940000000 1.0
C      1  0.4367070000000  0.5229450000000  0.5729160000000 1.0
C      1  0.4011400000000  0.4898500000000  0.4596860000000 1.0
C      1  0.5649970000000  0.4260860000000  0.4642210000000 1.0
C      1  0.5373180000000  0.5874760000000  0.4597050000000 1.0
C      1  0.5251540000000  0.5753150000000  0.4336200000000 1.0
C      1  0.4187750000000  0.4835810000000  0.4343160000000 1.0
C      1  0.5594340000000  0.4415640000000  0.4370420000000 1.0
C      1  0.5388730000000  0.4147230000000  0.4801510000000 1.0
C      1  0.5563660000000  0.5695990000000  0.4787790000000 1.0
C      1  0.4064170000000  0.5166980000000  0.4779970000000 1.0
C      1  0.4651940000000  0.5754480000000  0.5416810000000 1.0
C      1  0.4510850000000  0.4296110000000  0.5410140000000 1.0
C      1  0.5867800000000  0.4910160000000  0.5396800000000 1.0
C      1  0.4648110000000  0.4019500000000  0.4712300000000 1.0
C      1  0.6045950000000  0.5203900000000  0.4707640000000 1.0
C      1  0.4324880000000  0.5837040000000  0.4742700000000 1.0
C      1  0.5303900000000  0.5255670000000  0.4577960000000 1.0
C      1  0.4615780000000  0.5158510000000  0.4611040000000 1.0
C      1  0.5054050000000  0.4633760000000  0.4577760000000 1.0
C      1  0.4209570000000  0.5590830000000  0.5171730000000 1.0
C      1  0.4896550000000  0.4049470000000  0.5157240000000 1.0
C      1  0.5878510000000  0.5370150000000  0.5161370000000 1.0
C      1  0.5579280000000  0.5076890000000  0.4066450000000 1.0
C      1  0.4643980000000  0.5430960000000  0.4070000000000 1.0
C      1  0.4821510000000  0.4440220000000  0.4149160000000 1.0
C      1  0.5197480000000  0.4101160000000  0.5109170000000 1.0
C      1  0.5681600000000  0.5594390000000  0.5114900000000 1.0
C      1  0.4088160000000  0.5312530000000  0.5113620000000 1.0
C      1  0.5120030000000  0.4600800000000  0.5881730000000 1.0
C      1  0.5296480000000  0.5304110000000  0.5891000000000 1.0
C      1  0.4581700000000  0.5108990000000  0.5896410000000 1.0
C      1  0.5397260000000  0.5466700000000  0.5097680000000 1.0
C      1  0.4323730000000  0.5118780000000  0.5106180000000 1.0
C      1  0.5180800000000  0.4406480000000  0.5057850000000 1.0
C      1  0.5211800000000  0.4838530000000  0.5278050000000 1.0
C      1  0.5038140000000  0.5102930000000  0.5305090000000 1.0
C      1  0.4749240000000  0.4967960000000  0.5300440000000 1.0
C      1  0.4741700000000  0.4709120000000  0.4883450000000 1.0
C      1  0.5421940000000  0.4928100000000  0.4846180000000 1.0
C      1  0.4860690000000  0.5363960000000  0.4884310000000 1.0
C      1  0.5191180000000  0.4722050000000  0.4018150000000 1.0
C      1  0.5134940000000  0.5248070000000  0.4016910000000 1.0
C      1  0.4701140000000  0.4945890000000  0.4026410000000 1.0
C      1  0.5532900000000  0.5181210000000  0.4744680000000 1.0
C      1  0.4576930000000  0.5390400000000  0.4790850000000 1.0
C      1  0.4885420000000  0.4477670000000  0.4761860000000 1.0
C      1  0.4474610000000  0.4537280000000  0.5249710000000 1.0
C      1  0.5717480000000  0.4755720000000  0.5195930000000 1.0
C      1  0.4901860000000  0.5632020000000  0.5297280000000 1.0
C      1  0.4178880000000  0.4783690000000  0.5574070000000 1.0
C      1  0.5612580000000  0.4372320000000  0.5618520000000 1.0
C      1  0.5214100000000  0.5814420000000  0.5581930000000 1.0
C      1  0.5376170000000  0.4493220000000  0.4857190000000 1.0
C      1  0.5249330000000  0.5579870000000  0.4867850000000 1.0
C      1  0.4326300000000  0.4938940000000  0.4870140000000 1.0
C      1  0.4880280000000  0.4788850000000  0.4406410000000 1.0
C      1  0.5271050000000  0.5058080000000  0.4373550000000 1.0
C      1  0.4800250000000  0.5225000000000  0.4400900000000 1.0
C      1  0.5657200000000  0.5760350000000  0.5366690000000 1.0
C      1  0.3972340000000  0.5203200000000  0.5383570000000 1.0
C      1  0.5337530000000  0.4039550000000  0.5374760000000 1.0
C      1  0.4030290000000  0.4637130000000  0.5348950000000 1.0
C      1  0.5792600000000  0.4315730000000  0.5384680000000 1.0
C      1  0.5153500000000  0.6004250000000  0.5347640000000 1.0
C      1  0.5855940000000  0.4368910000000  0.4851590000000 1.0
C      1  0.5204650000000  0.6033000000000  0.4800830000000 1.0
C      1  0.3948680000000  0.4681380000000  0.4807370000000 1.0
C      1  0.4788560000000  0.5288490000000  0.6029660000000 1.0
C      1  0.4860500000000  0.4683940000000  0.6015690000000 1.0
C      1  0.5359400000000  0.5039650000000  0.6025400000000 1.0
C      1  0.4397130000000  0.5014540000000  0.4191760000000 1.0
C      1  0.5316910000000  0.4467160000000  0.4222460000000 1.0
C      1  0.5305050000000  0.5468430000000  0.4215880000000 1.0
C      1  0.4434380000000  0.4365710000000  0.5682170000000 1.0
C      1  0.5846700000000  0.4807410000000  0.5669980000000 1.0
C      1  0.4733720000000  0.5811730000000  0.5691330000000 1.0
C      1  0.4918670000000  0.5370290000000  0.5163120000000 1.0
C      1  0.4692290000000  0.4714280000000  0.5162350000000 1.0
C      1  0.5456340000000  0.4859420000000  0.5115150000000 1.0
C      1  0.5475720000000  0.5690550000000  0.5591830000000 1.0
C      1  0.4137860000000  0.5070800000000  0.5601350000000 1.0
C      1  0.5360410000000  0.4232570000000  0.5606780000000 1.0
C      1  0.4481890000000  0.5337910000000  0.5492120000000 1.0
C      1  0.4955610000000  0.4429560000000  0.5466320000000 1.0
C      1  0.5531440000000  0.5231240000000  0.5480790000000 1.0
C      1  0.5745630000000  0.4909240000000  0.4413500000000 1.0
C      1  0.4726690000000  0.5709850000000  0.4453620000000 1.0
C      1  0.4523770000000  0.4439590000000  0.4445350000000 1.0
C      1  0.4928590000000  0.5498310000000  0.4420650000000 1.0
C      1  0.4583160000000  0.4727490000000  0.4434360000000 1.0
C      1  0.5463530000000  0.4823520000000  0.4387970000000 1.0
C      1  0.4697070000000  0.4290790000000  0.4626380000000 1.0
C      1  0.5788180000000  0.5128640000000  0.4602250000000 1.0
C      1  0.4524150000000  0.5649410000000  0.4653780000000 1.0
C      1  0.6089440000000  0.5306430000000  0.4973480000000 1.0
C      1  0.4179090000000  0.5811330000000  0.4988060000000 1.0
C      1  0.4730180000000  0.3911060000000  0.4966050000000 1.0
C      1  0.5790370000000  0.4477250000000  0.5137820000000 1.0
C      1  0.5095880000000  0.5919520000000  0.5060940000000 1.0
C      1  0.4113440000000  0.4629440000000  0.5056980000000 1.0
C      1  0.5331570000000  0.4707190000000  0.4646840000000 1.0
C      1  0.5083210000000  0.5425580000000  0.4680490000000 1.0
C      1  0.4561870000000  0.4881190000000  0.4702220000000 1.0
C      1  0.5574950000000  0.5332490000000  0.4213260000000 1.0
C      1  0.4400220000000  0.5316150000000  0.4191020000000 1.0
C      1  0.5059190000000  0.4318820000000  0.4274930000000 1.0
END
