TITL C-862134-6730-262 22.4008442664485 125000 -208.521950952787 0 0 44 (D3) n - 1
REM
REM in /home/nfs/bkarasulu/CARBON/AIRSS/Generating-Clusters/TERSOFF/Higher-Symm/FIRE-HFTN
REM
REM
REM
REM
REM
REM ./C.cell (b20cbc046b6831c77cfcea5457e17084)
REM AIRSS Version 0.9.1 bugfix July 2018 build 013d7b7c2542+ Fri, 06 Jul 2018 19:26:36 +0100
REM compiler GCC version 9.2.1 20190827 (Red Hat 9.2.1-1)
REM options -cpp -mtune=generic -march=x86-64 -g -O0 -fpre-include=/usr/include/finclude/math-vector-fortran.h
REM seed 178146172 1639182043 -1645196021 -1817596119 1824425509 2055883271 1283814906 -2026224767 -1286345407 -950587825 1049443387 -2079129636 1665317760 3665297 -1386376395 371076262 667754458 670122690 -995718176 609675620 104404749 81190347 -1106157846 -1023880635 -1348869622 2053804017 566161992 636852065 -696601880 -668318548 982775622 1389761498 -353933477
REM
CELL 1.54180   50.00000   50.00000   50.00000   90.00000   90.00000   90.00000
LATT -1
SFAC C  
C      1  0.5505810000000  0.4974080000000  0.4833800000000 1.0
C      1  0.4771590000000  0.5445520000000  0.4833800000000 1.0
C      1  0.4730420000000  0.4573950000000  0.4833800000000 1.0
C      1  0.4499400000000  0.4974080000000  0.5197390000000 1.0
C      1  0.5233620000000  0.5445520000000  0.5197390000000 1.0
C      1  0.5274790000000  0.4573950000000  0.5197390000000 1.0
C      1  0.5047200000000  0.4408940000000  0.5326520000000 1.0
C      1  0.5490310000000  0.5330930000000  0.5326520000000 1.0
C      1  0.4470300000000  0.5253680000000  0.5326530000000 1.0
C      1  0.4958000000000  0.4408940000000  0.4704670000000 1.0
C      1  0.4514890000000  0.5330930000000  0.4704670000000 1.0
C      1  0.5534910000000  0.5253680000000  0.4704670000000 1.0
C      1  0.4845380000000  0.5264940000000  0.5078340000000 1.0
C      1  0.4849910000000  0.4728140000000  0.5078340000000 1.0
C      1  0.5312530000000  0.5000470000000  0.5078340000000 1.0
C      1  0.5159830000000  0.5264940000000  0.4952850000000 1.0
C      1  0.5155300000000  0.4728140000000  0.4952850000000 1.0
C      1  0.4692680000000  0.5000470000000  0.4952850000000 1.0
C      1  0.5218150000000  0.5431550000000  0.4412890000000 1.0
C      1  0.4519240000000  0.4967680000000  0.4412890000000 1.0
C      1  0.5270420000000  0.4594330000000  0.4412890000000 1.0
C      1  0.4787060000000  0.5431550000000  0.5618310000000 1.0
C      1  0.5485970000000  0.4967670000000  0.5618300000000 1.0
C      1  0.4734790000000  0.4594330000000  0.5618310000000 1.0
C      1  0.5287960000000  0.4435650000000  0.4801340000000 1.0
C      1  0.5346800000000  0.5526080000000  0.4801340000000 1.0
C      1  0.4373050000000  0.5031820000000  0.4801350000000 1.0
C      1  0.4717240000000  0.4435650000000  0.5229850000000 1.0
C      1  0.4658410000000  0.5526080000000  0.5229850000000 1.0
C      1  0.5632160000000  0.5031820000000  0.5229850000000 1.0
C      1  0.5265550000000  0.4991470000000  0.5429270000000 1.0
C      1  0.4876650000000  0.5228760000000  0.5429270000000 1.0
C      1  0.4865610000000  0.4773320000000  0.5429270000000 1.0
C      1  0.4739660000000  0.4991470000000  0.4601920000000 1.0
C      1  0.5128550000000  0.5228760000000  0.4601920000000 1.0
C      1  0.5139600000000  0.4773320000000  0.4601920000000 1.0
C      1  0.5538480000000  0.4700540000000  0.5298490000000 1.0
C      1  0.4992150000000  0.5610590000000  0.5298500000000 1.0
C      1  0.4477180000000  0.4682420000000  0.5298500000000 1.0
C      1  0.4466730000000  0.4700540000000  0.4732700000000 1.0
C      1  0.5013060000000  0.5610590000000  0.4732700000000 1.0
C      1  0.5528020000000  0.4682420000000  0.4732690000000 1.0
C      1  0.5002600000000  0.4997850000000  0.5514360000000 1.0
C      1  0.5002600000000  0.4997850000000  0.4516830000000 1.0
END
