TITL C-862507-1800-304 1.08488806443991 125000 -546.286140306889 0 0 98 (C1) n - 1
REM
REM in /home/nfs/bkarasulu/CARBON/AIRSS/Generating-Clusters/TERSOFF/Higher-Symm/FIRE-HFTN
REM
REM
REM
REM
REM
REM ./C.cell (b20cbc046b6831c77cfcea5457e17084)
REM AIRSS Version 0.9.1 bugfix July 2018 build 013d7b7c2542+ Fri, 06 Jul 2018 19:26:36 +0100
REM compiler GCC version 9.2.1 20190827 (Red Hat 9.2.1-1)
REM options -cpp -mtune=generic -march=x86-64 -g -O0 -fpre-include=/usr/include/finclude/math-vector-fortran.h
REM seed -1544653666 -877778715 -1966649681 744720932 -1937564447 -64214046 -183529678 1858796399 -319170414 1847257049 907821993 1999455503 1927017860 1330008650 -1309988806 -2021939346 1610025184 674267468 -199893536 -1652220026 -595253195 -872456597 1960446817 963657651 933519623 -1513431051 81933784 2059607562 -1375751076 947892417 498563253 1419588193 -1655879569
REM
CELL 1.54180   50.00000   50.00000   50.00000   90.00000   90.00000   90.00000
LATT -1
SFAC C  
C      1  0.4515240000000  0.4449440000000  0.4487320000000 1.0
C      1  0.4783290000000  0.4469060000000  0.5651330000000 1.0
C      1  0.5664810000000  0.4454800000000  0.4861620000000 1.0
C      1  0.4652420000000  0.5259660000000  0.5148430000000 1.0
C      1  0.5348540000000  0.5284270000000  0.5313240000000 1.0
C      1  0.5134970000000  0.5283220000000  0.4522920000000 1.0
C      1  0.4759730000000  0.5462220000000  0.5326310000000 1.0
C      1  0.5385620000000  0.5450810000000  0.5073030000000 1.0
C      1  0.4902290000000  0.5450310000000  0.4568990000000 1.0
C      1  0.5027440000000  0.4860030000000  0.5895040000000 1.0
C      1  0.5796710000000  0.4857920000000  0.4557880000000 1.0
C      1  0.4196070000000  0.4857940000000  0.4601990000000 1.0
C      1  0.5105160000000  0.5911470000000  0.4728550000000 1.0
C      1  0.4706800000000  0.5903880000000  0.5036620000000 1.0
C      1  0.5166840000000  0.5916750000000  0.5220430000000 1.0
C      1  0.5837070000000  0.4339880000000  0.5066330000000 1.0
C      1  0.4613010000000  0.4339550000000  0.4235550000000 1.0
C      1  0.4515030000000  0.4365580000000  0.5698170000000 1.0
C      1  0.4544040000000  0.5562750000000  0.4229010000000 1.0
C      1  0.4538480000000  0.5540910000000  0.5674520000000 1.0
C      1  0.5796390000000  0.5532870000000  0.5103210000000 1.0
C      1  0.4952770000000  0.4295090000000  0.5430360000000 1.0
C      1  0.5383170000000  0.4289220000000  0.4818420000000 1.0
C      1  0.4629210000000  0.4287950000000  0.4748690000000 1.0
C      1  0.5887110000000  0.5235690000000  0.4987660000000 1.0
C      1  0.4446440000000  0.5236870000000  0.4230590000000 1.0
C      1  0.4616430000000  0.5256480000000  0.5804930000000 1.0
C      1  0.5094290000000  0.3890390000000  0.5217100000000 1.0
C      1  0.5118030000000  0.3889180000000  0.4797800000000 1.0
C      1  0.4743050000000  0.3893340000000  0.4986890000000 1.0
C      1  0.4460200000000  0.4297570000000  0.5007370000000 1.0
C      1  0.5261910000000  0.4296810000000  0.5450330000000 1.0
C      1  0.5248960000000  0.4293380000000  0.4538860000000 1.0
C      1  0.5006670000000  0.4131070000000  0.4473130000000 1.0
C      1  0.4520180000000  0.4133550000000  0.5249450000000 1.0
C      1  0.5436830000000  0.4124560000000  0.5281200000000 1.0
C      1  0.5379270000000  0.4851380000000  0.4767970000000 1.0
C      1  0.4612460000000  0.4856440000000  0.4763980000000 1.0
C      1  0.5004080000000  0.4858450000000  0.5430280000000 1.0
C      1  0.5313230000000  0.4015990000000  0.5007860000000 1.0
C      1  0.4830780000000  0.4017250000000  0.4713720000000 1.0
C      1  0.4816930000000  0.4021140000000  0.5279790000000 1.0
C      1  0.4541860000000  0.4939110000000  0.4265010000000 1.0
C      1  0.4594530000000  0.4971810000000  0.5698160000000 1.0
C      1  0.5790730000000  0.4948500000000  0.5036990000000 1.0
C      1  0.5287940000000  0.4799030000000  0.5401200000000 1.0
C      1  0.5230220000000  0.4799020000000  0.4523510000000 1.0
C      1  0.4520470000000  0.4796590000000  0.5035140000000 1.0
C      1  0.5254790000000  0.5415110000000  0.5561520000000 1.0
C      1  0.5400280000000  0.5411250000000  0.4513270000000 1.0
C      1  0.4481470000000  0.5377730000000  0.4935390000000 1.0
C      1  0.5403000000000  0.5918320000000  0.4705570000000 1.0
C      1  0.4529630000000  0.5893710000000  0.4797950000000 1.0
C      1  0.5052210000000  0.5939930000000  0.5492960000000 1.0
C      1  0.4583040000000  0.5428150000000  0.4663010000000 1.0
C      1  0.4965790000000  0.5475350000000  0.5591760000000 1.0
C      1  0.5545280000000  0.5463190000000  0.4765090000000 1.0
C      1  0.4861540000000  0.4511860000000  0.5240920000000 1.0
C      1  0.5264350000000  0.4509980000000  0.4983640000000 1.0
C      1  0.4839320000000  0.4503190000000  0.4761080000000 1.0
C      1  0.4139390000000  0.5610150000000  0.5357650000000 1.0
C      1  0.5697040000000  0.5601640000000  0.5603320000000 1.0
C      1  0.4834820000000  0.5733070000000  0.3840340000000 1.0
C      1  0.5664800000000  0.4763530000000  0.4814910000000 1.0
C      1  0.4470760000000  0.4757020000000  0.4512040000000 1.0
C      1  0.4838570000000  0.4775940000000  0.5671070000000 1.0
C      1  0.4603140000000  0.5742020000000  0.4535900000000 1.0
C      1  0.4795620000000  0.5782920000000  0.5593490000000 1.0
C      1  0.5603750000000  0.5765130000000  0.4901580000000 1.0
C      1  0.4386000000000  0.4201130000000  0.5499970000000 1.0
C      1  0.5723200000000  0.4179170000000  0.5275740000000 1.0
C      1  0.4858880000000  0.4189860000000  0.4228310000000 1.0
C      1  0.5378410000000  0.4550680000000  0.5512980000000 1.0
C      1  0.5265530000000  0.4543050000000  0.4398280000000 1.0
C      1  0.4363490000000  0.4559220000000  0.5069540000000 1.0
C      1  0.5872210000000  0.5611430000000  0.5373100000000 1.0
C      1  0.4580830000000  0.5700510000000  0.3975270000000 1.0
C      1  0.4260060000000  0.5605740000000  0.5620700000000 1.0
C      1  0.4371590000000  0.5298870000000  0.4506520000000 1.0
C      1  0.4896180000000  0.5329930000000  0.5839770000000 1.0
C      1  0.5799420000000  0.5320790000000  0.4722480000000 1.0
C      1  0.5147080000000  0.5027730000000  0.4362020000000 1.0
C      1  0.4489470000000  0.5015800000000  0.5228810000000 1.0
C      1  0.5478300000000  0.5021470000000  0.5382800000000 1.0
C      1  0.4166360000000  0.5145430000000  0.4657770000000 1.0
C      1  0.5106590000000  0.5140640000000  0.5929780000000 1.0
C      1  0.5797770000000  0.5142060000000  0.4484600000000 1.0
C      1  0.5404580000000  0.5750110000000  0.5169350000000 1.0
C      1  0.4940850000000  0.5756890000000  0.4535500000000 1.0
C      1  0.4643630000000  0.5748740000000  0.5283000000000 1.0
C      1  0.4201130000000  0.5097470000000  0.5191130000000 1.0
C      1  0.5564620000000  0.5072610000000  0.5667920000000 1.0
C      1  0.5373110000000  0.5085110000000  0.4171130000000 1.0
C      1  0.5364520000000  0.5250830000000  0.5800730000000 1.0
C      1  0.5574460000000  0.5258960000000  0.4307280000000 1.0
C      1  0.4196150000000  0.5262210000000  0.4941630000000 1.0
C      1  0.4990550000000  0.5959570000000  0.4993640000000 1.0
C      1  0.4987670000000  0.4562030000000  0.4994080000000 1.0
END
