TITL C-862129-6180-841 -0.000168500090133401 125000 -261.43071726372 0 0 53 (D2) n - 1
REM
REM in /home/nfs/bkarasulu/CARBON/AIRSS/Generating-Clusters/TERSOFF/Higher-Symm/FIRE-HFTN
REM
REM
REM
REM
REM
REM ./C.cell (b20cbc046b6831c77cfcea5457e17084)
REM AIRSS Version 0.9.1 bugfix July 2018 build 013d7b7c2542+ Fri, 06 Jul 2018 19:26:36 +0100
REM compiler GCC version 9.2.1 20190827 (Red Hat 9.2.1-1)
REM options -cpp -mtune=generic -march=x86-64 -g -O0 -fpre-include=/usr/include/finclude/math-vector-fortran.h
REM seed 564044480 153203751 621801068 -854744538 -336351683 1593981129 -1848453150 -802633738 1128119367 360306066 -467336562 -108609973 -1371403213 -1871742053 -940794124 1948391885 1335640136 1489589969 1897362803 835494158 -460476011 -1109960932 1392271404 -258438057 -1037924769 -157959362 -746910499 -135245289 738018985 -821004280 656580157 115791669 -1140738926
REM
CELL 1.54180   50.00000   50.00000   50.00000   90.00000   90.00000   90.00000
LATT -1
SFAC C  
C      1  0.5408060000000  0.5556610000000  0.4811280000000 1.0
C      1  0.4588170000000  0.5556600000000  0.5174250000000 1.0
C      1  0.5422540000000  0.4417680000000  0.4836370000000 1.0
C      1  0.4573610000000  0.4417680000000  0.5148940000000 1.0
C      1  0.4573640000000  0.5574320000000  0.4836490000000 1.0
C      1  0.5422580000000  0.5574260000000  0.5149040000000 1.0
C      1  0.4588120000000  0.4435400000000  0.4811180000000 1.0
C      1  0.5408020000000  0.4435340000000  0.5174130000000 1.0
C      1  0.4844340000000  0.5225790000000  0.5210480000000 1.0
C      1  0.5151860000000  0.5225820000000  0.4774980000000 1.0
C      1  0.4807880000000  0.4809100000000  0.5215430000000 1.0
C      1  0.5188290000000  0.4809130000000  0.4769950000000 1.0
C      1  0.5188310000000  0.5182830000000  0.5215460000000 1.0
C      1  0.4807890000000  0.5182880000000  0.4769990000000 1.0
C      1  0.5151850000000  0.4766140000000  0.5210430000000 1.0
C      1  0.4844320000000  0.4766190000000  0.4774940000000 1.0
C      1  0.5746280000000  0.5156090000000  0.5272340000000 1.0
C      1  0.4249920000000  0.5156190000000  0.4713110000000 1.0
C      1  0.5585460000000  0.4920950000000  0.5343600000000 1.0
C      1  0.4410720000000  0.4921060000000  0.4641810000000 1.0
C      1  0.4410730000000  0.5070960000000  0.5343620000000 1.0
C      1  0.5585460000000  0.5070990000000  0.4641810000000 1.0
C      1  0.4249910000000  0.4835830000000  0.5272320000000 1.0
C      1  0.5746260000000  0.4835840000000  0.4713060000000 1.0
C      1  0.5144010000000  0.5529780000000  0.4639610000000 1.0
C      1  0.4852210000000  0.5529720000000  0.5345910000000 1.0
C      1  0.5199060000000  0.4507620000000  0.4646410000000 1.0
C      1  0.4797090000000  0.4507570000000  0.5338910000000 1.0
C      1  0.4797120000000  0.5484420000000  0.4646510000000 1.0
C      1  0.5199100000000  0.5484340000000  0.5339010000000 1.0
C      1  0.4852170000000  0.4462260000000  0.4639510000000 1.0
C      1  0.5143980000000  0.4462180000000  0.5345800000000 1.0
C      1  0.5190460000000  0.5264510000000  0.5625530000000 1.0
C      1  0.4805740000000  0.5264650000000  0.4359940000000 1.0
C      1  0.5127620000000  0.4694510000000  0.5621580000000 1.0
C      1  0.4868550000000  0.4694640000000  0.4363780000000 1.0
C      1  0.4868580000000  0.5297340000000  0.5621640000000 1.0
C      1  0.5127620000000  0.5297450000000  0.4363830000000 1.0
C      1  0.4805740000000  0.4727330000000  0.5625480000000 1.0
C      1  0.5190430000000  0.4727450000000  0.4359890000000 1.0
C      1  0.4335180000000  0.4624760000000  0.5087770000000 1.0
C      1  0.5660980000000  0.4624740000000  0.4897570000000 1.0
C      1  0.4358210000000  0.5330620000000  0.5211600000000 1.0
C      1  0.5638000000000  0.5330620000000  0.4773880000000 1.0
C      1  0.5637980000000  0.4661310000000  0.5211520000000 1.0
C      1  0.4358180000000  0.4661400000000  0.4773830000000 1.0
C      1  0.5661000000000  0.5367190000000  0.5087830000000 1.0
C      1  0.4335210000000  0.5367250000000  0.4897660000000 1.0
C      1  0.5298410000000  0.4965350000000  0.5456820000000 1.0
C      1  0.4697780000000  0.5026540000000  0.5456830000000 1.0
C      1  0.5298410000000  0.5026610000000  0.4528590000000 1.0
C      1  0.4697770000000  0.4965460000000  0.4528590000000 1.0
C      1  0.4998090000000  0.4995990000000  0.4992710000000 1.0
END
