TITL C-862134-6730-1358 2.10599938012251 125000 -882.962465881692 0 0 152 (C1) n - 1
REM
REM in /home/nfs/bkarasulu/CARBON/AIRSS/Generating-Clusters/TERSOFF/Higher-Symm/FIRE-HFTN
REM
REM
REM
REM
REM
REM ./C.cell (b20cbc046b6831c77cfcea5457e17084)
REM AIRSS Version 0.9.1 bugfix July 2018 build 013d7b7c2542+ Fri, 06 Jul 2018 19:26:36 +0100
REM compiler GCC version 9.2.1 20190827 (Red Hat 9.2.1-1)
REM options -cpp -mtune=generic -march=x86-64 -g -O0 -fpre-include=/usr/include/finclude/math-vector-fortran.h
REM seed 249240382 -1219228694 -1551211170 468294279 1836143005 -1375956105 -156615610 -699687929 582420337 -349786703 1382570619 1965680182 -822634925 -368084721 -727928697 2083828158 1693328708 -1827923039 -1865507137 -990417756 -1488391660 -580354113 -109258455 1067154304 1307904545 659373340 -1244516485 1478863320 -2076711507 1771559477 -376572051 73473171 1170714920
REM
CELL 1.54180   50.00000   50.00000   50.00000   90.00000   90.00000   90.00000
LATT -1
SFAC C  
C      1  0.5372950000000  0.4464390000000  0.5461920000000 1.0
C      1  0.6103690000000  0.5359660000000  0.5209170000000 1.0
C      1  0.4597620000000  0.5432120000000  0.4201750000000 1.0
C      1  0.4943510000000  0.5743950000000  0.4825590000000 1.0
C      1  0.4588950000000  0.5007110000000  0.3988140000000 1.0
C      1  0.6046540000000  0.4917140000000  0.5483130000000 1.0
C      1  0.5798500000000  0.4999440000000  0.4586780000000 1.0
C      1  0.4229070000000  0.5582500000000  0.4827500000000 1.0
C      1  0.4976510000000  0.4946570000000  0.4138110000000 1.0
C      1  0.5757480000000  0.4810090000000  0.4858600000000 1.0
C      1  0.4617860000000  0.5160540000000  0.5601080000000 1.0
C      1  0.4783430000000  0.6082480000000  0.5084080000000 1.0
C      1  0.5096660000000  0.5111510000000  0.4374930000000 1.0
C      1  0.4145350000000  0.4966980000000  0.5786120000000 1.0
C      1  0.4628520000000  0.4318990000000  0.4479690000000 1.0
C      1  0.4512650000000  0.5480250000000  0.4797940000000 1.0
C      1  0.5106840000000  0.4801410000000  0.5151890000000 1.0
C      1  0.5927520000000  0.4639100000000  0.5414550000000 1.0
C      1  0.4203610000000  0.5494030000000  0.5812270000000 1.0
C      1  0.5561840000000  0.4826270000000  0.5327550000000 1.0
C      1  0.4762900000000  0.4843780000000  0.4914680000000 1.0
C      1  0.4919330000000  0.4351240000000  0.4875680000000 1.0
C      1  0.5886350000000  0.4514260000000  0.4914280000000 1.0
C      1  0.3981850000000  0.5122920000000  0.4694520000000 1.0
C      1  0.4628830000000  0.4158480000000  0.5679370000000 1.0
C      1  0.5504580000000  0.4682580000000  0.4733110000000 1.0
C      1  0.5460040000000  0.3993330000000  0.4990290000000 1.0
C      1  0.5971430000000  0.5239770000000  0.4575200000000 1.0
C      1  0.5136810000000  0.4103230000000  0.4536700000000 1.0
C      1  0.4155120000000  0.4267070000000  0.4934730000000 1.0
C      1  0.4830900000000  0.6167670000000  0.4806040000000 1.0
C      1  0.5254000000000  0.4503040000000  0.5861740000000 1.0
C      1  0.5074610000000  0.5959690000000  0.4397720000000 1.0
C      1  0.5139120000000  0.5255230000000  0.3776150000000 1.0
C      1  0.5621340000000  0.5019650000000  0.4107110000000 1.0
C      1  0.4683970000000  0.5402610000000  0.5184090000000 1.0
C      1  0.4838720000000  0.4152880000000  0.4662170000000 1.0
C      1  0.4729500000000  0.5675630000000  0.5293990000000 1.0
C      1  0.4271910000000  0.5775710000000  0.4583820000000 1.0
C      1  0.5058660000000  0.4190900000000  0.4049850000000 1.0
C      1  0.5392350000000  0.5805710000000  0.4321810000000 1.0
C      1  0.4919040000000  0.5526340000000  0.6187870000000 1.0
C      1  0.4780180000000  0.5122040000000  0.4775660000000 1.0
C      1  0.4443920000000  0.4862270000000  0.4947320000000 1.0
C      1  0.5541470000000  0.5286100000000  0.5914650000000 1.0
C      1  0.6306800000000  0.4480110000000  0.4601040000000 1.0
C      1  0.4296980000000  0.5689600000000  0.5116910000000 1.0
C      1  0.6174190000000  0.5079460000000  0.5272230000000 1.0
C      1  0.5071470000000  0.4344560000000  0.5368350000000 1.0
C      1  0.5626020000000  0.4303830000000  0.4940890000000 1.0
C      1  0.5359230000000  0.4656330000000  0.5222240000000 1.0
C      1  0.3972870000000  0.4991960000000  0.5248170000000 1.0
C      1  0.5611810000000  0.4178940000000  0.4646000000000 1.0
C      1  0.5374710000000  0.4425540000000  0.5038420000000 1.0
C      1  0.4895620000000  0.4621820000000  0.4777540000000 1.0
C      1  0.4087850000000  0.5249820000000  0.5692670000000 1.0
C      1  0.6402720000000  0.4752820000000  0.4586710000000 1.0
C      1  0.4024620000000  0.5346510000000  0.4880720000000 1.0
C      1  0.5855540000000  0.5444030000000  0.5074330000000 1.0
C      1  0.4554190000000  0.4641850000000  0.5833720000000 1.0
C      1  0.4461510000000  0.5162190000000  0.4207660000000 1.0
C      1  0.4564240000000  0.5843720000000  0.4494850000000 1.0
C      1  0.5862850000000  0.5520870000000  0.4570680000000 1.0
C      1  0.5524030000000  0.5991150000000  0.4549280000000 1.0
C      1  0.4869260000000  0.4569400000000  0.5234160000000 1.0
C      1  0.4685730000000  0.4483990000000  0.4214590000000 1.0
C      1  0.5290920000000  0.3927010000000  0.5219580000000 1.0
C      1  0.5148620000000  0.4975250000000  0.5933930000000 1.0
C      1  0.5276710000000  0.5363870000000  0.4716040000000 1.0
C      1  0.4766290000000  0.4771260000000  0.4299500000000 1.0
C      1  0.5368460000000  0.3970190000000  0.4677000000000 1.0
C      1  0.5957700000000  0.5059010000000  0.5719080000000 1.0
C      1  0.4853930000000  0.5312020000000  0.4975700000000 1.0
C      1  0.4982440000000  0.5688440000000  0.5110400000000 1.0
C      1  0.4547310000000  0.5878910000000  0.5166440000000 1.0
C      1  0.4446150000000  0.4393150000000  0.5705650000000 1.0
C      1  0.5279320000000  0.6044440000000  0.5241180000000 1.0
C      1  0.5602880000000  0.5543260000000  0.4407680000000 1.0
C      1  0.4987030000000  0.4410080000000  0.5934790000000 1.0
C      1  0.4202190000000  0.4413610000000  0.5472920000000 1.0
C      1  0.5362980000000  0.5781330000000  0.5351900000000 1.0
C      1  0.4800410000000  0.5898410000000  0.4295940000000 1.0
C      1  0.4118960000000  0.4483660000000  0.5147550000000 1.0
C      1  0.4464150000000  0.4909630000000  0.5724130000000 1.0
C      1  0.4797910000000  0.5493010000000  0.4405630000000 1.0
C      1  0.5025170000000  0.3806430000000  0.5201780000000 1.0
C      1  0.5669540000000  0.5539280000000  0.5958600000000 1.0
C      1  0.5284800000000  0.5473650000000  0.3909860000000 1.0
C      1  0.5618010000000  0.5758030000000  0.5786890000000 1.0
C      1  0.4879860000000  0.5121230000000  0.3887770000000 1.0
C      1  0.5687270000000  0.4503480000000  0.5570460000000 1.0
C      1  0.5427650000000  0.6161860000000  0.5023680000000 1.0
C      1  0.4596180000000  0.4446640000000  0.5126030000000 1.0
C      1  0.4010730000000  0.4764910000000  0.5061960000000 1.0
C      1  0.4352800000000  0.4033250000000  0.4891230000000 1.0
C      1  0.3940560000000  0.4629190000000  0.4577520000000 1.0
C      1  0.6036480000000  0.4403500000000  0.4671240000000 1.0
C      1  0.4656560000000  0.5634150000000  0.5590580000000 1.0
C      1  0.4657560000000  0.4020590000000  0.4901990000000 1.0
C      1  0.5244350000000  0.5553560000000  0.4189170000000 1.0
C      1  0.5409450000000  0.4757530000000  0.4473920000000 1.0
C      1  0.5292840000000  0.4562900000000  0.4272680000000 1.0
C      1  0.5451130000000  0.5306510000000  0.4487090000000 1.0
C      1  0.4021380000000  0.5275030000000  0.5172560000000 1.0
C      1  0.4489810000000  0.5237200000000  0.5321270000000 1.0
C      1  0.5356900000000  0.6134080000000  0.4745770000000 1.0
C      1  0.4448440000000  0.4274700000000  0.5302730000000 1.0
C      1  0.5079140000000  0.6111540000000  0.4649310000000 1.0
C      1  0.5124750000000  0.5730410000000  0.5794470000000 1.0
C      1  0.4775100000000  0.3955540000000  0.5170250000000 1.0
C      1  0.4879920000000  0.4165080000000  0.5822130000000 1.0
C      1  0.5370870000000  0.5765720000000  0.5643480000000 1.0
C      1  0.5352000000000  0.5322320000000  0.5023820000000 1.0
C      1  0.4949270000000  0.4643190000000  0.4500230000000 1.0
C      1  0.4904180000000  0.4437020000000  0.4005410000000 1.0
C      1  0.5229250000000  0.5558410000000  0.5196480000000 1.0
C      1  0.4377560000000  0.5686930000000  0.5671100000000 1.0
C      1  0.5028680000000  0.5467300000000  0.5914320000000 1.0
C      1  0.4450570000000  0.4563850000000  0.4902690000000 1.0
C      1  0.5299100000000  0.4782440000000  0.5783840000000 1.0
C      1  0.5123000000000  0.4280070000000  0.5066150000000 1.0
C      1  0.4914260000000  0.4882150000000  0.6070910000000 1.0
C      1  0.4063310000000  0.4710820000000  0.5546610000000 1.0
C      1  0.4391280000000  0.4970310000000  0.5219860000000 1.0
C      1  0.4597200000000  0.4034730000000  0.5404590000000 1.0
C      1  0.5636920000000  0.5250970000000  0.5085110000000 1.0
C      1  0.4056680000000  0.4905170000000  0.6060260000000 1.0
C      1  0.4345150000000  0.4807660000000  0.5453080000000 1.0
C      1  0.5218300000000  0.4249090000000  0.4292180000000 1.0
C      1  0.5523580000000  0.4886530000000  0.5623250000000 1.0
C      1  0.4356210000000  0.5041130000000  0.4448890000000 1.0
C      1  0.5867440000000  0.5624950000000  0.4844390000000 1.0
C      1  0.4723930000000  0.5632940000000  0.4659840000000 1.0
C      1  0.4403740000000  0.4429080000000  0.4637800000000 1.0
C      1  0.4246600000000  0.5430030000000  0.5297170000000 1.0
C      1  0.5702420000000  0.4971360000000  0.5115840000000 1.0
C      1  0.4736240000000  0.5397650000000  0.3942050000000 1.0
C      1  0.5679010000000  0.5079230000000  0.5759480000000 1.0
C      1  0.4775770000000  0.5400630000000  0.5728440000000 1.0
C      1  0.5102300000000  0.4672260000000  0.4067870000000 1.0
C      1  0.4472100000000  0.5071120000000  0.4713850000000 1.0
C      1  0.3970420000000  0.4836890000000  0.4775460000000 1.0
C      1  0.4999830000000  0.6128310000000  0.5278920000000 1.0
C      1  0.5875970000000  0.4210600000000  0.4516710000000 1.0
C      1  0.5040060000000  0.5022710000000  0.4655070000000 1.0
C      1  0.6027070000000  0.4511250000000  0.5172960000000 1.0
C      1  0.4794960000000  0.4628580000000  0.5995880000000 1.0
C      1  0.5238220000000  0.5248450000000  0.5940140000000 1.0
C      1  0.5164880000000  0.5031200000000  0.4946460000000 1.0
C      1  0.5551060000000  0.5018280000000  0.4395620000000 1.0
C      1  0.5064300000000  0.5398400000000  0.4351970000000 1.0
C      1  0.4137310000000  0.4428270000000  0.4525360000000 1.0
END
