TITL C-862127-1500-509 0.000534558277404784 125000 -680.860835987866 0 0 124 (C1) n - 1
REM
REM in /home/nfs/bkarasulu/CARBON/AIRSS/Generating-Clusters/TERSOFF/Higher-Symm/FIRE-HFTN
REM
REM
REM
REM
REM
REM ./C.cell (b20cbc046b6831c77cfcea5457e17084)
REM AIRSS Version 0.9.1 bugfix July 2018 build 013d7b7c2542+ Fri, 06 Jul 2018 19:26:36 +0100
REM compiler GCC version 9.2.1 20190827 (Red Hat 9.2.1-1)
REM options -cpp -mtune=generic -march=x86-64 -g -O0 -fpre-include=/usr/include/finclude/math-vector-fortran.h
REM seed 289578512 -736304767 -193895214 -657038468 2065560202 606078087 -2104511591 -1658260386 -1237009354 -42134358 -865701189 1650129524 91894153 -1067735974 -1502941321 1910218974 405262400 -1616953756 660215274 -1216437543 150126589 -313672084 -1970586474 -697781451 -855275841 1332330022 594759272 1037795140 1347113261 -84379602 -1067185177 2140781332 356492231
REM
CELL 1.54180   50.00000   50.00000   50.00000   90.00000   90.00000   90.00000
LATT -1
SFAC C  
C      1  0.5535250000000  0.5219790000000  0.5652560000000 1.0
C      1  0.5373370000000  0.4568780000000  0.5655330000000 1.0
C      1  0.4698550000000  0.4526730000000  0.5637840000000 1.0
C      1  0.4448990000000  0.5134900000000  0.5637570000000 1.0
C      1  0.4955790000000  0.5570190000000  0.5650390000000 1.0
C      1  0.4660410000000  0.3967720000000  0.5284440000000 1.0
C      1  0.3897040000000  0.5032970000000  0.5279800000000 1.0
C      1  0.4667700000000  0.6042760000000  0.5288150000000 1.0
C      1  0.5891210000000  0.5640300000000  0.5280600000000 1.0
C      1  0.5882130000000  0.4354600000000  0.5287250000000 1.0
C      1  0.5065470000000  0.5552100000000  0.4698500000000 1.0
C      1  0.5549250000000  0.5109760000000  0.4688510000000 1.0
C      1  0.5273940000000  0.4513290000000  0.4691280000000 1.0
C      1  0.4620340000000  0.4600070000000  0.4703250000000 1.0
C      1  0.4492460000000  0.5234990000000  0.4698210000000 1.0
C      1  0.5302530000000  0.4432890000000  0.4360770000000 1.0
C      1  0.4550820000000  0.4539900000000  0.4370120000000 1.0
C      1  0.4414380000000  0.5285950000000  0.4368100000000 1.0
C      1  0.5086720000000  0.5641830000000  0.4366250000000 1.0
C      1  0.5634930000000  0.5115900000000  0.4357860000000 1.0
C      1  0.5522330000000  0.5461720000000  0.5038040000000 1.0
C      1  0.5596270000000  0.4651930000000  0.5042280000000 1.0
C      1  0.4860020000000  0.4332590000000  0.5042680000000 1.0
C      1  0.4275060000000  0.4956030000000  0.5011600000000 1.0
C      1  0.4720290000000  0.5628370000000  0.5046530000000 1.0
C      1  0.4570650000000  0.4909210000000  0.5304980000000 1.0
C      1  0.4839390000000  0.5260950000000  0.5342450000000 1.0
C      1  0.5258580000000  0.5261380000000  0.5339520000000 1.0
C      1  0.5342570000000  0.4850650000000  0.5345580000000 1.0
C      1  0.4954550000000  0.4691950000000  0.5348760000000 1.0
C      1  0.4090890000000  0.5358890000000  0.4960220000000 1.0
C      1  0.5026820000000  0.5951320000000  0.4963380000000 1.0
C      1  0.5930350000000  0.5265900000000  0.4958790000000 1.0
C      1  0.5536820000000  0.4203250000000  0.4967900000000 1.0
C      1  0.4418380000000  0.4243010000000  0.4956160000000 1.0
C      1  0.5041380000000  0.5260450000000  0.4909590000000 1.0
C      1  0.5268990000000  0.5039730000000  0.4905370000000 1.0
C      1  0.5125400000000  0.4757170000000  0.4910970000000 1.0
C      1  0.4809970000000  0.4805720000000  0.4918020000000 1.0
C      1  0.4755430000000  0.5116440000000  0.4913660000000 1.0
C      1  0.6023670000000  0.5097020000000  0.4740930000000 1.0
C      1  0.5406880000000  0.4057400000000  0.4752150000000 1.0
C      1  0.4239240000000  0.4320060000000  0.4738800000000 1.0
C      1  0.4116940000000  0.5546140000000  0.4739760000000 1.0
C      1  0.5222080000000  0.5997640000000  0.4752740000000 1.0
C      1  0.5823020000000  0.4662360000000  0.5245470000000 1.0
C      1  0.4936540000000  0.4118790000000  0.5245260000000 1.0
C      1  0.4114940000000  0.4804470000000  0.5232540000000 1.0
C      1  0.4534110000000  0.5760260000000  0.5247810000000 1.0
C      1  0.5578110000000  0.5680440000000  0.5241710000000 1.0
C      1  0.5531770000000  0.4883670000000  0.4182780000000 1.0
C      1  0.5048140000000  0.4457450000000  0.4188030000000 1.0
C      1  0.4492980000000  0.4785680000000  0.4192310000000 1.0
C      1  0.4632780000000  0.5415150000000  0.4191310000000 1.0
C      1  0.5275650000000  0.5475370000000  0.4186720000000 1.0
C      1  0.4375300000000  0.5645070000000  0.4651080000000 1.0
C      1  0.5405630000000  0.5795010000000  0.4657480000000 1.0
C      1  0.5883240000000  0.4857550000000  0.4653510000000 1.0
C      1  0.5138300000000  0.4117120000000  0.4659220000000 1.0
C      1  0.4204620000000  0.4593440000000  0.4644050000000 1.0
C      1  0.4641740000000  0.4977830000000  0.4536080000000 1.0
C      1  0.4861590000000  0.5335460000000  0.4540350000000 1.0
C      1  0.5276110000000  0.5235290000000  0.4536490000000 1.0
C      1  0.5305920000000  0.4811600000000  0.4538150000000 1.0
C      1  0.4914140000000  0.4653690000000  0.4543080000000 1.0
C      1  0.5295870000000  0.4942360000000  0.4015110000000 1.0
C      1  0.5029760000000  0.4698210000000  0.4017860000000 1.0
C      1  0.4715630000000  0.4876230000000  0.4020850000000 1.0
C      1  0.4787240000000  0.5230120000000  0.4020550000000 1.0
C      1  0.5146030000000  0.5270990000000  0.4017310000000 1.0
C      1  0.5387690000000  0.5691410000000  0.5480100000000 1.0
C      1  0.5779660000000  0.4848150000000  0.5482660000000 1.0
C      1  0.5093040000000  0.4220210000000  0.5484910000000 1.0
C      1  0.4266060000000  0.4672820000000  0.5470710000000 1.0
C      1  0.4460880000000  0.5587270000000  0.5485580000000 1.0
C      1  0.5688690000000  0.5195730000000  0.5131200000000 1.0
C      1  0.5391080000000  0.4410460000000  0.5143080000000 1.0
C      1  0.4574210000000  0.4442340000000  0.5130350000000 1.0
C      1  0.4335120000000  0.5270520000000  0.5127270000000 1.0
C      1  0.5021600000000  0.5697460000000  0.5142290000000 1.0
C      1  0.4677690000000  0.5519370000000  0.5684810000000 1.0
C      1  0.5392900000000  0.5464750000000  0.5681510000000 1.0
C      1  0.5571380000000  0.4772390000000  0.5688770000000 1.0
C      1  0.4953110000000  0.4405600000000  0.5678470000000 1.0
C      1  0.4390180000000  0.4855880000000  0.5680110000000 1.0
C      1  0.4696020000000  0.4800020000000  0.5760100000000 1.0
C      1  0.4706190000000  0.5219780000000  0.5761660000000 1.0
C      1  0.5118980000000  0.5351850000000  0.5767320000000 1.0
C      1  0.5371470000000  0.4997690000000  0.5772580000000 1.0
C      1  0.5111590000000  0.4653330000000  0.5768990000000 1.0
C      1  0.4899280000000  0.6014750000000  0.5478800000000 1.0
C      1  0.5936550000000  0.5415180000000  0.5475150000000 1.0
C      1  0.5682610000000  0.4242580000000  0.5482680000000 1.0
C      1  0.4487380000000  0.4126930000000  0.5473720000000 1.0
C      1  0.4003780000000  0.5232710000000  0.5476990000000 1.0
C      1  0.4292390000000  0.5320300000000  0.5443320000000 1.0
C      1  0.5074750000000  0.5768540000000  0.5445880000000 1.0
C      1  0.5760910000000  0.5167540000000  0.5443760000000 1.0
C      1  0.5393490000000  0.4334190000000  0.5453040000000 1.0
C      1  0.4483560000000  0.4429870000000  0.5436010000000 1.0
C      1  0.6024990000000  0.5539080000000  0.5025040000000 1.0
C      1  0.5825260000000  0.4196750000000  0.5033490000000 1.0
C      1  0.4496740000000  0.3966290000000  0.5027270000000 1.0
C      1  0.3852230000000  0.5198290000000  0.5028610000000 1.0
C      1  0.4803630000000  0.6132230000000  0.5032340000000 1.0
C      1  0.4792580000000  0.5654680000000  0.4276310000000 1.0
C      1  0.5554270000000  0.5398630000000  0.4267540000000 1.0
C      1  0.5545370000000  0.4596640000000  0.4267870000000 1.0
C      1  0.4779880000000  0.4357480000000  0.4277320000000 1.0
C      1  0.4313110000000  0.5010370000000  0.4276600000000 1.0
C      1  0.4984410000000  0.4365100000000  0.4757370000000 1.0
C      1  0.4378680000000  0.4829130000000  0.4742110000000 1.0
C      1  0.4638090000000  0.5526840000000  0.4758570000000 1.0
C      1  0.5390790000000  0.5505120000000  0.4755430000000 1.0
C      1  0.5600080000000  0.4785490000000  0.4755170000000 1.0
C      1  0.4714840000000  0.4700970000000  0.5182670000000 1.0
C      1  0.4616450000000  0.5163920000000  0.5179380000000 1.0
C      1  0.5052000000000  0.5402090000000  0.5169560000000 1.0
C      1  0.5418900000000  0.5073640000000  0.5160060000000 1.0
C      1  0.5197950000000  0.4640000000000  0.5174140000000 1.0
C      1  0.5000860000000  0.5003050000000  0.4508520000000 1.0
C      1  0.5002480000000  0.5003680000000  0.5782840000000 1.0
C      1  0.5044050000000  0.5006010000000  0.5479230000000 1.0
C      1  0.4997130000000  0.5003360000000  0.4195760000000 1.0
END
