TITL C-862127-1500-530 7.6163578089208e-07 125000 -77.3756715000482 0 0 14 (C3v) n - 1
REM
REM in /home/nfs/bkarasulu/CARBON/AIRSS/Generating-Clusters/TERSOFF/Higher-Symm/FIRE-HFTN
REM
REM
REM
REM
REM
REM ./C.cell (b20cbc046b6831c77cfcea5457e17084)
REM AIRSS Version 0.9.1 bugfix July 2018 build 013d7b7c2542+ Fri, 06 Jul 2018 19:26:36 +0100
REM compiler GCC version 9.2.1 20190827 (Red Hat 9.2.1-1)
REM options -cpp -mtune=generic -march=x86-64 -g -O0 -fpre-include=/usr/include/finclude/math-vector-fortran.h
REM seed 1920878172 573909545 -1937555056 1053795301 816465885 1009984743 -369509286 -2121389106 -1100367381 -230532937 -1627258046 1954915186 -277345041 392754698 44156092 -638672699 1590913473 2084682347 1614399331 -139149233 72765947 -741119369 1478666759 -1464985630 1327080621 -2120719546 -283026529 -464774230 -1091270173 -868818072 -1584959214 497158758 1890462893
REM
CELL 1.54180   50.00000   50.00000   50.00000   90.00000   90.00000   90.00000
LATT -1
SFAC C  
C      1  0.5084300000000  0.4875120000000  0.5521920000000 1.0
C      1  0.5084300000000  0.4666160000000  0.4679960000000 1.0
C      1  0.5084300000000  0.5499800000000  0.4919980000000 1.0
C      1  0.5084300000000  0.4526100000000  0.5155110000000 1.0
C      1  0.5084300000000  0.5158340000000  0.4561110000000 1.0
C      1  0.5084300000000  0.5356640000000  0.5405640000000 1.0
C      1  0.5109230000000  0.4460590000000  0.4877580000000 1.0
C      1  0.5109230000000  0.5431440000000  0.4643140000000 1.0
C      1  0.5109230000000  0.5149050000000  0.5601140000000 1.0
C      1  0.5033800000000  0.4943700000000  0.4750780000000 1.0
C      1  0.5033800000000  0.5299700000000  0.5124930000000 1.0
C      1  0.5033800000000  0.4797680000000  0.5246150000000 1.0
C      1  0.4939680000000  0.5013690000000  0.5040620000000 1.0
C      1  0.4639200000000  0.5013690000000  0.5040620000000 1.0
END
