TITL C-862500-986-50 8.89818768113945e-05 125000 -84.9894144680635 0 0 17 (C3) n - 1
REM
REM in /home/nfs/bkarasulu/CARBON/AIRSS/Generating-Clusters/TERSOFF/Higher-Symm/FIRE-HFTN
REM
REM
REM
REM
REM
REM ./C.cell (b20cbc046b6831c77cfcea5457e17084)
REM AIRSS Version 0.9.1 bugfix July 2018 build 013d7b7c2542+ Fri, 06 Jul 2018 19:26:36 +0100
REM compiler GCC version 9.2.1 20190827 (Red Hat 9.2.1-1)
REM options -cpp -mtune=generic -march=x86-64 -g -O0 -fpre-include=/usr/include/finclude/math-vector-fortran.h
REM seed 1698624737 1523862601 -1498555442 -234805685 -431598718 23870893 -461304050 1660463231 33771049 1525068949 -454334697 5427336 -1925499264 2119638526 1431955274 -698924546 -1832123058 -835316468 590076113 715101592 2113794716 -383474806 818404846 525427198 311953303 2142760025 825464198 -401733862 -213674601 -631292942 1688768201 -933904917 -522473248
REM
CELL 1.54180   50.00000   50.00000   50.00000   90.00000   90.00000   90.00000
LATT -1
SFAC C  
C      1  0.4793150000000  0.5505580000000  0.4787310000000 1.0
C      1  0.4711930000000  0.4608270000000  0.4787310000000 1.0
C      1  0.5529630000000  0.4986580000000  0.4787310000000 1.0
C      1  0.5684380000000  0.4744480000000  0.4752480000000 1.0
C      1  0.4925440000000  0.5760650000000  0.4752480000000 1.0
C      1  0.4424880000000  0.4595300000000  0.4752480000000 1.0
C      1  0.4849930000000  0.4804100000000  0.4949860000000 1.0
C      1  0.5291040000000  0.5008180000000  0.4949860000000 1.0
C      1  0.4893740000000  0.5288150000000  0.4949860000000 1.0
C      1  0.4893740000000  0.5288150000000  0.5246560000000 1.0
C      1  0.4849930000000  0.4804100000000  0.5246560000000 1.0
C      1  0.5291040000000  0.5008180000000  0.5246560000000 1.0
C      1  0.5529630000000  0.4986580000000  0.5409120000000 1.0
C      1  0.4793150000000  0.5505580000000  0.5409120000000 1.0
C      1  0.4711930000000  0.4608270000000  0.5409120000000 1.0
C      1  0.5011570000000  0.5033480000000  0.5358180000000 1.0
C      1  0.5011570000000  0.5033480000000  0.4838250000000 1.0
END
