TITL C-862502-1143-167 0.000192373570983941 125000 -940.511101904719 0 0 168 (C6) n - 1
REM
REM in /home/nfs/bkarasulu/CARBON/AIRSS/Generating-Clusters/TERSOFF/Higher-Symm/FIRE-HFTN
REM
REM
REM
REM
REM
REM ./C.cell (b20cbc046b6831c77cfcea5457e17084)
REM AIRSS Version 0.9.1 bugfix July 2018 build 013d7b7c2542+ Fri, 06 Jul 2018 19:26:36 +0100
REM compiler GCC version 9.2.1 20190827 (Red Hat 9.2.1-1)
REM options -cpp -mtune=generic -march=x86-64 -g -O0 -fpre-include=/usr/include/finclude/math-vector-fortran.h
REM seed -1196621277 138461396 1138101511 -399803421 -730422515 1731641571 849735042 1566869418 1968602118 -537889325 -1620257028 835591683 -304294378 1982224575 1623948888 -1362056646 232773437 -1953657787 -542717883 -1860920716 -1565123822 -472486359 64493747 2089544243 -1761316771 1664628736 -926208305 -1795535718 64579586 -594461794 1057906040 -1495756629 -2121440772
REM
CELL 1.54180   50.00000   50.00000   50.00000   90.00000   90.00000   90.00000
LATT -1
SFAC C  
C      1  0.5406790000000  0.5958250000000  0.4871170000000 1.0
C      1  0.4373530000000  0.5831410000000  0.4871170000000 1.0
C      1  0.3966740000000  0.4873160000000  0.4871170000000 1.0
C      1  0.4593210000000  0.4041750000000  0.4871170000000 1.0
C      1  0.5626470000000  0.4168590000000  0.4871170000000 1.0
C      1  0.6033260000000  0.5126840000000  0.4871170000000 1.0
C      1  0.4593210000000  0.5958250000000  0.5128830000000 1.0
C      1  0.5626470000000  0.5831410000000  0.5128830000000 1.0
C      1  0.6033260000000  0.4873160000000  0.5128830000000 1.0
C      1  0.5406790000000  0.4041750000000  0.5128830000000 1.0
C      1  0.4373530000000  0.4168590000000  0.5128830000000 1.0
C      1  0.3966740000000  0.5126840000000  0.5128830000000 1.0
C      1  0.5278020000000  0.3892460000000  0.5375510000000 1.0
C      1  0.6098170000000  0.4687000000000  0.5375510000000 1.0
C      1  0.5820150000000  0.5794540000000  0.5375510000000 1.0
C      1  0.4721980000000  0.6107540000000  0.5375510000000 1.0
C      1  0.3901830000000  0.5313000000000  0.5375510000000 1.0
C      1  0.4179850000000  0.4205460000000  0.5375510000000 1.0
C      1  0.4721980000000  0.3892460000000  0.4624490000000 1.0
C      1  0.3901830000000  0.4687000000000  0.4624490000000 1.0
C      1  0.4179850000000  0.5794540000000  0.4624490000000 1.0
C      1  0.5278020000000  0.6107540000000  0.4624490000000 1.0
C      1  0.6098170000000  0.5313000000000  0.4624490000000 1.0
C      1  0.5820150000000  0.4205460000000  0.4624490000000 1.0
C      1  0.5539740000000  0.4638980000000  0.4726270000000 1.0
C      1  0.5582520000000  0.5286920000000  0.4726270000000 1.0
C      1  0.5042780000000  0.5647940000000  0.4726270000000 1.0
C      1  0.4460260000000  0.5361020000000  0.4726270000000 1.0
C      1  0.4417480000000  0.4713080000000  0.4726270000000 1.0
C      1  0.4957220000000  0.4352060000000  0.4726270000000 1.0
C      1  0.4460260000000  0.4638980000000  0.5273730000000 1.0
C      1  0.4417480000000  0.5286920000000  0.5273730000000 1.0
C      1  0.4957220000000  0.5647940000000  0.5273730000000 1.0
C      1  0.5539740000000  0.5361020000000  0.5273730000000 1.0
C      1  0.5582520000000  0.4713080000000  0.5273730000000 1.0
C      1  0.5042780000000  0.4352060000000  0.5273730000000 1.0
C      1  0.4672570000000  0.5598220000000  0.5641850000000 1.0
C      1  0.4318210000000  0.5015550000000  0.5641850000000 1.0
C      1  0.4645640000000  0.4417320000000  0.5641850000000 1.0
C      1  0.5327430000000  0.4401780000000  0.5641850000000 1.0
C      1  0.5681790000000  0.4984450000000  0.5641850000000 1.0
C      1  0.5354360000000  0.5582680000000  0.5641850000000 1.0
C      1  0.5327430000000  0.5598220000000  0.4358150000000 1.0
C      1  0.5681790000000  0.5015550000000  0.4358150000000 1.0
C      1  0.5354360000000  0.4417320000000  0.4358150000000 1.0
C      1  0.4672570000000  0.4401780000000  0.4358150000000 1.0
C      1  0.4318210000000  0.4984450000000  0.4358150000000 1.0
C      1  0.4645640000000  0.5582680000000  0.4358150000000 1.0
C      1  0.4882880000000  0.4266240000000  0.4192120000000 1.0
C      1  0.5576900000000  0.4531700000000  0.4192120000000 1.0
C      1  0.5694010000000  0.5265450000000  0.4192120000000 1.0
C      1  0.5117120000000  0.5733760000000  0.4192120000000 1.0
C      1  0.4423100000000  0.5468300000000  0.4192120000000 1.0
C      1  0.4305990000000  0.4734550000000  0.4192120000000 1.0
C      1  0.5117120000000  0.4266240000000  0.5807880000000 1.0
C      1  0.4423100000000  0.4531700000000  0.5807880000000 1.0
C      1  0.4305990000000  0.5265450000000  0.5807880000000 1.0
C      1  0.4882880000000  0.5733760000000  0.5807880000000 1.0
C      1  0.5576900000000  0.5468300000000  0.5807880000000 1.0
C      1  0.5694010000000  0.4734550000000  0.5807880000000 1.0
C      1  0.4815380000000  0.4702480000000  0.5568290000000 1.0
C      1  0.5165350000000  0.4691360000000  0.5568290000000 1.0
C      1  0.5349970000000  0.4988870000000  0.5568290000000 1.0
C      1  0.5184620000000  0.5297520000000  0.5568290000000 1.0
C      1  0.4834650000000  0.5308640000000  0.5568290000000 1.0
C      1  0.4650030000000  0.5011130000000  0.5568290000000 1.0
C      1  0.5184620000000  0.4702480000000  0.4431710000000 1.0
C      1  0.4834650000000  0.4691360000000  0.4431710000000 1.0
C      1  0.4650030000000  0.4988870000000  0.4431710000000 1.0
C      1  0.4815380000000  0.5297520000000  0.4431710000000 1.0
C      1  0.5165350000000  0.5308640000000  0.4431710000000 1.0
C      1  0.5349970000000  0.5011130000000  0.4431710000000 1.0
C      1  0.5403760000000  0.5816620000000  0.5413400000000 1.0
C      1  0.4494670000000  0.5757980000000  0.5413400000000 1.0
C      1  0.4090900000000  0.4941360000000  0.5413400000000 1.0
C      1  0.4596240000000  0.4183380000000  0.5413400000000 1.0
C      1  0.5505330000000  0.4242020000000  0.5413400000000 1.0
C      1  0.5909100000000  0.5058640000000  0.5413400000000 1.0
C      1  0.4596240000000  0.5816620000000  0.4586600000000 1.0
C      1  0.5505330000000  0.5757980000000  0.4586600000000 1.0
C      1  0.5909100000000  0.4941360000000  0.4586600000000 1.0
C      1  0.5403760000000  0.4183380000000  0.4586600000000 1.0
C      1  0.4494670000000  0.4242020000000  0.4586600000000 1.0
C      1  0.4090900000000  0.5058640000000  0.4586600000000 1.0
C      1  0.4868310000000  0.5264540000000  0.4743550000000 1.0
C      1  0.4705060000000  0.5018230000000  0.4743550000000 1.0
C      1  0.4836740000000  0.4753690000000  0.4743550000000 1.0
C      1  0.5131690000000  0.4735460000000  0.4743550000000 1.0
C      1  0.5294940000000  0.4981770000000  0.4743550000000 1.0
C      1  0.5163260000000  0.5246310000000  0.4743550000000 1.0
C      1  0.5131690000000  0.5264540000000  0.5256450000000 1.0
C      1  0.5294940000000  0.5018230000000  0.5256450000000 1.0
C      1  0.5163260000000  0.4753690000000  0.5256450000000 1.0
C      1  0.4868310000000  0.4735460000000  0.5256450000000 1.0
C      1  0.4705060000000  0.4981770000000  0.5256450000000 1.0
C      1  0.4836740000000  0.5246310000000  0.5256450000000 1.0
C      1  0.5064230000000  0.5298520000000  0.5977060000000 1.0
C      1  0.4773590000000  0.5204890000000  0.5977060000000 1.0
C      1  0.4709360000000  0.4906370000000  0.5977060000000 1.0
C      1  0.4935770000000  0.4701480000000  0.5977060000000 1.0
C      1  0.5226410000000  0.4795110000000  0.5977060000000 1.0
C      1  0.5290640000000  0.5093630000000  0.5977060000000 1.0
C      1  0.4935770000000  0.5298520000000  0.4022940000000 1.0
C      1  0.5226410000000  0.5204890000000  0.4022940000000 1.0
C      1  0.5290640000000  0.4906370000000  0.4022940000000 1.0
C      1  0.5064230000000  0.4701480000000  0.4022940000000 1.0
C      1  0.4773590000000  0.4795110000000  0.4022940000000 1.0
C      1  0.4709360000000  0.5093630000000  0.4022940000000 1.0
C      1  0.4237580000000  0.5512820000000  0.4564790000000 1.0
C      1  0.4174670000000  0.4596130000000  0.4564790000000 1.0
C      1  0.4937090000000  0.4083310000000  0.4564790000000 1.0
C      1  0.5762420000000  0.4487180000000  0.4564790000000 1.0
C      1  0.5825330000000  0.5403870000000  0.4564790000000 1.0
C      1  0.5062910000000  0.5916690000000  0.4564790000000 1.0
C      1  0.5762420000000  0.5512820000000  0.5435210000000 1.0
C      1  0.5825330000000  0.4596130000000  0.5435210000000 1.0
C      1  0.5062910000000  0.4083310000000  0.5435210000000 1.0
C      1  0.4237580000000  0.4487180000000  0.5435210000000 1.0
C      1  0.4174670000000  0.5403870000000  0.5435210000000 1.0
C      1  0.4937090000000  0.5916690000000  0.5435210000000 1.0
C      1  0.5964450000000  0.5334590000000  0.5344170000000 1.0
C      1  0.5192460000000  0.6002540000000  0.5344170000000 1.0
C      1  0.4228010000000  0.5667940000000  0.5344170000000 1.0
C      1  0.4035550000000  0.4665410000000  0.5344170000000 1.0
C      1  0.4807540000000  0.3997460000000  0.5344170000000 1.0
C      1  0.5771990000000  0.4332060000000  0.5344170000000 1.0
C      1  0.4035550000000  0.5334590000000  0.4655830000000 1.0
C      1  0.4807540000000  0.6002540000000  0.4655830000000 1.0
C      1  0.5771990000000  0.5667940000000  0.4655830000000 1.0
C      1  0.5964450000000  0.4665410000000  0.4655830000000 1.0
C      1  0.5192460000000  0.3997460000000  0.4655830000000 1.0
C      1  0.4228010000000  0.4332060000000  0.4655830000000 1.0
C      1  0.4556000000000  0.4603850000000  0.4130530000000 1.0
C      1  0.5121080000000  0.4417410000000  0.4130530000000 1.0
C      1  0.5565070000000  0.4813560000000  0.4130530000000 1.0
C      1  0.5444000000000  0.5396150000000  0.4130530000000 1.0
C      1  0.4878920000000  0.5582590000000  0.4130530000000 1.0
C      1  0.4434930000000  0.5186440000000  0.4130530000000 1.0
C      1  0.5444000000000  0.4603850000000  0.5869470000000 1.0
C      1  0.4878920000000  0.4417410000000  0.5869470000000 1.0
C      1  0.4434930000000  0.4813560000000  0.5869470000000 1.0
C      1  0.4556000000000  0.5396150000000  0.5869470000000 1.0
C      1  0.5121080000000  0.5582590000000  0.5869470000000 1.0
C      1  0.5565070000000  0.5186440000000  0.5869470000000 1.0
C      1  0.4850770000000  0.3963760000000  0.5054090000000 1.0
C      1  0.5822800000000  0.4352640000000  0.5054090000000 1.0
C      1  0.5972030000000  0.5388880000000  0.5054090000000 1.0
C      1  0.5149230000000  0.6036240000000  0.5054090000000 1.0
C      1  0.4177200000000  0.5647360000000  0.5054090000000 1.0
C      1  0.4027970000000  0.4611120000000  0.5054090000000 1.0
C      1  0.5149230000000  0.3963760000000  0.4945910000000 1.0
C      1  0.4177200000000  0.4352640000000  0.4945910000000 1.0
C      1  0.4027970000000  0.5388880000000  0.4945910000000 1.0
C      1  0.4850770000000  0.6036240000000  0.4945910000000 1.0
C      1  0.5822800000000  0.5647360000000  0.4945910000000 1.0
C      1  0.5972030000000  0.4611120000000  0.4945910000000 1.0
C      1  0.4728130000000  0.4482860000000  0.5151140000000 1.0
C      1  0.5311920000000  0.4505980000000  0.5151140000000 1.0
C      1  0.5583790000000  0.5023130000000  0.5151140000000 1.0
C      1  0.5271870000000  0.5517140000000  0.5151140000000 1.0
C      1  0.4688080000000  0.5494020000000  0.5151140000000 1.0
C      1  0.4416210000000  0.4976870000000  0.5151140000000 1.0
C      1  0.5271870000000  0.4482860000000  0.4848860000000 1.0
C      1  0.4688080000000  0.4505980000000  0.4848860000000 1.0
C      1  0.4416210000000  0.5023130000000  0.4848860000000 1.0
C      1  0.4728130000000  0.5517140000000  0.4848860000000 1.0
C      1  0.5311920000000  0.5494020000000  0.4848860000000 1.0
C      1  0.5583790000000  0.4976870000000  0.4848860000000 1.0
END
