TITL C-862128-1543-1448 35.9074283645265 125000 -974.888777149012 0 0 187 (C2) n - 1
REM
REM in /home/nfs/bkarasulu/CARBON/AIRSS/Generating-Clusters/TERSOFF/Higher-Symm/FIRE-HFTN
REM
REM
REM
REM
REM
REM ./C.cell (b20cbc046b6831c77cfcea5457e17084)
REM AIRSS Version 0.9.1 bugfix July 2018 build 013d7b7c2542+ Fri, 06 Jul 2018 19:26:36 +0100
REM compiler GCC version 9.2.1 20190827 (Red Hat 9.2.1-1)
REM options -cpp -mtune=generic -march=x86-64 -g -O0 -fpre-include=/usr/include/finclude/math-vector-fortran.h
REM seed -1346497031 -565085414 -1206202059 730031473 477958414 -1519346756 313589036 722328994 -941147781 1416619152 1599380654 -10680663 -1966497446 1265779488 -712420177 1835588454 1675337378 1540372050 -487630555 1001564098 -1952543396 -28013306 147019100 312893393 1025936897 -234179312 544346482 388113534 9928982 -24825189 -1655978186 519536332 -1880599851
REM
CELL 1.54180   50.00000   50.00000   50.00000   90.00000   90.00000   90.00000
LATT -1
SFAC C  
C      1  0.4645780000000  0.4072630000000  0.5207590000000 1.0
C      1  0.5357270000000  0.4067600000000  0.4791360000000 1.0
C      1  0.4645790000000  0.5918930000000  0.4793030000000 1.0
C      1  0.5357270000000  0.5923960000000  0.5209260000000 1.0
C      1  0.3953280000000  0.5090890000000  0.5578670000000 1.0
C      1  0.6048800000000  0.5091540000000  0.4422400000000 1.0
C      1  0.3953270000000  0.4900670000000  0.4421950000000 1.0
C      1  0.6048800000000  0.4900020000000  0.5578220000000 1.0
C      1  0.4348500000000  0.4995630000000  0.5141100000000 1.0
C      1  0.5650840000000  0.4995650000000  0.4859230000000 1.0
C      1  0.4348500000000  0.4995930000000  0.4859520000000 1.0
C      1  0.5650840000000  0.4995920000000  0.5141390000000 1.0
C      1  0.5594300000000  0.5385080000000  0.4549130000000 1.0
C      1  0.4405790000000  0.5384730000000  0.5451060000000 1.0
C      1  0.5594300000000  0.4606480000000  0.5451490000000 1.0
C      1  0.4405790000000  0.4606830000000  0.4549560000000 1.0
C      1  0.5674180000000  0.5579880000000  0.5845930000000 1.0
C      1  0.4324470000000  0.5581870000000  0.4156200000000 1.0
C      1  0.5674170000000  0.4411680000000  0.4154690000000 1.0
C      1  0.4324470000000  0.4409690000000  0.5844420000000 1.0
C      1  0.4449870000000  0.5926340000000  0.5508310000000 1.0
C      1  0.5550350000000  0.5926320000000  0.4491990000000 1.0
C      1  0.4449870000000  0.4065230000000  0.4492310000000 1.0
C      1  0.5550340000000  0.4065240000000  0.5508620000000 1.0
C      1  0.4715210000000  0.4999920000000  0.3937480000000 1.0
C      1  0.5284880000000  0.5000480000000  0.6072360000000 1.0
C      1  0.4715220000000  0.4991640000000  0.6063140000000 1.0
C      1  0.5284870000000  0.4991080000000  0.3928260000000 1.0
C      1  0.5632440000000  0.4693470000000  0.5990880000000 1.0
C      1  0.4372100000000  0.4694230000000  0.4010370000000 1.0
C      1  0.5632440000000  0.5298090000000  0.4009740000000 1.0
C      1  0.4372100000000  0.5297330000000  0.5990250000000 1.0
C      1  0.4023090000000  0.4707690000000  0.4888490000000 1.0
C      1  0.5976690000000  0.4707510000000  0.5112020000000 1.0
C      1  0.4023090000000  0.5283870000000  0.5112130000000 1.0
C      1  0.5976690000000  0.5284050000000  0.4888590000000 1.0
C      1  0.4648090000000  0.4435020000000  0.4491860000000 1.0
C      1  0.5351710000000  0.4434820000000  0.5509400000000 1.0
C      1  0.4648100000000  0.5556540000000  0.5508750000000 1.0
C      1  0.5351710000000  0.5556740000000  0.4491210000000 1.0
C      1  0.5789620000000  0.5093230000000  0.5624530000000 1.0
C      1  0.4213090000000  0.5092520000000  0.4375670000000 1.0
C      1  0.5789620000000  0.4898330000000  0.4376090000000 1.0
C      1  0.4213090000000  0.4899040000000  0.5624950000000 1.0
C      1  0.5358560000000  0.4671920000000  0.4249830000000 1.0
C      1  0.4639490000000  0.4671430000000  0.5751460000000 1.0
C      1  0.5358560000000  0.5319640000000  0.5750790000000 1.0
C      1  0.4639490000000  0.5320140000000  0.4249160000000 1.0
C      1  0.5429590000000  0.6058040000000  0.4946370000000 1.0
C      1  0.4572310000000  0.6055280000000  0.5054200000000 1.0
C      1  0.5429590000000  0.3933520000000  0.5054250000000 1.0
C      1  0.4572310000000  0.3936280000000  0.4946420000000 1.0
C      1  0.4304510000000  0.5412720000000  0.5144560000000 1.0
C      1  0.5695410000000  0.5412640000000  0.4855600000000 1.0
C      1  0.4304510000000  0.4578840000000  0.4856060000000 1.0
C      1  0.5695410000000  0.4578920000000  0.5145020000000 1.0
C      1  0.5129920000000  0.4579800000000  0.4589210000000 1.0
C      1  0.4873540000000  0.4578180000000  0.5416050000000 1.0
C      1  0.5129920000000  0.5411770000000  0.5411410000000 1.0
C      1  0.4873540000000  0.5413380000000  0.4584560000000 1.0
C      1  0.4730520000000  0.4811530000000  0.4194380000000 1.0
C      1  0.5272030000000  0.4812800000000  0.5812310000000 1.0
C      1  0.4730520000000  0.5180040000000  0.5806240000000 1.0
C      1  0.5272030000000  0.5178770000000  0.4188310000000 1.0
C      1  0.5190670000000  0.4183500000000  0.4249880000000 1.0
C      1  0.4810440000000  0.4183540000000  0.5750530000000 1.0
C      1  0.5190670000000  0.5808070000000  0.5750740000000 1.0
C      1  0.4810440000000  0.5808020000000  0.4250090000000 1.0
C      1  0.4953200000000  0.5287160000000  0.5201760000000 1.0
C      1  0.5053890000000  0.5290580000000  0.4794570000000 1.0
C      1  0.4953200000000  0.4704400000000  0.4798860000000 1.0
C      1  0.5053890000000  0.4700980000000  0.5206040000000 1.0
C      1  0.4455560000000  0.5724960000000  0.4673740000000 1.0
C      1  0.5546240000000  0.5726620000000  0.5327420000000 1.0
C      1  0.4455560000000  0.4266600000000  0.5326880000000 1.0
C      1  0.5546240000000  0.4264940000000  0.4673200000000 1.0
C      1  0.5589930000000  0.5013670000000  0.6078570000000 1.0
C      1  0.4411430000000  0.5014680000000  0.3920740000000 1.0
C      1  0.5589930000000  0.4977890000000  0.3922050000000 1.0
C      1  0.4411430000000  0.4976890000000  0.6079880000000 1.0
C      1  0.4759320000000  0.6009610000000  0.5342050000000 1.0
C      1  0.5241240000000  0.6012060000000  0.4657860000000 1.0
C      1  0.4759320000000  0.3981960000000  0.4658570000000 1.0
C      1  0.5241230000000  0.3979500000000  0.5342760000000 1.0
C      1  0.6070710000000  0.4581250000000  0.5436210000000 1.0
C      1  0.3931300000000  0.4582020000000  0.4563470000000 1.0
C      1  0.6070710000000  0.5410310000000  0.4564410000000 1.0
C      1  0.3931300000000  0.5409540000000  0.5437150000000 1.0
C      1  0.5334370000000  0.5476110000000  0.4048430000000 1.0
C      1  0.4669020000000  0.5474710000000  0.5949770000000 1.0
C      1  0.5334370000000  0.4515450000000  0.5952190000000 1.0
C      1  0.4669020000000  0.4516850000000  0.4050850000000 1.0
C      1  0.5364160000000  0.4255640000000  0.5757200000000 1.0
C      1  0.4636990000000  0.4255560000000  0.4244270000000 1.0
C      1  0.5364160000000  0.5735920000000  0.4243420000000 1.0
C      1  0.4637000000000  0.5736010000000  0.5756350000000 1.0
C      1  0.4501920000000  0.5757450000000  0.4347050000000 1.0
C      1  0.5498690000000  0.5758020000000  0.5655000000000 1.0
C      1  0.4501910000000  0.4234120000000  0.5653570000000 1.0
C      1  0.5498690000000  0.4233540000000  0.4345610000000 1.0
C      1  0.5193860000000  0.4300990000000  0.5294190000000 1.0
C      1  0.4807180000000  0.4304400000000  0.4707840000000 1.0
C      1  0.5193860000000  0.5690570000000  0.4706430000000 1.0
C      1  0.4807180000000  0.5687160000000  0.5292780000000 1.0
C      1  0.4582920000000  0.5104520000000  0.4699010000000 1.0
C      1  0.5416900000000  0.5105370000000  0.5303380000000 1.0
C      1  0.4582920000000  0.4887050000000  0.5301610000000 1.0
C      1  0.5416900000000  0.4886190000000  0.4697230000000 1.0
C      1  0.4809940000000  0.4452630000000  0.5880410000000 1.0
C      1  0.5191120000000  0.4452640000000  0.4120280000000 1.0
C      1  0.4809940000000  0.5538930000000  0.4120210000000 1.0
C      1  0.5191120000000  0.5538920000000  0.5880330000000 1.0
C      1  0.4344620000000  0.5240920000000  0.4127560000000 1.0
C      1  0.5654010000000  0.5239360000000  0.5871210000000 1.0
C      1  0.4344620000000  0.4750650000000  0.5873060000000 1.0
C      1  0.5654010000000  0.4752200000000  0.4129400000000 1.0
C      1  0.4319500000000  0.5932270000000  0.5177240000000 1.0
C      1  0.5680560000000  0.5932290000000  0.4822420000000 1.0
C      1  0.4319500000000  0.4059290000000  0.4823380000000 1.0
C      1  0.5680560000000  0.4059270000000  0.5178200000000 1.0
C      1  0.5733840000000  0.5689880000000  0.5012480000000 1.0
C      1  0.4266130000000  0.5689610000000  0.4987480000000 1.0
C      1  0.5733840000000  0.4301680000000  0.4988130000000 1.0
C      1  0.4266130000000  0.4301960000000  0.5013140000000 1.0
C      1  0.4959320000000  0.5157670000000  0.4254950000000 1.0
C      1  0.5040530000000  0.5153600000000  0.5733660000000 1.0
C      1  0.4959320000000  0.4833890000000  0.5745670000000 1.0
C      1  0.5040530000000  0.4837960000000  0.4266950000000 1.0
C      1  0.4188170000000  0.5367870000000  0.4597230000000 1.0
C      1  0.5814260000000  0.5368200000000  0.5403340000000 1.0
C      1  0.4188170000000  0.4623690000000  0.5403390000000 1.0
C      1  0.5814260000000  0.4623360000000  0.4597270000000 1.0
C      1  0.4791660000000  0.4482780000000  0.4964180000000 1.0
C      1  0.5211300000000  0.4474490000000  0.5034390000000 1.0
C      1  0.4791660000000  0.5508790000000  0.5036440000000 1.0
C      1  0.5211300000000  0.5517080000000  0.4966230000000 1.0
C      1  0.3999140000000  0.4767700000000  0.5186720000000 1.0
C      1  0.6000710000000  0.4768350000000  0.4814140000000 1.0
C      1  0.3999140000000  0.5223860000000  0.4813900000000 1.0
C      1  0.6000710000000  0.5223210000000  0.5186470000000 1.0
C      1  0.4850800000000  0.4938130000000  0.4622840000000 1.0
C      1  0.5146540000000  0.4935460000000  0.5390910000000 1.0
C      1  0.4850800000000  0.5053440000000  0.5377770000000 1.0
C      1  0.5146540000000  0.5056110000000  0.4609710000000 1.0
C      1  0.5770970000000  0.5382880000000  0.4272070000000 1.0
C      1  0.4231330000000  0.5381120000000  0.5729100000000 1.0
C      1  0.5770970000000  0.4608680000000  0.5728550000000 1.0
C      1  0.4231330000000  0.4610440000000  0.4271520000000 1.0
C      1  0.5024580000000  0.4552840000000  0.6050820000000 1.0
C      1  0.4977130000000  0.4551330000000  0.3949250000000 1.0
C      1  0.5024580000000  0.5438720000000  0.3949800000000 1.0
C      1  0.4977130000000  0.5440230000000  0.6051370000000 1.0
C      1  0.3921380000000  0.5025160000000  0.5270850000000 1.0
C      1  0.6078540000000  0.5025720000000  0.4730340000000 1.0
C      1  0.3921380000000  0.4966410000000  0.4729770000000 1.0
C      1  0.6078540000000  0.4965840000000  0.5270280000000 1.0
C      1  0.4557290000000  0.5342450000000  0.4971840000000 1.0
C      1  0.5442670000000  0.5342850000000  0.5029220000000 1.0
C      1  0.4557290000000  0.4649110000000  0.5028780000000 1.0
C      1  0.5442670000000  0.4648710000000  0.4971400000000 1.0
C      1  0.4477830000000  0.4908120000000  0.4434880000000 1.0
C      1  0.5523460000000  0.4907870000000  0.5569590000000 1.0
C      1  0.4477830000000  0.5083450000000  0.5565740000000 1.0
C      1  0.5523460000000  0.5083690000000  0.4431030000000 1.0
C      1  0.5108680000000  0.5760970000000  0.5182240000000 1.0
C      1  0.4893480000000  0.5756110000000  0.4823650000000 1.0
C      1  0.5108680000000  0.4230590000000  0.4818370000000 1.0
C      1  0.4893480000000  0.4235450000000  0.5176970000000 1.0
C      1  0.5100040000000  0.4082550000000  0.5658940000000 1.0
C      1  0.4901290000000  0.4082560000000  0.4342000000000 1.0
C      1  0.5100050000000  0.5909010000000  0.4341680000000 1.0
C      1  0.4901290000000  0.5909000000000  0.5658620000000 1.0
C      1  0.4054820000000  0.5634790000000  0.4750020000000 1.0
C      1  0.5946120000000  0.5634520000000  0.5248910000000 1.0
C      1  0.4054820000000  0.4356770000000  0.5250600000000 1.0
C      1  0.5946120000000  0.4357040000000  0.4751710000000 1.0
C      1  0.4927180000000  0.5189710000000  0.3818940000000 1.0
C      1  0.5075070000000  0.5194870000000  0.6188130000000 1.0
C      1  0.4927180000000  0.4801850000000  0.6181680000000 1.0
C      1  0.5075060000000  0.4796700000000  0.3812480000000 1.0
C      1  0.4548400000000  0.4594670000000  0.5444170000000 1.0
C      1  0.5454550000000  0.4593600000000  0.4556210000000 1.0
C      1  0.4548400000000  0.5396890000000  0.4556450000000 1.0
C      1  0.5454550000000  0.5397960000000  0.5444400000000 1.0
C      1  0.5001220000000  0.3992730000000  0.4999910000000 1.0
C      1  0.5001220000000  0.5998830000000  0.5000710000000 1.0
C      1  0.5017730000000  0.4995780000000  0.5000310000000 1.0
END
