TITL C-862129-6180-992 0.17305621093309 125000 -113.440446305206 0 0 23 (C1) n - 1
REM
REM in /home/nfs/bkarasulu/CARBON/AIRSS/Generating-Clusters/TERSOFF/Higher-Symm/FIRE-HFTN
REM
REM
REM
REM
REM
REM ./C.cell (b20cbc046b6831c77cfcea5457e17084)
REM AIRSS Version 0.9.1 bugfix July 2018 build 013d7b7c2542+ Fri, 06 Jul 2018 19:26:36 +0100
REM compiler GCC version 9.2.1 20190827 (Red Hat 9.2.1-1)
REM options -cpp -mtune=generic -march=x86-64 -g -O0 -fpre-include=/usr/include/finclude/math-vector-fortran.h
REM seed -1873917956 1974118447 -1273842867 -72609967 1409985900 -312618389 1631089945 -1796555738 1035005704 826353395 1035402282 544216452 -1492712254 -812540563 750388845 1332586255 -1907252224 -329795472 254157570 354586701 2107569686 -71692233 493625624 2024768092 -725417839 686715114 1642199385 2103725976 941675672 -605731725 -1995645732 -1812924174 -775143121
REM
CELL 1.54180   50.00000   50.00000   50.00000   90.00000   90.00000   90.00000
LATT -1
SFAC C  
C      1  0.5729140000000  0.5595420000000  0.5206310000000 1.0
C      1  0.5396260000000  0.4892210000000  0.4799090000000 1.0
C      1  0.4637290000000  0.4701310000000  0.4856900000000 1.0
C      1  0.5412330000000  0.5376720000000  0.4661970000000 1.0
C      1  0.4311690000000  0.4841110000000  0.4484320000000 1.0
C      1  0.4370080000000  0.4735880000000  0.4747560000000 1.0
C      1  0.4988420000000  0.5282700000000  0.5181680000000 1.0
C      1  0.4577340000000  0.4744610000000  0.5525270000000 1.0
C      1  0.4808120000000  0.4487460000000  0.4758750000000 1.0
C      1  0.4797330000000  0.5437940000000  0.4556630000000 1.0
C      1  0.5493670000000  0.5467680000000  0.5315890000000 1.0
C      1  0.5361840000000  0.5173590000000  0.4863800000000 1.0
C      1  0.5474590000000  0.5138910000000  0.5406330000000 1.0
C      1  0.4518690000000  0.5320350000000  0.5054370000000 1.0
C      1  0.5275820000000  0.5252870000000  0.5133870000000 1.0
C      1  0.5274230000000  0.4640640000000  0.5217980000000 1.0
C      1  0.4773890000000  0.5172980000000  0.5004970000000 1.0
C      1  0.5255920000000  0.4673560000000  0.4929660000000 1.0
C      1  0.4792430000000  0.4778820000000  0.5332610000000 1.0
C      1  0.5097260000000  0.4487840000000  0.4771910000000 1.0
C      1  0.4734140000000  0.4881490000000  0.5065420000000 1.0
C      1  0.4854000000000  0.5205050000000  0.4718890000000 1.0
C      1  0.5065500000000  0.4710860000000  0.5405810000000 1.0
END
