TITL C-862134-6730-257 0.000975488576487891 125000 -966.4805819084 0 0 177 (D5) n - 1
REM
REM in /home/nfs/bkarasulu/CARBON/AIRSS/Generating-Clusters/TERSOFF/Higher-Symm/FIRE-HFTN
REM
REM
REM
REM
REM
REM ./C.cell (b20cbc046b6831c77cfcea5457e17084)
REM AIRSS Version 0.9.1 bugfix July 2018 build 013d7b7c2542+ Fri, 06 Jul 2018 19:26:36 +0100
REM compiler GCC version 9.2.1 20190827 (Red Hat 9.2.1-1)
REM options -cpp -mtune=generic -march=x86-64 -g -O0 -fpre-include=/usr/include/finclude/math-vector-fortran.h
REM seed -1055835040 1797933543 622293521 -627705096 -1538790602 -476724519 1701381934 1092034674 1706366813 -587445836 -743901141 1287692000 1011383016 -1280841715 228870408 -510184344 -772387576 1555830186 1194489630 -271337605 -1411055151 -1596651586 1385712799 47521472 -414978993 -685607057 -1310930429 -256689242 -1023401493 1146658362 671828652 474093337 743440285
REM
CELL 1.54180   50.00000   50.00000   50.00000   90.00000   90.00000   90.00000
LATT -1
SFAC C  
C      1  0.5231930000000  0.5372780000000  0.4796330000000 1.0
C      1  0.4880110000000  0.5372780000000  0.4715460000000 1.0
C      1  0.4694480000000  0.5372780000000  0.5025080000000 1.0
C      1  0.4931590000000  0.5372780000000  0.5297300000000 1.0
C      1  0.5263750000000  0.5372780000000  0.5155920000000 1.0
C      1  0.5231930000000  0.4618500000000  0.5199710000000 1.0
C      1  0.4880110000000  0.4618500000000  0.5280570000000 1.0
C      1  0.4694480000000  0.4618500000000  0.4970960000000 1.0
C      1  0.4931590000000  0.4618500000000  0.4698740000000 1.0
C      1  0.5263750000000  0.4618500000000  0.4840120000000 1.0
C      1  0.4830060000000  0.4536770000000  0.5829080000000 1.0
C      1  0.5738130000000  0.4536760000000  0.5416800000000 1.0
C      1  0.5626640000000  0.4536760000000  0.4425780000000 1.0
C      1  0.4649670000000  0.4536760000000  0.4225570000000 1.0
C      1  0.4157360000000  0.4536760000000  0.5092860000000 1.0
C      1  0.4830060000000  0.5454520000000  0.4166950000000 1.0
C      1  0.5738130000000  0.5454520000000  0.4579230000000 1.0
C      1  0.5626640000000  0.5454520000000  0.5570260000000 1.0
C      1  0.4649670000000  0.5454520000000  0.5770470000000 1.0
C      1  0.4157360000000  0.5454520000000  0.4903180000000 1.0
C      1  0.4443800000000  0.5924560000000  0.5272990000000 1.0
C      1  0.5089890000000  0.5924560000000  0.5612320000000 1.0
C      1  0.5612270000000  0.5924560000000  0.5102710000000 1.0
C      1  0.5289030000000  0.5924560000000  0.4448420000000 1.0
C      1  0.4566870000000  0.5924560000000  0.4553660000000 1.0
C      1  0.4443800000000  0.4066720000000  0.4723050000000 1.0
C      1  0.5089890000000  0.4066720000000  0.4383720000000 1.0
C      1  0.5612270000000  0.4066720000000  0.4893330000000 1.0
C      1  0.5289030000000  0.4066720000000  0.5547620000000 1.0
C      1  0.4566870000000  0.4066720000000  0.5442380000000 1.0
C      1  0.5922640000000  0.5547800000000  0.4944640000000 1.0
C      1  0.5234610000000  0.5547800000000  0.4104400000000 1.0
C      1  0.4222870000000  0.5547800000000  0.4499100000000 1.0
C      1  0.4285620000000  0.5547800000000  0.5583290000000 1.0
C      1  0.5336130000000  0.5547800000000  0.5858650000000 1.0
C      1  0.5922640000000  0.4443490000000  0.5051390000000 1.0
C      1  0.5234610000000  0.4443490000000  0.5891640000000 1.0
C      1  0.4222870000000  0.4443490000000  0.5496930000000 1.0
C      1  0.4285620000000  0.4443490000000  0.4412740000000 1.0
C      1  0.5336130000000  0.4443490000000  0.4137380000000 1.0
C      1  0.5652600000000  0.5595000000000  0.5067990000000 1.0
C      1  0.5268470000000  0.5595000000000  0.4399330000000 1.0
C      1  0.4513840000000  0.5595000000000  0.4558040000000 1.0
C      1  0.4431580000000  0.5595000000000  0.5324780000000 1.0
C      1  0.5135380000000  0.5595000000000  0.5639950000000 1.0
C      1  0.5652600000000  0.4396290000000  0.4928050000000 1.0
C      1  0.5268470000000  0.4396290000000  0.5596700000000 1.0
C      1  0.4513840000000  0.4396290000000  0.5438000000000 1.0
C      1  0.4431580000000  0.4396290000000  0.4671260000000 1.0
C      1  0.5135380000000  0.4396290000000  0.4356090000000 1.0
C      1  0.5034260000000  0.5255230000000  0.5948730000000 1.0
C      1  0.5915030000000  0.5255230000000  0.5259580000000 1.0
C      1  0.5531770000000  0.5255230000000  0.4208950000000 1.0
C      1  0.4414140000000  0.5255230000000  0.4248790000000 1.0
C      1  0.4106660000000  0.5255230000000  0.5324030000000 1.0
C      1  0.5034260000000  0.4736060000000  0.4047300000000 1.0
C      1  0.5915030000000  0.4736060000000  0.4736460000000 1.0
C      1  0.5531780000000  0.4736060000000  0.5787080000000 1.0
C      1  0.4414140000000  0.4736060000000  0.5747250000000 1.0
C      1  0.4106660000000  0.4736060000000  0.4672000000000 1.0
C      1  0.5984740000000  0.5002110000000  0.4584670000000 1.0
C      1  0.4911440000000  0.5002110000000  0.3934100000000 1.0
C      1  0.3961040000000  0.5002110000000  0.4753830000000 1.0
C      1  0.4446960000000  0.5002110000000  0.5911020000000 1.0
C      1  0.5697670000000  0.5002110000000  0.5806470000000 1.0
C      1  0.5984740000000  0.4989180000000  0.5411360000000 1.0
C      1  0.4911440000000  0.4989180000000  0.6061940000000 1.0
C      1  0.3961040000000  0.4989180000000  0.5242210000000 1.0
C      1  0.4446960000000  0.4989180000000  0.4085020000000 1.0
C      1  0.5697670000000  0.4989180000000  0.4189560000000 1.0
C      1  0.3909430000000  0.5477260000000  0.5380840000000 1.0
C      1  0.5027340000000  0.5477260000000  0.6153870000000 1.0
C      1  0.6107980000000  0.5477260000000  0.5329550000000 1.0
C      1  0.5657950000000  0.5477260000000  0.4047070000000 1.0
C      1  0.4299160000000  0.5477260000000  0.4078770000000 1.0
C      1  0.3909430000000  0.4514020000000  0.4615200000000 1.0
C      1  0.5027340000000  0.4514020000000  0.3842170000000 1.0
C      1  0.6107980000000  0.4514020000000  0.4666490000000 1.0
C      1  0.5657950000000  0.4514020000000  0.5948970000000 1.0
C      1  0.4299170000000  0.4514020000000  0.5917270000000 1.0
C      1  0.4225490000000  0.4857640000000  0.5565380000000 1.0
C      1  0.5300520000000  0.4857640000000  0.5910300000000 1.0
C      1  0.5960750000000  0.4857640000000  0.4994470000000 1.0
C      1  0.5293770000000  0.4857640000000  0.4083550000000 1.0
C      1  0.4221330000000  0.4857640000000  0.4436390000000 1.0
C      1  0.4225490000000  0.5133640000000  0.4430650000000 1.0
C      1  0.5300520000000  0.5133640000000  0.4085740000000 1.0
C      1  0.5960750000000  0.5133640000000  0.5001560000000 1.0
C      1  0.5293780000000  0.5133650000000  0.5912490000000 1.0
C      1  0.4221330000000  0.5133650000000  0.5559650000000 1.0
C      1  0.5227940000000  0.3941300000000  0.5272740000000 1.0
C      1  0.5331970000000  0.3941300000000  0.4866480000000 1.0
C      1  0.4977740000000  0.3941300000000  0.4642000000000 1.0
C      1  0.4654790000000  0.3941300000000  0.4909520000000 1.0
C      1  0.4809420000000  0.3941300000000  0.5299340000000 1.0
C      1  0.5227940000000  0.6049980000000  0.4723290000000 1.0
C      1  0.5331970000000  0.6049980000000  0.5129550000000 1.0
C      1  0.4977750000000  0.6049980000000  0.5354030000000 1.0
C      1  0.4654790000000  0.6049980000000  0.5086510000000 1.0
C      1  0.4809420000000  0.6049980000000  0.4696700000000 1.0
C      1  0.4477570000000  0.4045970000000  0.4421980000000 1.0
C      1  0.4290970000000  0.4045970000000  0.5317230000000 1.0
C      1  0.5084750000000  0.4045970000000  0.5771340000000 1.0
C      1  0.5761920000000  0.4045970000000  0.5156740000000 1.0
C      1  0.5386660000000  0.4045970000000  0.4322800000000 1.0
C      1  0.4477570000000  0.5945320000000  0.5574050000000 1.0
C      1  0.4290970000000  0.5945320000000  0.4678800000000 1.0
C      1  0.5084750000000  0.5945310000000  0.4224700000000 1.0
C      1  0.5761920000000  0.5945320000000  0.4839290000000 1.0
C      1  0.5386660000000  0.5945320000000  0.5673240000000 1.0
C      1  0.5688610000000  0.5756630000000  0.4613540000000 1.0
C      1  0.4847390000000  0.5756630000000  0.4224660000000 1.0
C      1  0.4217590000000  0.5756630000000  0.4904530000000 1.0
C      1  0.4669570000000  0.5756630000000  0.5713600000000 1.0
C      1  0.5578710000000  0.5756630000000  0.5533760000000 1.0
C      1  0.5688610000000  0.4234660000000  0.5382490000000 1.0
C      1  0.4847390000000  0.4234660000000  0.5771380000000 1.0
C      1  0.4217590000000  0.4234660000000  0.5091510000000 1.0
C      1  0.4669570000000  0.4234660000000  0.4282440000000 1.0
C      1  0.5578700000000  0.4234660000000  0.4462280000000 1.0
C      1  0.4344200000000  0.4640110000000  0.4875610000000 1.0
C      1  0.4681190000000  0.4640110000000  0.5584240000000 1.0
C      1  0.5459270000000  0.4640110000000  0.5482740000000 1.0
C      1  0.5603170000000  0.4640110000000  0.4711360000000 1.0
C      1  0.4914020000000  0.4640110000000  0.4336140000000 1.0
C      1  0.4344200000000  0.5351180000000  0.5120430000000 1.0
C      1  0.4681190000000  0.5351170000000  0.4411790000000 1.0
C      1  0.5459270000000  0.5351170000000  0.4513300000000 1.0
C      1  0.5603170000000  0.5351180000000  0.5284670000000 1.0
C      1  0.4914020000000  0.5351180000000  0.5659900000000 1.0
C      1  0.5959360000000  0.4695990000000  0.5257780000000 1.0
C      1  0.5543760000000  0.4695990000000  0.4166230000000 1.0
C      1  0.4377220000000  0.4695990000000  0.4224190000000 1.0
C      1  0.4071850000000  0.4696000000000  0.5351550000000 1.0
C      1  0.5049670000000  0.4696000000000  0.5990340000000 1.0
C      1  0.5959360000000  0.5295290000000  0.4738260000000 1.0
C      1  0.5543760000000  0.5295290000000  0.5829800000000 1.0
C      1  0.4377220000000  0.5295290000000  0.5771850000000 1.0
C      1  0.4071850000000  0.5295290000000  0.4644490000000 1.0
C      1  0.5049670000000  0.5295290000000  0.4005690000000 1.0
C      1  0.6043770000000  0.5765600000000  0.5337910000000 1.0
C      1  0.5646060000000  0.5765600000000  0.4110720000000 1.0
C      1  0.4356030000000  0.5765600000000  0.4109740000000 1.0
C      1  0.3956460000000  0.5765600000000  0.5336330000000 1.0
C      1  0.4999550000000  0.5765600000000  0.6095380000000 1.0
C      1  0.6043770000000  0.4225680000000  0.4658130000000 1.0
C      1  0.5646060000000  0.4225680000000  0.5885320000000 1.0
C      1  0.4356030000000  0.4225680000000  0.5886290000000 1.0
C      1  0.3956460000000  0.4225680000000  0.4659700000000 1.0
C      1  0.4999540000000  0.4225680000000  0.3900650000000 1.0
C      1  0.4584490000000  0.5876610000000  0.4254740000000 1.0
C      1  0.4164960000000  0.5876610000000  0.5163860000000 1.0
C      1  0.4899940000000  0.5876610000000  0.5843790000000 1.0
C      1  0.5773720000000  0.5876610000000  0.5354890000000 1.0
C      1  0.5578760000000  0.5876610000000  0.4372800000000 1.0
C      1  0.4584490000000  0.4114680000000  0.5741300000000 1.0
C      1  0.4164960000000  0.4114680000000  0.4832180000000 1.0
C      1  0.4899940000000  0.4114680000000  0.4152250000000 1.0
C      1  0.5773710000000  0.4114680000000  0.4641140000000 1.0
C      1  0.5578760000000  0.4114680000000  0.5623230000000 1.0
C      1  0.4984770000000  0.4371440000000  0.5475680000000 1.0
C      1  0.5449840000000  0.4371440000000  0.5160460000000 1.0
C      1  0.5293760000000  0.4371440000000  0.4620750000000 1.0
C      1  0.4732230000000  0.4371440000000  0.4602410000000 1.0
C      1  0.4541270000000  0.4371440000000  0.5130790000000 1.0
C      1  0.4984770000000  0.5619850000000  0.4520350000000 1.0
C      1  0.5449840000000  0.5619850000000  0.4835570000000 1.0
C      1  0.5293760000000  0.5619850000000  0.5375290000000 1.0
C      1  0.4732230000000  0.5619850000000  0.5393630000000 1.0
C      1  0.4541270000000  0.5619850000000  0.4865250000000 1.0
C      1  0.3818160000000  0.4995640000000  0.4998020000000 1.0
C      1  0.4635050000000  0.4995640000000  0.6122370000000 1.0
C      1  0.5956800000000  0.4995640000000  0.5692900000000 1.0
C      1  0.4635050000000  0.4995640000000  0.3873670000000 1.0
C      1  0.5956800000000  0.4995640000000  0.4303130000000 1.0
C      1  0.5000370000000  0.4007640000000  0.4998020000000 1.0
C      1  0.5000370000000  0.5983650000000  0.4998020000000 1.0
END
