TITL C-862129-6180-1109 -145.250091974751 125000 -1039.94750505875 0 0 173 (C1) n - 1
REM
REM in /home/nfs/bkarasulu/CARBON/AIRSS/Generating-Clusters/TERSOFF/Higher-Symm/FIRE-HFTN
REM
REM
REM
REM
REM
REM ./C.cell (b20cbc046b6831c77cfcea5457e17084)
REM AIRSS Version 0.9.1 bugfix July 2018 build 013d7b7c2542+ Fri, 06 Jul 2018 19:26:36 +0100
REM compiler GCC version 9.2.1 20190827 (Red Hat 9.2.1-1)
REM options -cpp -mtune=generic -march=x86-64 -g -O0 -fpre-include=/usr/include/finclude/math-vector-fortran.h
REM seed -272926352 627425047 -586176904 163788976 -166412370 1278855464 83747435 -68701358 -209699881 422341009 1299444730 1843743674 -1278267889 -1896271780 -178403903 -1025673347 276618480 1486132262 651061758 -651513160 -48452998 1969955585 688183974 -242627693 462438016 382361356 -1482409145 401409422 1745491460 -1314616586 -1495673935 -1477642079 -637117551
REM
CELL 1.54180   50.00000   50.00000   50.00000   90.00000   90.00000   90.00000
LATT -1
SFAC C  
C      1  0.4267370000000  0.5619010000000  0.4458050000000 1.0
C      1  0.4636660000000  0.4213850000000  0.5003010000000 1.0
C      1  0.5794620000000  0.4972370000000  0.5103830000000 1.0
C      1  0.5591900000000  0.3959950000000  0.5042050000000 1.0
C      1  0.4904710000000  0.5168550000000  0.4386930000000 1.0
C      1  0.4252610000000  0.4642510000000  0.5095060000000 1.0
C      1  0.4352220000000  0.5351440000000  0.5408790000000 1.0
C      1  0.5254350000000  0.5104730000000  0.5993030000000 1.0
C      1  0.5037570000000  0.5308090000000  0.6049260000000 1.0
C      1  0.4446300000000  0.4930040000000  0.4401820000000 1.0
C      1  0.5770190000000  0.5860410000000  0.5728270000000 1.0
C      1  0.4330810000000  0.4936520000000  0.4805520000000 1.0
C      1  0.5431590000000  0.4328550000000  0.4882950000000 1.0
C      1  0.6141350000000  0.5352740000000  0.5145310000000 1.0
C      1  0.4826640000000  0.4696480000000  0.6195020000000 1.0
C      1  0.5229090000000  0.5566070000000  0.4036100000000 1.0
C      1  0.4245500000000  0.4408480000000  0.4656120000000 1.0
C      1  0.5824840000000  0.4178360000000  0.4611850000000 1.0
C      1  0.3893200000000  0.4708400000000  0.4598390000000 1.0
C      1  0.5245760000000  0.6155440000000  0.4973150000000 1.0
C      1  0.4860000000000  0.4048060000000  0.5713430000000 1.0
C      1  0.6020190000000  0.5634900000000  0.4542020000000 1.0
C      1  0.5567620000000  0.4409180000000  0.5394070000000 1.0
C      1  0.5154690000000  0.3830520000000  0.5319700000000 1.0
C      1  0.4838180000000  0.4531190000000  0.5353450000000 1.0
C      1  0.5036030000000  0.4923210000000  0.3944170000000 1.0
C      1  0.5621990000000  0.5102080000000  0.4669270000000 1.0
C      1  0.4158830000000  0.4993670000000  0.6116260000000 1.0
C      1  0.4765720000000  0.4730030000000  0.4894960000000 1.0
C      1  0.4513990000000  0.5351220000000  0.4666740000000 1.0
C      1  0.5361120000000  0.4511170000000  0.5841380000000 1.0
C      1  0.4626950000000  0.4743960000000  0.5300320000000 1.0
C      1  0.4030600000000  0.4251010000000  0.4530880000000 1.0
C      1  0.4881050000000  0.5758810000000  0.4799570000000 1.0
C      1  0.5053640000000  0.6036620000000  0.5163690000000 1.0
C      1  0.4221040000000  0.4403480000000  0.4951650000000 1.0
C      1  0.4817810000000  0.3963420000000  0.4429670000000 1.0
C      1  0.4977890000000  0.4911680000000  0.4952040000000 1.0
C      1  0.4533800000000  0.4900860000000  0.5510740000000 1.0
C      1  0.4536290000000  0.4387990000000  0.4045400000000 1.0
C      1  0.4398420000000  0.5785320000000  0.4681660000000 1.0
C      1  0.5509730000000  0.4344400000000  0.5667730000000 1.0
C      1  0.5927400000000  0.5217630000000  0.5005850000000 1.0
C      1  0.4338510000000  0.4505290000000  0.4221660000000 1.0
C      1  0.6128640000000  0.4750310000000  0.4829740000000 1.0
C      1  0.4734230000000  0.5738990000000  0.4308570000000 1.0
C      1  0.4424170000000  0.4618090000000  0.4485810000000 1.0
C      1  0.5817720000000  0.5632380000000  0.5550630000000 1.0
C      1  0.4502140000000  0.4787180000000  0.5018820000000 1.0
C      1  0.5309840000000  0.5100140000000  0.5297990000000 1.0
C      1  0.3622470000000  0.4626670000000  0.4977550000000 1.0
C      1  0.4351070000000  0.5183850000000  0.3975250000000 1.0
C      1  0.3916540000000  0.5049720000000  0.5967110000000 1.0
C      1  0.6192120000000  0.5330490000000  0.5427800000000 1.0
C      1  0.4845250000000  0.5286980000000  0.5513920000000 1.0
C      1  0.4025220000000  0.4776360000000  0.5239450000000 1.0
C      1  0.4667670000000  0.4283680000000  0.5279680000000 1.0
C      1  0.6009190000000  0.5420570000000  0.5631360000000 1.0
C      1  0.4840760000000  0.5871030000000  0.5058400000000 1.0
C      1  0.4574740000000  0.5179050000000  0.5487660000000 1.0
C      1  0.6094460000000  0.4553480000000  0.5426440000000 1.0
C      1  0.6012650000000  0.5299030000000  0.5906420000000 1.0
C      1  0.4433880000000  0.5457050000000  0.3983540000000 1.0
C      1  0.5721910000000  0.5025200000000  0.5589440000000 1.0
C      1  0.6106470000000  0.5171320000000  0.4423290000000 1.0
C      1  0.5423510000000  0.5564010000000  0.5221410000000 1.0
C      1  0.4605310000000  0.5678090000000  0.5688690000000 1.0
C      1  0.3782820000000  0.4226420000000  0.4696920000000 1.0
C      1  0.5647620000000  0.5938710000000  0.4369730000000 1.0
C      1  0.5417330000000  0.6001180000000  0.4788320000000 1.0
C      1  0.5044190000000  0.5658640000000  0.4258620000000 1.0
C      1  0.5143600000000  0.3953380000000  0.4799390000000 1.0
C      1  0.5068890000000  0.5537530000000  0.4746760000000 1.0
C      1  0.5163970000000  0.4973560000000  0.4753690000000 1.0
C      1  0.4454390000000  0.5619070000000  0.5935280000000 1.0
C      1  0.4681160000000  0.5817460000000  0.4596260000000 1.0
C      1  0.5837040000000  0.5284630000000  0.4739450000000 1.0
C      1  0.5525500000000  0.5473070000000  0.5806220000000 1.0
C      1  0.5231570000000  0.4393840000000  0.4058270000000 1.0
C      1  0.5969140000000  0.5432560000000  0.4331380000000 1.0
C      1  0.4458860000000  0.4264870000000  0.3794100000000 1.0
C      1  0.4565160000000  0.5844380000000  0.5179330000000 1.0
C      1  0.4889350000000  0.5131270000000  0.4089270000000 1.0
C      1  0.4954970000000  0.4185640000000  0.4296010000000 1.0
C      1  0.4191970000000  0.4095720000000  0.5345900000000 1.0
C      1  0.4542740000000  0.5392340000000  0.4950690000000 1.0
C      1  0.5156210000000  0.5950690000000  0.5410360000000 1.0
C      1  0.5018200000000  0.4642190000000  0.4064450000000 1.0
C      1  0.6333000000000  0.4984070000000  0.5206430000000 1.0
C      1  0.3899750000000  0.4753090000000  0.4310360000000 1.0
C      1  0.5292920000000  0.4997180000000  0.3824520000000 1.0
C      1  0.6161160000000  0.4845500000000  0.5423680000000 1.0
C      1  0.5090730000000  0.4582780000000  0.5187300000000 1.0
C      1  0.5157480000000  0.4730290000000  0.4328230000000 1.0
C      1  0.4471220000000  0.5607200000000  0.4226110000000 1.0
C      1  0.4909360000000  0.4532050000000  0.5644030000000 1.0
C      1  0.4509010000000  0.5866910000000  0.5476060000000 1.0
C      1  0.4847940000000  0.5532630000000  0.5658080000000 1.0
C      1  0.3775980000000  0.4846860000000  0.5092780000000 1.0
C      1  0.5159290000000  0.4955280000000  0.5755920000000 1.0
C      1  0.5554940000000  0.4934960000000  0.3939990000000 1.0
C      1  0.4399600000000  0.4784300000000  0.5735440000000 1.0
C      1  0.5373520000000  0.5157200000000  0.4812600000000 1.0
C      1  0.4666560000000  0.3950250000000  0.4897280000000 1.0
C      1  0.4554440000000  0.5446180000000  0.6160840000000 1.0
C      1  0.5846940000000  0.5864160000000  0.4577760000000 1.0
C      1  0.3742480000000  0.5119040000000  0.4974900000000 1.0
C      1  0.6191000000000  0.5509540000000  0.4758890000000 1.0
C      1  0.4922410000000  0.5118770000000  0.5136960000000 1.0
C      1  0.4310960000000  0.5404450000000  0.5125740000000 1.0
C      1  0.5600770000000  0.5855030000000  0.5963810000000 1.0
C      1  0.4632210000000  0.5129040000000  0.4516750000000 1.0
C      1  0.5849990000000  0.4716820000000  0.4909350000000 1.0
C      1  0.5710820000000  0.5922200000000  0.4837800000000 1.0
C      1  0.5038450000000  0.5439450000000  0.4464910000000 1.0
C      1  0.5132870000000  0.5936620000000  0.4355000000000 1.0
C      1  0.5256930000000  0.4251350000000  0.4378160000000 1.0
C      1  0.5291630000000  0.5596130000000  0.5718380000000 1.0
C      1  0.5253380000000  0.4195040000000  0.4691810000000 1.0
C      1  0.4451840000000  0.4183000000000  0.5452730000000 1.0
C      1  0.4801370000000  0.5367600000000  0.5069990000000 1.0
C      1  0.5345770000000  0.4545910000000  0.4432110000000 1.0
C      1  0.6249050000000  0.5211160000000  0.4705880000000 1.0
C      1  0.5591490000000  0.4997860000000  0.5332500000000 1.0
C      1  0.5836510000000  0.4934960000000  0.6224880000000 1.0
C      1  0.5293020000000  0.3882660000000  0.5054880000000 1.0
C      1  0.3984170000000  0.5527480000000  0.4449500000000 1.0
C      1  0.3687040000000  0.5174080000000  0.4686990000000 1.0
C      1  0.4871700000000  0.3884970000000  0.4710230000000 1.0
C      1  0.5099650000000  0.5105860000000  0.5517130000000 1.0
C      1  0.5141960000000  0.4670410000000  0.5751970000000 1.0
C      1  0.3980610000000  0.5036290000000  0.4278900000000 1.0
C      1  0.5342070000000  0.4419030000000  0.5163760000000 1.0
C      1  0.4761340000000  0.5226840000000  0.6137250000000 1.0
C      1  0.4817690000000  0.4397830000000  0.4128680000000 1.0
C      1  0.5908310000000  0.4960010000000  0.4330900000000 1.0
C      1  0.4811320000000  0.4326060000000  0.5812080000000 1.0
C      1  0.5298720000000  0.5431870000000  0.4930310000000 1.0
C      1  0.5623370000000  0.4613350000000  0.4465920000000 1.0
C      1  0.5266030000000  0.5690750000000  0.5446410000000 1.0
C      1  0.5695240000000  0.4807600000000  0.4671120000000 1.0
C      1  0.5790790000000  0.5139560000000  0.6024600000000 1.0
C      1  0.4773540000000  0.4414080000000  0.6094330000000 1.0
C      1  0.5709540000000  0.5642550000000  0.5267220000000 1.0
C      1  0.6272870000000  0.4980130000000  0.4908330000000 1.0
C      1  0.5528130000000  0.5568400000000  0.4050630000000 1.0
C      1  0.4347250000000  0.5795110000000  0.4976070000000 1.0
C      1  0.5709270000000  0.4213280000000  0.4878840000000 1.0
C      1  0.4175160000000  0.5465840000000  0.5608660000000 1.0
C      1  0.3706940000000  0.4515350000000  0.4723370000000 1.0
C      1  0.6006120000000  0.5001160000000  0.5610410000000 1.0
C      1  0.4059580000000  0.4560120000000  0.4150340000000 1.0
C      1  0.5078240000000  0.4954590000000  0.4486450000000 1.0
C      1  0.5822440000000  0.5843950000000  0.5091790000000 1.0
C      1  0.5673320000000  0.5070430000000  0.4172080000000 1.0
C      1  0.3890010000000  0.5244290000000  0.4477200000000 1.0
C      1  0.5834050000000  0.4443770000000  0.5022640000000 1.0
C      1  0.5697450000000  0.5370670000000  0.4197200000000 1.0
C      1  0.5048270000000  0.5541320000000  0.5861660000000 1.0
C      1  0.5850570000000  0.4432300000000  0.5301170000000 1.0
C      1  0.4047060000000  0.5465830000000  0.5021440000000 1.0
C      1  0.4662130000000  0.4937810000000  0.6124010000000 1.0
C      1  0.3846670000000  0.4089260000000  0.4954250000000 1.0
C      1  0.5382190000000  0.5993390000000  0.4488120000000 1.0
C      1  0.4092960000000  0.4180010000000  0.5083390000000 1.0
C      1  0.5808390000000  0.4392620000000  0.4420850000000 1.0
C      1  0.4403700000000  0.4891940000000  0.5999650000000 1.0
C      1  0.4034070000000  0.4803890000000  0.5529650000000 1.0
C      1  0.4040050000000  0.4903670000000  0.4771290000000 1.0
C      1  0.4258990000000  0.5037280000000  0.4204860000000 1.0
C      1  0.3880590000000  0.4997100000000  0.5683150000000 1.0
C      1  0.4914670000000  0.3976350000000  0.5424310000000 1.0
C      1  0.5525620000000  0.5235470000000  0.5957900000000 1.0
END
