TITL C-862506-1665-107 537909.856499129 125000 -326.298861992824 0 0 56 (C1) n - 1
REM
REM in /home/nfs/bkarasulu/CARBON/AIRSS/Generating-Clusters/TERSOFF/Higher-Symm/FIRE-HFTN
REM
REM
REM
REM
REM
REM ./C.cell (b20cbc046b6831c77cfcea5457e17084)
REM AIRSS Version 0.9.1 bugfix July 2018 build 013d7b7c2542+ Fri, 06 Jul 2018 19:26:36 +0100
REM compiler GCC version 9.2.1 20190827 (Red Hat 9.2.1-1)
REM options -cpp -mtune=generic -march=x86-64 -g -O0 -fpre-include=/usr/include/finclude/math-vector-fortran.h
REM seed -1129892798 -446649498 -831110398 -1404744892 1780783652 1050496093 -848504792 -1074037197 -1620668087 -135056796 -1601703560 -1746978841 1268389054 -60125036 -2011485271 -389815296 -289948711 1723115493 -1771462124 48860097 1908621437 784907603 1940130523 -2100458621 1122088519 1293491745 -281731836 1947802269 -558178322 1736374739 866556388 -1476454426 -1542837404
REM
CELL 1.54180   50.00000   50.00000   50.00000   90.00000   90.00000   90.00000
LATT -1
SFAC C  
C      1  0.4812280000000  0.5956170000000  0.4209210000000 1.0
C      1  0.5137380000000  0.4710860000000  0.5772700000000 1.0
C      1  0.4979230000000  0.4057310000000  0.5142100000000 1.0
C      1  0.4601450000000  0.4978550000000  0.5503220000000 1.0
C      1  0.4679780000000  0.5471630000000  0.4105060000000 1.0
C      1  0.4960650000000  0.5352030000000  0.5403210000000 1.0
C      1  0.4871170000000  0.5105690000000  0.5552930000000 1.0
C      1  0.5663020000000  0.4384830000000  0.5152320000000 1.0
C      1  0.4673720000000  0.5536680000000  0.4803140000000 1.0
C      1  0.5358040000000  0.5702990000000  0.4516760000000 1.0
C      1  0.4851630000000  0.4733430000000  0.4495060000000 1.0
C      1  0.5280940000000  0.5019600000000  0.4553150000000 1.0
C      1  0.5707030000000  0.4879240000000  0.4978460000000 1.0
C      1  0.4169120000000  0.5156560000000  0.4895920000000 1.0
C      1  0.4417480000000  0.5180940000000  0.5046210000000 1.0
C      1  0.4364770000000  0.4692810000000  0.5093170000000 1.0
C      1  0.5203070000000  0.4457780000000  0.4724440000000 1.0
C      1  0.5082780000000  0.5750570000000  0.4594370000000 1.0
C      1  0.4994310000000  0.4989090000000  0.4499410000000 1.0
C      1  0.4546290000000  0.4734500000000  0.5661630000000 1.0
C      1  0.5556380000000  0.5139160000000  0.4978140000000 1.0
C      1  0.5459230000000  0.4773900000000  0.5394260000000 1.0
C      1  0.4631990000000  0.5882920000000  0.5293680000000 1.0
C      1  0.4807550000000  0.5722510000000  0.4038240000000 1.0
C      1  0.4504720000000  0.5589580000000  0.4572620000000 1.0
C      1  0.4516500000000  0.4943370000000  0.5198250000000 1.0
C      1  0.5033570000000  0.4895340000000  0.5127700000000 1.0
C      1  0.5271230000000  0.4058830000000  0.5116770000000 1.0
C      1  0.5680850000000  0.4675450000000  0.5198970000000 1.0
C      1  0.4961790000000  0.5558120000000  0.4778640000000 1.0
C      1  0.4713410000000  0.4389890000000  0.4843930000000 1.0
C      1  0.5500830000000  0.5462120000000  0.4586270000000 1.0
C      1  0.4781170000000  0.4778660000000  0.5180660000000 1.0
C      1  0.4522590000000  0.5615360000000  0.5276910000000 1.0
C      1  0.5267550000000  0.4734020000000  0.5154240000000 1.0
C      1  0.4646140000000  0.4483380000000  0.5555110000000 1.0
C      1  0.5446960000000  0.5235610000000  0.5242500000000 1.0
C      1  0.5399210000000  0.4531640000000  0.4524440000000 1.0
C      1  0.5284520000000  0.4486030000000  0.5001020000000 1.0
C      1  0.5377520000000  0.5235720000000  0.4737300000000 1.0
C      1  0.5457750000000  0.4806390000000  0.4468770000000 1.0
C      1  0.4451490000000  0.4527000000000  0.4863190000000 1.0
C      1  0.5363380000000  0.4314830000000  0.5542770000000 1.0
C      1  0.5452190000000  0.4220670000000  0.5280050000000 1.0
C      1  0.5176410000000  0.5340330000000  0.5195250000000 1.0
C      1  0.5135580000000  0.5358460000000  0.4901170000000 1.0
C      1  0.4926850000000  0.5964100000000  0.4474960000000 1.0
C      1  0.4778990000000  0.4506910000000  0.5297040000000 1.0
C      1  0.4806560000000  0.4290780000000  0.5105080000000 1.0
C      1  0.4918290000000  0.4502100000000  0.4662460000000 1.0
C      1  0.4554950000000  0.5437140000000  0.5050130000000 1.0
C      1  0.5045520000000  0.4990600000000  0.5763300000000 1.0
C      1  0.5348220000000  0.4598930000000  0.5603490000000 1.0
C      1  0.5486690000000  0.5054270000000  0.5458190000000 1.0
C      1  0.4502160000000  0.5431610000000  0.4329950000000 1.0
C      1  0.4877140000000  0.5612980000000  0.5502060000000 1.0
END
