TITL C-862503-991-1071 -67.0104497207982 125000 -167.509662179562 0 0 32 (C1) n - 1
REM
REM in /home/nfs/bkarasulu/CARBON/AIRSS/Generating-Clusters/TERSOFF/Higher-Symm/FIRE-HFTN
REM
REM
REM
REM
REM
REM ./C.cell (b20cbc046b6831c77cfcea5457e17084)
REM AIRSS Version 0.9.1 bugfix July 2018 build 013d7b7c2542+ Fri, 06 Jul 2018 19:26:36 +0100
REM compiler GCC version 9.2.1 20190827 (Red Hat 9.2.1-1)
REM options -cpp -mtune=generic -march=x86-64 -g -O0 -fpre-include=/usr/include/finclude/math-vector-fortran.h
REM seed 1840380072 10193752 1263884366 -497877156 -1097248521 -1227579734 1680507203 -1880489825 1514819529 -837111671 -349875759 733296384 1924367709 1840414116 972717197 -1949370278 491713269 183132905 461817785 2048374564 1887186073 -133538416 -289961056 -496518477 373229624 2094206123 283647660 -348377598 667808595 -288827323 -1829821965 721451760 -1635966775
REM
CELL 1.54180   50.00000   50.00000   50.00000   90.00000   90.00000   90.00000
LATT -1
SFAC C  
C      1  0.4885850000000  0.4657270000000  0.4550230000000 1.0
C      1  0.4728040000000  0.4798810000000  0.4757980000000 1.0
C      1  0.4503340000000  0.4678820000000  0.4911150000000 1.0
C      1  0.4474610000000  0.4689450000000  0.5210770000000 1.0
C      1  0.4697190000000  0.4657960000000  0.5408120000000 1.0
C      1  0.4975200000000  0.4607370000000  0.5335160000000 1.0
C      1  0.5221290000000  0.4642970000000  0.5483570000000 1.0
C      1  0.5461420000000  0.4656090000000  0.5312160000000 1.0
C      1  0.5466270000000  0.4582500000000  0.5020560000000 1.0
C      1  0.5344060000000  0.4742980000000  0.4798900000000 1.0
C      1  0.5180310000000  0.4635670000000  0.4570830000000 1.0
C      1  0.5056960000000  0.5096560000000  0.4592500000000 1.0
C      1  0.4772400000000  0.5187670000000  0.4605600000000 1.0
C      1  0.4604420000000  0.5188750000000  0.4852820000000 1.0
C      1  0.4557700000000  0.5421890000000  0.5028310000000 1.0
C      1  0.4575820000000  0.5417650000000  0.5323430000000 1.0
C      1  0.4801010000000  0.5310360000000  0.5473960000000 1.0
C      1  0.5017490000000  0.5173080000000  0.5340470000000 1.0
C      1  0.5296460000000  0.5215310000000  0.5401690000000 1.0
C      1  0.5498870000000  0.5232770000000  0.5192870000000 1.0
C      1  0.5468180000000  0.5125590000000  0.4919510000000 1.0
C      1  0.5290560000000  0.5237380000000  0.4711460000000 1.0
C      1  0.5106660000000  0.4396810000000  0.4908320000000 1.0
C      1  0.4994490000000  0.6174360000000  0.5022050000000 1.0
C      1  0.4957220000000  0.5662980000000  0.5038250000000 1.0
C      1  0.4944650000000  0.4880060000000  0.4934330000000 1.0
C      1  0.4961220000000  0.5401790000000  0.4913590000000 1.0
C      1  0.4968430000000  0.5146330000000  0.5059330000000 1.0
C      1  0.5016130000000  0.3894260000000  0.4859320000000 1.0
C      1  0.5034890000000  0.4633500000000  0.5061220000000 1.0
C      1  0.4979650000000  0.5914150000000  0.4896160000000 1.0
C      1  0.5100750000000  0.4126090000000  0.5010550000000 1.0
END
