TITL C-862505-1648-294 1051166.57285246 125000 -1190.11802853085 0 0 200 (C1) n - 1
REM
REM in /home/nfs/bkarasulu/CARBON/AIRSS/Generating-Clusters/TERSOFF/Higher-Symm/FIRE-HFTN
REM
REM
REM
REM
REM
REM ./C.cell (b20cbc046b6831c77cfcea5457e17084)
REM AIRSS Version 0.9.1 bugfix July 2018 build 013d7b7c2542+ Fri, 06 Jul 2018 19:26:36 +0100
REM compiler GCC version 9.2.1 20190827 (Red Hat 9.2.1-1)
REM options -cpp -mtune=generic -march=x86-64 -g -O0 -fpre-include=/usr/include/finclude/math-vector-fortran.h
REM seed -1870276483 -688291539 952191605 636564472 1768918023 -1961064446 -360938640 1189670768 -1878707146 -172925930 969861624 -412859930 1327070562 -1147361445 918517740 973901525 1985594240 618419254 -2063657842 1897781088 -252037064 1386276594 -1460860284 -2053310706 -933754350 1650009398 1669798253 -1653924760 -756657322 357107475 -397009822 -1151215548 -1533430365
REM
CELL 1.54180   50.00000   50.00000   50.00000   90.00000   90.00000   90.00000
LATT -1
SFAC C  
C      1  0.3652540000000  0.4682140000000  0.5056870000000 1.0
C      1  0.4683870000000  0.5223210000000  0.3650940000000 1.0
C      1  0.5028600000000  0.5507160000000  0.5235670000000 1.0
C      1  0.5452300000000  0.5280650000000  0.5259790000000 1.0
C      1  0.4695730000000  0.4717700000000  0.3686720000000 1.0
C      1  0.5929370000000  0.4947360000000  0.4927510000000 1.0
C      1  0.5113510000000  0.4602920000000  0.4467830000000 1.0
C      1  0.5355340000000  0.5872420000000  0.5647590000000 1.0
C      1  0.5159520000000  0.4540560000000  0.3952620000000 1.0
C      1  0.4515150000000  0.5240220000000  0.4756460000000 1.0
C      1  0.4545560000000  0.4601740000000  0.5840260000000 1.0
C      1  0.4418890000000  0.5164260000000  0.5392650000000 1.0
C      1  0.6035090000000  0.5352670000000  0.4664610000000 1.0
C      1  0.4179840000000  0.6048930000000  0.5386300000000 1.0
C      1  0.3858160000000  0.4817340000000  0.5211750000000 1.0
C      1  0.4937050000000  0.4331190000000  0.5748860000000 1.0
C      1  0.4916240000000  0.5031420000000  0.6139600000000 1.0
C      1  0.6156300000000  0.4839940000000  0.5107850000000 1.0
C      1  0.4081850000000  0.4892710000000  0.5662240000000 1.0
C      1  0.5188110000000  0.5115040000000  0.6254780000000 1.0
C      1  0.5211830000000  0.4157220000000  0.5745460000000 1.0
C      1  0.4797410000000  0.4385260000000  0.5126160000000 1.0
C      1  0.4184950000000  0.5784290000000  0.4959810000000 1.0
C      1  0.5668170000000  0.4561870000000  0.5908100000000 1.0
C      1  0.6053460000000  0.5506210000000  0.4944510000000 1.0
C      1  0.4837640000000  0.4037650000000  0.4449120000000 1.0
C      1  0.5582690000000  0.5978660000000  0.5248490000000 1.0
C      1  0.3895850000000  0.5530490000000  0.4610240000000 1.0
C      1  0.4870770000000  0.4253420000000  0.4055400000000 1.0
C      1  0.5287830000000  0.6057270000000  0.5188490000000 1.0
C      1  0.4836840000000  0.4974930000000  0.3691240000000 1.0
C      1  0.5461270000000  0.5215370000000  0.4632220000000 1.0
C      1  0.4555680000000  0.5782620000000  0.3994580000000 1.0
C      1  0.4764130000000  0.5358140000000  0.4830310000000 1.0
C      1  0.5919510000000  0.4901480000000  0.4418240000000 1.0
C      1  0.4159130000000  0.5305310000000  0.5939220000000 1.0
C      1  0.5762670000000  0.5752450000000  0.4643110000000 1.0
C      1  0.6167510000000  0.4250310000000  0.4600960000000 1.0
C      1  0.4823690000000  0.6272040000000  0.4964080000000 1.0
C      1  0.5522540000000  0.4828320000000  0.4959480000000 1.0
C      1  0.5995600000000  0.4625060000000  0.5266210000000 1.0
C      1  0.5053390000000  0.6186660000000  0.4523270000000 1.0
C      1  0.3886440000000  0.5239120000000  0.4173030000000 1.0
C      1  0.4364110000000  0.5253170000000  0.4058490000000 1.0
C      1  0.5257720000000  0.4653410000000  0.6165970000000 1.0
C      1  0.6019760000000  0.5524460000000  0.5453710000000 1.0
C      1  0.5836690000000  0.5140690000000  0.5135400000000 1.0
C      1  0.4484950000000  0.4671790000000  0.4475610000000 1.0
C      1  0.5670680000000  0.6143260000000  0.4792860000000 1.0
C      1  0.4435010000000  0.3898980000000  0.4933340000000 1.0
C      1  0.5815860000000  0.5011630000000  0.5593250000000 1.0
C      1  0.5000030000000  0.4626260000000  0.4199180000000 1.0
C      1  0.4088880000000  0.4911410000000  0.3830530000000 1.0
C      1  0.5393020000000  0.4318430000000  0.5005140000000 1.0
C      1  0.5625190000000  0.5850470000000  0.5521270000000 1.0
C      1  0.5765590000000  0.5597400000000  0.5581770000000 1.0
C      1  0.5923070000000  0.5023720000000  0.4142430000000 1.0
C      1  0.5592830000000  0.4536550000000  0.4989030000000 1.0
C      1  0.5464850000000  0.5018740000000  0.6167840000000 1.0
C      1  0.4685310000000  0.3844910000000  0.5421800000000 1.0
C      1  0.5043350000000  0.5797470000000  0.5135010000000 1.0
C      1  0.4228500000000  0.4659110000000  0.3899060000000 1.0
C      1  0.5261640000000  0.4267900000000  0.3902660000000 1.0
C      1  0.5665840000000  0.4047450000000  0.5527430000000 1.0
C      1  0.4181550000000  0.4324920000000  0.5778700000000 1.0
C      1  0.5784470000000  0.6009380000000  0.5042360000000 1.0
C      1  0.5289100000000  0.4746610000000  0.3802560000000 1.0
C      1  0.5647390000000  0.5425360000000  0.5790990000000 1.0
C      1  0.3695250000000  0.4557350000000  0.4798470000000 1.0
C      1  0.4345840000000  0.4928690000000  0.5547800000000 1.0
C      1  0.5210910000000  0.5977710000000  0.4655860000000 1.0
C      1  0.5629560000000  0.5384540000000  0.4795660000000 1.0
C      1  0.4483010000000  0.5633870000000  0.5567900000000 1.0
C      1  0.4692050000000  0.5713640000000  0.4474610000000 1.0
C      1  0.4924140000000  0.6024140000000  0.5393020000000 1.0
C      1  0.4210470000000  0.4781410000000  0.6141680000000 1.0
C      1  0.4524460000000  0.4615260000000  0.3903260000000 1.0
C      1  0.4573450000000  0.4643450000000  0.4748330000000 1.0
C      1  0.4311970000000  0.4469980000000  0.4361810000000 1.0
C      1  0.5322530000000  0.4592670000000  0.5511160000000 1.0
C      1  0.4757140000000  0.5716760000000  0.5959090000000 1.0
C      1  0.4065970000000  0.5545920000000  0.5783110000000 1.0
C      1  0.5062790000000  0.4377290000000  0.4638610000000 1.0
C      1  0.4714800000000  0.6045290000000  0.5586330000000 1.0
C      1  0.5980710000000  0.5060960000000  0.4663700000000 1.0
C      1  0.5206530000000  0.6080770000000  0.5499710000000 1.0
C      1  0.5586520000000  0.5139810000000  0.5757900000000 1.0
C      1  0.3698630000000  0.4825110000000  0.6140310000000 1.0
C      1  0.4006290000000  0.5444720000000  0.5251160000000 1.0
C      1  0.4825900000000  0.5030950000000  0.5229950000000 1.0
C      1  0.5093670000000  0.6250910000000  0.4243120000000 1.0
C      1  0.5785830000000  0.4751160000000  0.5464840000000 1.0
C      1  0.5410290000000  0.5758140000000  0.4129350000000 1.0
C      1  0.4441680000000  0.4968720000000  0.6223970000000 1.0
C      1  0.3723630000000  0.4778040000000  0.4335230000000 1.0
C      1  0.5738260000000  0.3712760000000  0.4871230000000 1.0
C      1  0.5571820000000  0.5458790000000  0.5065120000000 1.0
C      1  0.5340800000000  0.3957090000000  0.4654960000000 1.0
C      1  0.4442040000000  0.5282600000000  0.6086590000000 1.0
C      1  0.3911550000000  0.5497150000000  0.4317790000000 1.0
C      1  0.5270890000000  0.4218880000000  0.4765750000000 1.0
C      1  0.4127990000000  0.5548460000000  0.4792320000000 1.0
C      1  0.5893620000000  0.4134530000000  0.5363420000000 1.0
C      1  0.4974750000000  0.4173150000000  0.5206420000000 1.0
C      1  0.4071850000000  0.4959550000000  0.5074700000000 1.0
C      1  0.6047010000000  0.5356230000000  0.5210780000000 1.0
C      1  0.4755930000000  0.5701800000000  0.4189640000000 1.0
C      1  0.5774010000000  0.5455200000000  0.4231640000000 1.0
C      1  0.5278860000000  0.5047890000000  0.5792500000000 1.0
C      1  0.5343360000000  0.5330620000000  0.4392940000000 1.0
C      1  0.5084080000000  0.6300160000000  0.5119920000000 1.0
C      1  0.4579780000000  0.5564560000000  0.6152490000000 1.0
C      1  0.4835740000000  0.5306270000000  0.5718470000000 1.0
C      1  0.4413700000000  0.5959300000000  0.4878340000000 1.0
C      1  0.4201240000000  0.5223150000000  0.5166570000000 1.0
C      1  0.4704710000000  0.4410070000000  0.4855200000000 1.0
C      1  0.4083650000000  0.5764280000000  0.5269200000000 1.0
C      1  0.5987950000000  0.4465290000000  0.4681480000000 1.0
C      1  0.5088210000000  0.5180170000000  0.5603260000000 1.0
C      1  0.4676920000000  0.4547840000000  0.5323740000000 1.0
C      1  0.5366810000000  0.4730900000000  0.4495530000000 1.0
C      1  0.5519190000000  0.5963490000000  0.4582180000000 1.0
C      1  0.5449980000000  0.4970980000000  0.5204980000000 1.0
C      1  0.5258950000000  0.4224170000000  0.5248680000000 1.0
C      1  0.5558540000000  0.4545060000000  0.4400260000000 1.0
C      1  0.5222490000000  0.5612040000000  0.5671590000000 1.0
C      1  0.5243560000000  0.3920770000000  0.4386390000000 1.0
C      1  0.5435390000000  0.4281320000000  0.4284740000000 1.0
C      1  0.5083830000000  0.5326710000000  0.4062830000000 1.0
C      1  0.5246850000000  0.5235420000000  0.3839780000000 1.0
C      1  0.5870230000000  0.4155880000000  0.5073750000000 1.0
C      1  0.6246100000000  0.5107370000000  0.5222780000000 1.0
C      1  0.5893020000000  0.5764770000000  0.4903800000000 1.0
C      1  0.5117280000000  0.4577280000000  0.5709020000000 1.0
C      1  0.5888860000000  0.5537940000000  0.4477910000000 1.0
C      1  0.4569760000000  0.6128190000000  0.5061550000000 1.0
C      1  0.5387660000000  0.4153610000000  0.5507110000000 1.0
C      1  0.4857040000000  0.5602900000000  0.4690270000000 1.0
C      1  0.4413480000000  0.4226460000000  0.5608950000000 1.0
C      1  0.4645230000000  0.4428800000000  0.5602190000000 1.0
C      1  0.4728610000000  0.3863620000000  0.4928330000000 1.0
C      1  0.3577700000000  0.4648090000000  0.4549460000000 1.0
C      1  0.3871650000000  0.4784670000000  0.5498010000000 1.0
C      1  0.4616840000000  0.5824830000000  0.5727130000000 1.0
C      1  0.4545000000000  0.5371700000000  0.3862140000000 1.0
C      1  0.5169770000000  0.4374370000000  0.6195450000000 1.0
C      1  0.4259450000000  0.4597830000000  0.5901730000000 1.0
C      1  0.5074080000000  0.6060860000000  0.4025590000000 1.0
C      1  0.4207620000000  0.5657720000000  0.5551890000000 1.0
C      1  0.4723480000000  0.4830490000000  0.6246020000000 1.0
C      1  0.6077930000000  0.5136840000000  0.5606380000000 1.0
C      1  0.4430300000000  0.6184720000000  0.5310860000000 1.0
C      1  0.4269340000000  0.5313380000000  0.4881570000000 1.0
C      1  0.4461960000000  0.5142820000000  0.4301560000000 1.0
C      1  0.4886940000000  0.3849000000000  0.4675620000000 1.0
C      1  0.4344100000000  0.4185540000000  0.4400690000000 1.0
C      1  0.5433180000000  0.4928470000000  0.4698860000000 1.0
C      1  0.5491930000000  0.5489080000000  0.4199310000000 1.0
C      1  0.4588860000000  0.4888600000000  0.4312740000000 1.0
C      1  0.4854310000000  0.5306300000000  0.5100450000000 1.0
C      1  0.4575250000000  0.4032430000000  0.4316950000000 1.0
C      1  0.4602010000000  0.5375150000000  0.5520980000000 1.0
C      1  0.4850720000000  0.6316880000000  0.4679490000000 1.0
C      1  0.5163690000000  0.4779240000000  0.5912680000000 1.0
C      1  0.3677120000000  0.5049660000000  0.4244080000000 1.0
C      1  0.5029740000000  0.4976520000000  0.5414810000000 1.0
C      1  0.4709420000000  0.4588630000000  0.6078130000000 1.0
C      1  0.4977260000000  0.5552020000000  0.5840660000000 1.0
C      1  0.4903920000000  0.4370970000000  0.6060490000000 1.0
C      1  0.5541780000000  0.5247700000000  0.3860230000000 1.0
C      1  0.5076700000000  0.3630840000000  0.4640350000000 1.0
C      1  0.6123780000000  0.3981760000000  0.4690140000000 1.0
C      1  0.5600600000000  0.4588220000000  0.5612390000000 1.0
C      1  0.4287940000000  0.3966570000000  0.5179940000000 1.0
C      1  0.5001230000000  0.5127680000000  0.4258840000000 1.0
C      1  0.5090730000000  0.4171330000000  0.4273810000000 1.0
C      1  0.4853290000000  0.4880990000000  0.4201830000000 1.0
C      1  0.5925430000000  0.3932460000000  0.4894130000000 1.0
C      1  0.5841430000000  0.4615660000000  0.4465250000000 1.0
C      1  0.4738250000000  0.5197950000000  0.5970730000000 1.0
C      1  0.4020200000000  0.5057210000000  0.5888510000000 1.0
C      1  0.4860640000000  0.3906230000000  0.5192790000000 1.0
C      1  0.5014720000000  0.5605610000000  0.4098590000000 1.0
C      1  0.3952780000000  0.4791010000000  0.6274740000000 1.0
C      1  0.5252120000000  0.4819120000000  0.5343200000000 1.0
C      1  0.5226810000000  0.5403470000000  0.5437790000000 1.0
C      1  0.5133900000000  0.4987570000000  0.3731620000000 1.0
C      1  0.4616420000000  0.4825330000000  0.5243700000000 1.0
C      1  0.5579280000000  0.4770990000000  0.3843140000000 1.0
C      1  0.5498930000000  0.5983930000000  0.4284680000000 1.0
C      1  0.4102830000000  0.5159000000000  0.3988140000000 1.0
C      1  0.5456140000000  0.3741840000000  0.4812640000000 1.0
C      1  0.5873140000000  0.4449970000000  0.4976270000000 1.0
C      1  0.4640860000000  0.4430720000000  0.4103590000000 1.0
C      1  0.5544330000000  0.4720440000000  0.6138360000000 1.0
C      1  0.4423090000000  0.3979140000000  0.5443990000000 1.0
C      1  0.5318680000000  0.4177220000000  0.6023790000000 1.0
C      1  0.5055640000000  0.5779040000000  0.4822410000000 1.0
C      1  0.5701180000000  0.5015180000000  0.3939500000000 1.0
C      1  0.6060650000000  0.4371120000000  0.5429140000000 1.0
END
