TITL C-862502-1143-366 0.0120614843653328 125000 -778.794172196582 0 0 147 (C1) n - 1
REM
REM in /home/nfs/bkarasulu/CARBON/AIRSS/Generating-Clusters/TERSOFF/Higher-Symm/FIRE-HFTN
REM
REM
REM
REM
REM
REM ./C.cell (b20cbc046b6831c77cfcea5457e17084)
REM AIRSS Version 0.9.1 bugfix July 2018 build 013d7b7c2542+ Fri, 06 Jul 2018 19:26:36 +0100
REM compiler GCC version 9.2.1 20190827 (Red Hat 9.2.1-1)
REM options -cpp -mtune=generic -march=x86-64 -g -O0 -fpre-include=/usr/include/finclude/math-vector-fortran.h
REM seed 844211602 612136623 -156381334 -1665452976 1622984840 -52691761 155806843 72744624 -1864722482 -1516691683 1893531626 854110302 -785009441 -466722839 -543662098 1608229873 -128655539 -163101753 -859650238 -1278473582 674450177 -86897922 36217938 14566705 -1033987345 39710210 1205970142 723834508 -1208207693 -58869259 995897343 1628577181 1488502073
REM
CELL 1.54180   50.00000   50.00000   50.00000   90.00000   90.00000   90.00000
LATT -1
SFAC C  
C      1  0.4107820000000  0.4597190000000  0.4638890000000 1.0
C      1  0.5749930000000  0.4598960000000  0.4409590000000 1.0
C      1  0.5126210000000  0.4615010000000  0.5945540000000 1.0
C      1  0.4111520000000  0.4594140000000  0.5362750000000 1.0
C      1  0.5754490000000  0.4611450000000  0.5579130000000 1.0
C      1  0.5121030000000  0.4610420000000  0.4046160000000 1.0
C      1  0.6046600000000  0.5199900000000  0.4810300000000 1.0
C      1  0.4636680000000  0.5231040000000  0.5978000000000 1.0
C      1  0.4320560000000  0.5209130000000  0.4202920000000 1.0
C      1  0.6036700000000  0.5227810000000  0.5176900000000 1.0
C      1  0.4641170000000  0.5236700000000  0.4027000000000 1.0
C      1  0.4313590000000  0.5207470000000  0.5804570000000 1.0
C      1  0.5285640000000  0.5414350000000  0.5209950000000 1.0
C      1  0.4672310000000  0.5388620000000  0.5144890000000 1.0
C      1  0.5058580000000  0.5375440000000  0.4673020000000 1.0
C      1  0.5303120000000  0.5404820000000  0.4792220000000 1.0
C      1  0.4690460000000  0.5362830000000  0.4870590000000 1.0
C      1  0.5044260000000  0.5401650000000  0.5335510000000 1.0
C      1  0.5140820000000  0.4383760000000  0.5775840000000 1.0
C      1  0.4250830000000  0.4366750000000  0.4734970000000 1.0
C      1  0.5593160000000  0.4369600000000  0.4480660000000 1.0
C      1  0.5134940000000  0.4378180000000  0.4214960000000 1.0
C      1  0.4253850000000  0.4366020000000  0.5263300000000 1.0
C      1  0.5598430000000  0.4381870000000  0.5508800000000 1.0
C      1  0.5032950000000  0.5306890000000  0.4397770000000 1.0
C      1  0.5527000000000  0.5323890000000  0.5329630000000 1.0
C      1  0.4446660000000  0.5301670000000  0.5297020000000 1.0
C      1  0.5020690000000  0.5318430000000  0.5606730000000 1.0
C      1  0.5544360000000  0.5306910000000  0.4675680000000 1.0
C      1  0.4464080000000  0.5289380000000  0.4710840000000 1.0
C      1  0.5968100000000  0.5387370000000  0.5497940000000 1.0
C      1  0.4081210000000  0.5373990000000  0.5582100000000 1.0
C      1  0.4953680000000  0.5393570000000  0.3928990000000 1.0
C      1  0.5970440000000  0.5374010000000  0.4501470000000 1.0
C      1  0.4096540000000  0.5380310000000  0.4428030000000 1.0
C      1  0.4947680000000  0.5392280000000  0.6077180000000 1.0
C      1  0.4351750000000  0.5018410000000  0.4750290000000 1.0
C      1  0.5541490000000  0.5028330000000  0.4567450000000 1.0
C      1  0.5093950000000  0.5039850000000  0.5682250000000 1.0
C      1  0.4343640000000  0.5026080000000  0.5257400000000 1.0
C      1  0.5551800000000  0.5042820000000  0.5426160000000 1.0
C      1  0.5096880000000  0.5031770000000  0.4307350000000 1.0
C      1  0.3891800000000  0.5301600000000  0.4867500000000 1.0
C      1  0.5706350000000  0.5240000000000  0.4057060000000 1.0
C      1  0.5428670000000  0.5318100000000  0.6005590000000 1.0
C      1  0.3821970000000  0.5233670000000  0.5146300000000 1.0
C      1  0.5706700000000  0.5244560000000  0.5936390000000 1.0
C      1  0.5429620000000  0.5311000000000  0.3980690000000 1.0
C      1  0.5082470000000  0.4482290000000  0.4491270000000 1.0
C      1  0.5387030000000  0.4490170000000  0.5324860000000 1.0
C      1  0.4517660000000  0.4476860000000  0.5171800000000 1.0
C      1  0.5084280000000  0.4489220000000  0.5500340000000 1.0
C      1  0.5384320000000  0.4478750000000  0.4667800000000 1.0
C      1  0.4517400000000  0.4473630000000  0.4823020000000 1.0
C      1  0.5703520000000  0.5803920000000  0.5182900000000 1.0
C      1  0.4501480000000  0.5786160000000  0.5533120000000 1.0
C      1  0.4811280000000  0.5805030000000  0.4319290000000 1.0
C      1  0.5720270000000  0.5787580000000  0.4847530000000 1.0
C      1  0.4513880000000  0.5799440000000  0.4483000000000 1.0
C      1  0.4799270000000  0.5803210000000  0.5690320000000 1.0
C      1  0.4993240000000  0.4253350000000  0.4685630000000 1.0
C      1  0.5270170000000  0.4259170000000  0.5149100000000 1.0
C      1  0.4732710000000  0.4251480000000  0.5157770000000 1.0
C      1  0.4992780000000  0.4258030000000  0.5309740000000 1.0
C      1  0.5270440000000  0.4250960000000  0.4848080000000 1.0
C      1  0.4732250000000  0.4246790000000  0.4836270000000 1.0
C      1  0.5509940000000  0.5573880000000  0.4468270000000 1.0
C      1  0.5204310000000  0.5578410000000  0.5681200000000 1.0
C      1  0.4318460000000  0.5553600000000  0.4831620000000 1.0
C      1  0.5495190000000  0.5581350000000  0.5533840000000 1.0
C      1  0.5215260000000  0.5563850000000  0.4327530000000 1.0
C      1  0.4289710000000  0.5561350000000  0.5157800000000 1.0
C      1  0.4124130000000  0.4141030000000  0.4858110000000 1.0
C      1  0.5547330000000  0.4147570000000  0.4305200000000 1.0
C      1  0.5312440000000  0.4159860000000  0.5826250000000 1.0
C      1  0.4126740000000  0.4140250000000  0.5140540000000 1.0
C      1  0.5556020000000  0.4158570000000  0.5683400000000 1.0
C      1  0.5303960000000  0.4152900000000  0.4162030000000 1.0
C      1  0.4753820000000  0.4942490000000  0.4842660000000 1.0
C      1  0.5254730000000  0.4951460000000  0.4864130000000 1.0
C      1  0.4982150000000  0.4962810000000  0.5285410000000 1.0
C      1  0.4737510000000  0.4961970000000  0.5129580000000 1.0
C      1  0.5239820000000  0.4978840000000  0.5153880000000 1.0
C      1  0.5010050000000  0.4960130000000  0.4710700000000 1.0
C      1  0.4850130000000  0.4989940000000  0.3970730000000 1.0
C      1  0.5965260000000  0.4983850000000  0.5385740000000 1.0
C      1  0.4171510000000  0.4968410000000  0.5635770000000 1.0
C      1  0.4853280000000  0.4988130000000  0.6022000000000 1.0
C      1  0.5955410000000  0.4967510000000  0.4601510000000 1.0
C      1  0.4176450000000  0.4972990000000  0.4371730000000 1.0
C      1  0.5837840000000  0.4713230000000  0.4685180000000 1.0
C      1  0.4841710000000  0.4729110000000  0.5884400000000 1.0
C      1  0.4304050000000  0.4714810000000  0.4425900000000 1.0
C      1  0.5845870000000  0.4727540000000  0.5304790000000 1.0
C      1  0.4837870000000  0.4729220000000  0.4107880000000 1.0
C      1  0.4304480000000  0.4713890000000  0.5575240000000 1.0
C      1  0.4016560000000  0.5097000000000  0.5354220000000 1.0
C      1  0.5180630000000  0.5112140000000  0.3981260000000 1.0
C      1  0.5797970000000  0.5111360000000  0.5663120000000 1.0
C      1  0.4027060000000  0.5104830000000  0.4658820000000 1.0
C      1  0.5180320000000  0.5118510000000  0.6010310000000 1.0
C      1  0.5791380000000  0.5105850000000  0.4330960000000 1.0
C      1  0.4608120000000  0.4559220000000  0.4041440000000 1.0
C      1  0.6013810000000  0.4553100000000  0.5139820000000 1.0
C      1  0.4368540000000  0.4545180000000  0.5805430000000 1.0
C      1  0.4615210000000  0.4556480000000  0.5952400000000 1.0
C      1  0.6006400000000  0.4543090000000  0.4852710000000 1.0
C      1  0.4362700000000  0.4549120000000  0.4191800000000 1.0
C      1  0.5054880000000  0.5802610000000  0.5459130000000 1.0
C      1  0.4582890000000  0.5765610000000  0.4820300000000 1.0
C      1  0.5389770000000  0.5806280000000  0.4705640000000 1.0
C      1  0.5063800000000  0.5777490000000  0.4552390000000 1.0
C      1  0.4555010000000  0.5790220000000  0.5179460000000 1.0
C      1  0.5374920000000  0.5816040000000  0.5292360000000 1.0
C      1  0.5276810000000  0.3916190000000  0.4836340000000 1.0
C      1  0.5001910000000  0.3923400000000  0.5323910000000 1.0
C      1  0.4717670000000  0.3912380000000  0.4841800000000 1.0
C      1  0.5276690000000  0.3925060000000  0.5164360000000 1.0
C      1  0.5001500000000  0.3919130000000  0.4677670000000 1.0
C      1  0.4718080000000  0.3917520000000  0.5159830000000 1.0
C      1  0.5509810000000  0.4760850000000  0.4810300000000 1.0
C      1  0.4899760000000  0.4769640000000  0.5535300000000 1.0
C      1  0.4577640000000  0.4752960000000  0.4648330000000 1.0
C      1  0.5510350000000  0.4773990000000  0.5183620000000 1.0
C      1  0.4902340000000  0.4763460000000  0.4459620000000 1.0
C      1  0.4576720000000  0.4761410000000  0.5346470000000 1.0
C      1  0.4766510000000  0.5383900000000  0.4303830000000 1.0
C      1  0.5743680000000  0.5387970000000  0.5144210000000 1.0
C      1  0.4498900000000  0.5336920000000  0.5582560000000 1.0
C      1  0.4754140000000  0.5386050000000  0.5705580000000 1.0
C      1  0.5765020000000  0.5328960000000  0.4864320000000 1.0
C      1  0.4512360000000  0.5323960000000  0.4425000000000 1.0
C      1  0.3996830000000  0.4810890000000  0.4835460000000 1.0
C      1  0.5638550000000  0.4815820000000  0.4218560000000 1.0
C      1  0.5350070000000  0.4829030000000  0.5942130000000 1.0
C      1  0.3996660000000  0.4806600000000  0.5169580000000 1.0
C      1  0.5642870000000  0.4824500000000  0.5773110000000 1.0
C      1  0.5349310000000  0.4820660000000  0.4046550000000 1.0
C      1  0.4199970000000  0.5622910000000  0.5458480000000 1.0
C      1  0.5017160000000  0.5642510000000  0.4087880000000 1.0
C      1  0.5807760000000  0.5642710000000  0.5471750000000 1.0
C      1  0.4205290000000  0.5635420000000  0.4546930000000 1.0
C      1  0.5002700000000  0.5645460000000  0.5923030000000 1.0
C      1  0.5814320000000  0.5628790000000  0.4547810000000 1.0
C      1  0.4865200000000  0.5604380000000  0.4761770000000 1.0
C      1  0.4844080000000  0.5631940000000  0.5254740000000 1.0
C      1  0.5318700000000  0.5646910000000  0.4998450000000 1.0
END
