TITL C-862502-1143-1151 -0.000109826406255047 125000 -75.9913967880655 0 0 17 (C3) n - 1
REM
REM in /home/nfs/bkarasulu/CARBON/AIRSS/Generating-Clusters/TERSOFF/Higher-Symm/FIRE-HFTN
REM
REM
REM
REM
REM
REM ./C.cell (b20cbc046b6831c77cfcea5457e17084)
REM AIRSS Version 0.9.1 bugfix July 2018 build 013d7b7c2542+ Fri, 06 Jul 2018 19:26:36 +0100
REM compiler GCC version 9.2.1 20190827 (Red Hat 9.2.1-1)
REM options -cpp -mtune=generic -march=x86-64 -g -O0 -fpre-include=/usr/include/finclude/math-vector-fortran.h
REM seed 1646670901 -840457012 152956512 766676258 -2138884049 275323318 -2021425774 1944647186 -1150821997 -605387952 1691637341 29896544 -1628591144 1888413069 820856195 1355893665 307085906 -2034164865 2029508904 1114369536 1752947263 -215252531 57190288 1264383783 1254150375 -803797282 1333976201 2068968786 -923715336 -184752758 653676479 1419732915 770258736
REM
CELL 1.54180   50.00000   50.00000   50.00000   90.00000   90.00000   90.00000
LATT -1
SFAC C  
C      1  0.5277560000000  0.5504180000000  0.5167840000000 1.0
C      1  0.5277560000000  0.4572460000000  0.5380100000000 1.0
C      1  0.5277560000000  0.4854500000000  0.4467080000000 1.0
C      1  0.5380510000000  0.5172300000000  0.5216650000000 1.0
C      1  0.5380510000000  0.4696120000000  0.5068280000000 1.0
C      1  0.5380510000000  0.5062700000000  0.4730080000000 1.0
C      1  0.4814420000000  0.5176260000000  0.5220980000000 1.0
C      1  0.4814420000000  0.4690400000000  0.5069550000000 1.0
C      1  0.4814420000000  0.5064470000000  0.4724490000000 1.0
C      1  0.4562780000000  0.5275860000000  0.5327270000000 1.0
C      1  0.4562780000000  0.4548540000000  0.5102660000000 1.0
C      1  0.4562780000000  0.5106730000000  0.4585090000000 1.0
C      1  0.5067270000000  0.4548440000000  0.5100340000000 1.0
C      1  0.5067270000000  0.5108790000000  0.4586150000000 1.0
C      1  0.5067270000000  0.5273910000000  0.5328520000000 1.0
C      1  0.5415360000000  0.4977040000000  0.5005010000000 1.0
C      1  0.4814070000000  0.4977040000000  0.5005010000000 1.0
END
