TITL C-862503-991-525 0.00453844505595638 125000 -151.085050280609 0 0 33 (C1) n - 1
REM
REM in /home/nfs/bkarasulu/CARBON/AIRSS/Generating-Clusters/TERSOFF/Higher-Symm/FIRE-HFTN
REM
REM
REM
REM
REM
REM ./C.cell (b20cbc046b6831c77cfcea5457e17084)
REM AIRSS Version 0.9.1 bugfix July 2018 build 013d7b7c2542+ Fri, 06 Jul 2018 19:26:36 +0100
REM compiler GCC version 9.2.1 20190827 (Red Hat 9.2.1-1)
REM options -cpp -mtune=generic -march=x86-64 -g -O0 -fpre-include=/usr/include/finclude/math-vector-fortran.h
REM seed 114432840 1862041189 2045965255 1528177154 1262571448 1163902937 790500772 79194548 -1822350551 565349325 1016936733 -1391809937 1718576238 -174612955 556589769 -789928053 -33300687 1592589436 -1665661713 611457704 -1766100944 318376216 -1788607396 -544127141 -944087344 -1206584078 1141379482 -94556841 1501023615 -613245796 -2010928772 -432941263 -1673929019
REM
CELL 1.54180   50.00000   50.00000   50.00000   90.00000   90.00000   90.00000
LATT -1
SFAC C  
C      1  0.5485120000000  0.4577350000000  0.5036410000000 1.0
C      1  0.5264740000000  0.5314750000000  0.4656880000000 1.0
C      1  0.4589370000000  0.5225670000000  0.5583930000000 1.0
C      1  0.5609310000000  0.5245430000000  0.4886350000000 1.0
C      1  0.4461900000000  0.5236200000000  0.5321130000000 1.0
C      1  0.4480510000000  0.4690720000000  0.4953910000000 1.0
C      1  0.5348940000000  0.4365150000000  0.5229890000000 1.0
C      1  0.4566310000000  0.4469480000000  0.4740730000000 1.0
C      1  0.4878240000000  0.5242730000000  0.5536340000000 1.0
C      1  0.4688640000000  0.4721950000000  0.4590640000000 1.0
C      1  0.5220070000000  0.4565070000000  0.5441490000000 1.0
C      1  0.5570110000000  0.5346750000000  0.4576340000000 1.0
C      1  0.4607080000000  0.4699150000000  0.5212700000000 1.0
C      1  0.5038600000000  0.5452240000000  0.4540010000000 1.0
C      1  0.5253780000000  0.5474500000000  0.5302460000000 1.0
C      1  0.4705130000000  0.5392460000000  0.4630760000000 1.0
C      1  0.5204170000000  0.5722790000000  0.5119450000000 1.0
C      1  0.5399590000000  0.4645620000000  0.4760840000000 1.0
C      1  0.4685220000000  0.4442150000000  0.5387440000000 1.0
C      1  0.5184490000000  0.4513540000000  0.4566830000000 1.0
C      1  0.4942080000000  0.5566750000000  0.5037580000000 1.0
C      1  0.4973230000000  0.4752600000000  0.4558510000000 1.0
C      1  0.4933900000000  0.4628930000000  0.5466830000000 1.0
C      1  0.4815730000000  0.5309930000000  0.4309250000000 1.0
C      1  0.4520780000000  0.4938330000000  0.4753500000000 1.0
C      1  0.4672220000000  0.5254340000000  0.5114400000000 1.0
C      1  0.5292700000000  0.5234970000000  0.4959770000000 1.0
C      1  0.5343390000000  0.4784880000000  0.5238490000000 1.0
C      1  0.5173670000000  0.4872210000000  0.4784890000000 1.0
C      1  0.4621810000000  0.5199760000000  0.4832750000000 1.0
C      1  0.4864490000000  0.4875510000000  0.5280010000000 1.0
C      1  0.4983810000000  0.5275720000000  0.5241060000000 1.0
C      1  0.5131200000000  0.4986310000000  0.5096000000000 1.0
END
