TITL C-862507-1800-208 496998.859600342 125000 -927.039784087697 0 0 160 (C1) n - 1
REM
REM in /home/nfs/bkarasulu/CARBON/AIRSS/Generating-Clusters/TERSOFF/Higher-Symm/FIRE-HFTN
REM
REM
REM
REM
REM
REM ./C.cell (b20cbc046b6831c77cfcea5457e17084)
REM AIRSS Version 0.9.1 bugfix July 2018 build 013d7b7c2542+ Fri, 06 Jul 2018 19:26:36 +0100
REM compiler GCC version 9.2.1 20190827 (Red Hat 9.2.1-1)
REM options -cpp -mtune=generic -march=x86-64 -g -O0 -fpre-include=/usr/include/finclude/math-vector-fortran.h
REM seed -409487967 1398759721 -1087326781 -1635656406 -1578832912 1055027525 -1076073997 -1569420809 -1444265909 -1809932304 -1296636470 985534866 175172725 41670901 491986838 -722157912 -1946874555 907768963 -93192859 -1619326263 812884685 -1952046026 -1423396418 1696554604 1885612832 -801762533 81409481 -474112561 1736124778 869955398 1920543713 -2107589901 -1477907598
REM
CELL 1.54180   50.00000   50.00000   50.00000   90.00000   90.00000   90.00000
LATT -1
SFAC C  
C      1  0.4663780000000  0.4258870000000  0.4639320000000 1.0
C      1  0.5115720000000  0.5374710000000  0.5942040000000 1.0
C      1  0.5339360000000  0.5297350000000  0.4662740000000 1.0
C      1  0.4948030000000  0.6242070000000  0.5349130000000 1.0
C      1  0.4509740000000  0.4510460000000  0.4680680000000 1.0
C      1  0.4758320000000  0.5260450000000  0.4709330000000 1.0
C      1  0.4480040000000  0.5390590000000  0.4192260000000 1.0
C      1  0.5331320000000  0.4022810000000  0.6221710000000 1.0
C      1  0.5349070000000  0.6075530000000  0.5179330000000 1.0
C      1  0.4916050000000  0.3903670000000  0.4790550000000 1.0
C      1  0.5157280000000  0.5811990000000  0.5634310000000 1.0
C      1  0.4215370000000  0.4484550000000  0.4696130000000 1.0
C      1  0.5358720000000  0.4076120000000  0.5719070000000 1.0
C      1  0.5522340000000  0.5678540000000  0.5475400000000 1.0
C      1  0.3879900000000  0.4781180000000  0.4788760000000 1.0
C      1  0.4651580000000  0.5634740000000  0.4111040000000 1.0
C      1  0.5803430000000  0.5293270000000  0.4456040000000 1.0
C      1  0.5301980000000  0.4213780000000  0.4975630000000 1.0
C      1  0.4916230000000  0.4334700000000  0.4197430000000 1.0
C      1  0.4440830000000  0.5167280000000  0.5622540000000 1.0
C      1  0.5861650000000  0.4749040000000  0.5508250000000 1.0
C      1  0.5604440000000  0.4569230000000  0.4564940000000 1.0
C      1  0.4325650000000  0.5011500000000  0.4772990000000 1.0
C      1  0.5812930000000  0.4546400000000  0.4759890000000 1.0
C      1  0.4121840000000  0.4043080000000  0.4851360000000 1.0
C      1  0.5620610000000  0.5722110000000  0.4984030000000 1.0
C      1  0.5799900000000  0.5000800000000  0.4387060000000 1.0
C      1  0.4416500000000  0.5692260000000  0.5333190000000 1.0
C      1  0.5918720000000  0.4275240000000  0.5259420000000 1.0
C      1  0.4926500000000  0.4627080000000  0.5310240000000 1.0
C      1  0.4320030000000  0.4007920000000  0.4373190000000 1.0
C      1  0.3878120000000  0.4728470000000  0.5076700000000 1.0
C      1  0.5462010000000  0.4337490000000  0.4472090000000 1.0
C      1  0.4853070000000  0.6061620000000  0.4761600000000 1.0
C      1  0.5076930000000  0.4018660000000  0.4560950000000 1.0
C      1  0.5799430000000  0.5078890000000  0.4094930000000 1.0
C      1  0.4956190000000  0.4333430000000  0.5406800000000 1.0
C      1  0.5587910000000  0.4802950000000  0.5398170000000 1.0
C      1  0.4604580000000  0.4018790000000  0.4811220000000 1.0
C      1  0.5858480000000  0.4737500000000  0.4965590000000 1.0
C      1  0.5218920000000  0.4731780000000  0.4884410000000 1.0
C      1  0.4460280000000  0.5274520000000  0.4706080000000 1.0
C      1  0.4903650000000  0.5163850000000  0.5983870000000 1.0
C      1  0.6100050000000  0.5193420000000  0.5396260000000 1.0
C      1  0.4737900000000  0.4693720000000  0.5917710000000 1.0
C      1  0.5544910000000  0.5177160000000  0.3991810000000 1.0
C      1  0.4887440000000  0.5907090000000  0.4480830000000 1.0
C      1  0.5049060000000  0.4766860000000  0.4373700000000 1.0
C      1  0.5147460000000  0.5198960000000  0.4471190000000 1.0
C      1  0.5082690000000  0.6236500000000  0.4805800000000 1.0
C      1  0.4339690000000  0.3946910000000  0.4673990000000 1.0
C      1  0.3945610000000  0.4924850000000  0.5283990000000 1.0
C      1  0.5478780000000  0.5605510000000  0.4301690000000 1.0
C      1  0.5929570000000  0.5350270000000  0.4927770000000 1.0
C      1  0.4290740000000  0.4701830000000  0.5198190000000 1.0
C      1  0.5057070000000  0.5705420000000  0.4631930000000 1.0
C      1  0.4629730000000  0.5147260000000  0.4095410000000 1.0
C      1  0.4600710000000  0.4760920000000  0.4578780000000 1.0
C      1  0.4912330000000  0.4961260000000  0.6190460000000 1.0
C      1  0.4879360000000  0.4198530000000  0.4442860000000 1.0
C      1  0.4733230000000  0.5601840000000  0.4980840000000 1.0
C      1  0.4309760000000  0.4427450000000  0.5853030000000 1.0
C      1  0.5202970000000  0.4609560000000  0.5733100000000 1.0
C      1  0.5279540000000  0.4168280000000  0.5976680000000 1.0
C      1  0.5560530000000  0.4824190000000  0.4432270000000 1.0
C      1  0.5264250000000  0.4513480000000  0.5087940000000 1.0
C      1  0.4049990000000  0.4982270000000  0.4655120000000 1.0
C      1  0.4878610000000  0.5229170000000  0.3954400000000 1.0
C      1  0.5572350000000  0.5446630000000  0.4551060000000 1.0
C      1  0.4872800000000  0.4471160000000  0.6073010000000 1.0
C      1  0.4742900000000  0.4310320000000  0.6275630000000 1.0
C      1  0.5318110000000  0.6081710000000  0.4883690000000 1.0
C      1  0.4405050000000  0.5842930000000  0.4801010000000 1.0
C      1  0.5370040000000  0.5569180000000  0.5100270000000 1.0
C      1  0.5308480000000  0.4865990000000  0.4273080000000 1.0
C      1  0.4896610000000  0.5528570000000  0.3964990000000 1.0
C      1  0.4914980000000  0.4864880000000  0.5489860000000 1.0
C      1  0.5696020000000  0.4112430000000  0.5346170000000 1.0
C      1  0.4094290000000  0.4442530000000  0.4439920000000 1.0
C      1  0.4885930000000  0.5951870000000  0.5287730000000 1.0
C      1  0.4868920000000  0.4614470000000  0.4178280000000 1.0
C      1  0.4933970000000  0.5484210000000  0.4801300000000 1.0
C      1  0.3930400000000  0.5266520000000  0.4646290000000 1.0
C      1  0.5743560000000  0.5545030000000  0.4786850000000 1.0
C      1  0.4052470000000  0.4837010000000  0.5541770000000 1.0
C      1  0.5051450000000  0.4023480000000  0.5032250000000 1.0
C      1  0.4634560000000  0.5258030000000  0.5829880000000 1.0
C      1  0.5079210000000  0.5048300000000  0.3844570000000 1.0
C      1  0.5228090000000  0.6312580000000  0.5312190000000 1.0
C      1  0.6113770000000  0.5163760000000  0.4784790000000 1.0
C      1  0.4575400000000  0.4671170000000  0.4133270000000 1.0
C      1  0.4759500000000  0.5712390000000  0.5930560000000 1.0
C      1  0.5402550000000  0.5324200000000  0.5952080000000 1.0
C      1  0.5212240000000  0.5400010000000  0.4911480000000 1.0
C      1  0.5223250000000  0.5811840000000  0.5322330000000 1.0
C      1  0.4093520000000  0.5410560000000  0.5308330000000 1.0
C      1  0.5992200000000  0.5675670000000  0.5290240000000 1.0
C      1  0.5647130000000  0.4033240000000  0.5635860000000 1.0
C      1  0.5118690000000  0.5993280000000  0.4300410000000 1.0
C      1  0.4449700000000  0.4838660000000  0.4985810000000 1.0
C      1  0.5471200000000  0.5043500000000  0.5527490000000 1.0
C      1  0.5397230000000  0.5891550000000  0.4321500000000 1.0
C      1  0.4650980000000  0.5844500000000  0.5449100000000 1.0
C      1  0.4854040000000  0.5356490000000  0.5614160000000 1.0
C      1  0.5319870000000  0.4159820000000  0.4660390000000 1.0
C      1  0.4644210000000  0.5820460000000  0.4349650000000 1.0
C      1  0.6299350000000  0.4562870000000  0.5289220000000 1.0
C      1  0.4412740000000  0.4426760000000  0.4063080000000 1.0
C      1  0.4651140000000  0.5381900000000  0.5175890000000 1.0
C      1  0.4729920000000  0.4904670000000  0.5046620000000 1.0
C      1  0.6002820000000  0.4992870000000  0.5584490000000 1.0
C      1  0.5416990000000  0.4316150000000  0.4183070000000 1.0
C      1  0.4982210000000  0.5147950000000  0.5415200000000 1.0
C      1  0.4301810000000  0.5394260000000  0.4944000000000 1.0
C      1  0.4076140000000  0.4293990000000  0.5415560000000 1.0
C      1  0.5506190000000  0.5091640000000  0.5812060000000 1.0
C      1  0.4172890000000  0.4908320000000  0.4377960000000 1.0
C      1  0.4817640000000  0.5152810000000  0.5175250000000 1.0
C      1  0.4462620000000  0.4852080000000  0.4340730000000 1.0
C      1  0.4553940000000  0.5512760000000  0.5968250000000 1.0
C      1  0.4325070000000  0.4892780000000  0.5641900000000 1.0
C      1  0.4426360000000  0.5737210000000  0.4529160000000 1.0
C      1  0.5417190000000  0.4158920000000  0.5253120000000 1.0
C      1  0.4390430000000  0.5366800000000  0.5378670000000 1.0
C      1  0.5232710000000  0.4199320000000  0.5472740000000 1.0
C      1  0.5468670000000  0.5463280000000  0.4036440000000 1.0
C      1  0.5436210000000  0.4711160000000  0.3843680000000 1.0
C      1  0.4457620000000  0.4675140000000  0.5811360000000 1.0
C      1  0.5606860000000  0.5738250000000  0.5745980000000 1.0
C      1  0.5306860000000  0.5827180000000  0.4726540000000 1.0
C      1  0.4591380000000  0.4100630000000  0.5104140000000 1.0
C      1  0.4162920000000  0.4436670000000  0.5177280000000 1.0
C      1  0.4375440000000  0.5444280000000  0.4473120000000 1.0
C      1  0.4290130000000  0.5688780000000  0.5024090000000 1.0
C      1  0.5620590000000  0.5425150000000  0.5316250000000 1.0
C      1  0.4113380000000  0.4329070000000  0.4913720000000 1.0
C      1  0.5008550000000  0.4727920000000  0.4672150000000 1.0
C      1  0.5269360000000  0.5190290000000  0.5383140000000 1.0
C      1  0.5553020000000  0.4478790000000  0.3980180000000 1.0
C      1  0.3843410000000  0.5424760000000  0.4882650000000 1.0
C      1  0.6032850000000  0.4964470000000  0.4581150000000 1.0
C      1  0.6354060000000  0.4370690000000  0.5068680000000 1.0
C      1  0.4997060000000  0.5613430000000  0.5769430000000 1.0
C      1  0.6024460000000  0.4522680000000  0.5408670000000 1.0
C      1  0.5150520000000  0.4422170000000  0.5968540000000 1.0
C      1  0.4778160000000  0.5890930000000  0.5011740000000 1.0
C      1  0.4241360000000  0.4277260000000  0.4255910000000 1.0
C      1  0.3907840000000  0.5204130000000  0.5234150000000 1.0
C      1  0.5572560000000  0.5557990000000  0.5967000000000 1.0
C      1  0.4964500000000  0.4789190000000  0.5751130000000 1.0
C      1  0.6116150000000  0.4192860000000  0.5050790000000 1.0
C      1  0.5369220000000  0.4591800000000  0.5414180000000 1.0
C      1  0.5650520000000  0.4864600000000  0.5116070000000 1.0
C      1  0.3983370000000  0.5663880000000  0.4991960000000 1.0
C      1  0.4244220000000  0.4237080000000  0.5644720000000 1.0
C      1  0.4855700000000  0.4117470000000  0.5228660000000 1.0
C      1  0.5331740000000  0.4960240000000  0.3983150000000 1.0
C      1  0.5804180000000  0.5854540000000  0.5166450000000 1.0
C      1  0.5928770000000  0.5380830000000  0.5239510000000 1.0
C      1  0.4945100000000  0.5361390000000  0.4347010000000 1.0
END
