TITL C-862132-7359-425 -14.1251941411406 125000 -896.087762388629 0 0 155 (C1) n - 1
REM
REM in /home/nfs/bkarasulu/CARBON/AIRSS/Generating-Clusters/TERSOFF/Higher-Symm/FIRE-HFTN
REM
REM
REM
REM
REM
REM ./C.cell (b20cbc046b6831c77cfcea5457e17084)
REM AIRSS Version 0.9.1 bugfix July 2018 build 013d7b7c2542+ Fri, 06 Jul 2018 19:26:36 +0100
REM compiler GCC version 9.2.1 20190827 (Red Hat 9.2.1-1)
REM options -cpp -mtune=generic -march=x86-64 -g -O0 -fpre-include=/usr/include/finclude/math-vector-fortran.h
REM seed -178609578 -1824295837 1476085325 -1281804347 1017834727 -1546069969 -2116462133 468863929 -1497490777 1535631332 1744275366 632789375 -1333980391 627355503 933058983 -1082317277 1353791344 -1531219634 -1833214927 -1593448290 515165381 1196376522 1082162753 1795644590 -963683347 1501246071 1527286911 385028411 1632680660 -989889072 779117918 -605352340 864382688
REM
CELL 1.54180   50.00000   50.00000   50.00000   90.00000   90.00000   90.00000
LATT -1
SFAC C  
C      1  0.4489050000000  0.4437860000000  0.4760780000000 1.0
C      1  0.4398090000000  0.4924910000000  0.4761380000000 1.0
C      1  0.4821000000000  0.4579110000000  0.5766220000000 1.0
C      1  0.4263120000000  0.5200110000000  0.4295620000000 1.0
C      1  0.5034800000000  0.5592640000000  0.4459950000000 1.0
C      1  0.6142310000000  0.5363120000000  0.4872650000000 1.0
C      1  0.5608380000000  0.5785100000000  0.4390460000000 1.0
C      1  0.4504410000000  0.6002740000000  0.5341370000000 1.0
C      1  0.4453230000000  0.4861770000000  0.4471550000000 1.0
C      1  0.4904690000000  0.4559390000000  0.4549250000000 1.0
C      1  0.4962650000000  0.4328810000000  0.4730930000000 1.0
C      1  0.4649910000000  0.4838500000000  0.6214300000000 1.0
C      1  0.4174990000000  0.4460030000000  0.4827530000000 1.0
C      1  0.5874400000000  0.5418590000000  0.4541530000000 1.0
C      1  0.4026630000000  0.4928750000000  0.5073590000000 1.0
C      1  0.4358260000000  0.5357820000000  0.5012470000000 1.0
C      1  0.4746920000000  0.4008370000000  0.4358820000000 1.0
C      1  0.5047800000000  0.5702720000000  0.5084000000000 1.0
C      1  0.4705960000000  0.4311770000000  0.4920980000000 1.0
C      1  0.4310440000000  0.5823960000000  0.5179360000000 1.0
C      1  0.5578460000000  0.4845700000000  0.4910520000000 1.0
C      1  0.5178290000000  0.4342130000000  0.5505970000000 1.0
C      1  0.5226350000000  0.4850120000000  0.4261880000000 1.0
C      1  0.4185850000000  0.4157670000000  0.5481900000000 1.0
C      1  0.4086230000000  0.4818770000000  0.5827190000000 1.0
C      1  0.4438120000000  0.5050400000000  0.5589380000000 1.0
C      1  0.5467410000000  0.4048490000000  0.5235130000000 1.0
C      1  0.5265220000000  0.5052610000000  0.5833600000000 1.0
C      1  0.5727060000000  0.4797540000000  0.4208960000000 1.0
C      1  0.5330960000000  0.5148530000000  0.4381870000000 1.0
C      1  0.5014470000000  0.5956330000000  0.5245580000000 1.0
C      1  0.5269340000000  0.4834320000000  0.5629520000000 1.0
C      1  0.6031890000000  0.5611290000000  0.5007990000000 1.0
C      1  0.4563450000000  0.5490240000000  0.5209440000000 1.0
C      1  0.6133130000000  0.4818590000000  0.4849830000000 1.0
C      1  0.4559060000000  0.5685710000000  0.4334340000000 1.0
C      1  0.4864170000000  0.4725590000000  0.5160440000000 1.0
C      1  0.4942750000000  0.4034060000000  0.4576000000000 1.0
C      1  0.4797250000000  0.4440030000000  0.5166400000000 1.0
C      1  0.4104320000000  0.4524390000000  0.5868690000000 1.0
C      1  0.5484490000000  0.5580990000000  0.4806170000000 1.0
C      1  0.4385640000000  0.4493210000000  0.5287470000000 1.0
C      1  0.5651290000000  0.5239140000000  0.5546800000000 1.0
C      1  0.5293880000000  0.4022310000000  0.5005530000000 1.0
C      1  0.5134520000000  0.5027650000000  0.3772970000000 1.0
C      1  0.5289010000000  0.5530210000000  0.5769870000000 1.0
C      1  0.5757410000000  0.4855320000000  0.5816970000000 1.0
C      1  0.4728230000000  0.5045160000000  0.5594440000000 1.0
C      1  0.5057450000000  0.4564640000000  0.4299560000000 1.0
C      1  0.4686010000000  0.5527480000000  0.5721330000000 1.0
C      1  0.5886420000000  0.4836070000000  0.5312590000000 1.0
C      1  0.5236210000000  0.4079300000000  0.4499230000000 1.0
C      1  0.5699120000000  0.4216220000000  0.4709780000000 1.0
C      1  0.3998090000000  0.5222940000000  0.4692810000000 1.0
C      1  0.3969060000000  0.4287020000000  0.5288730000000 1.0
C      1  0.5024300000000  0.6014690000000  0.4616910000000 1.0
C      1  0.5648010000000  0.4484200000000  0.5369830000000 1.0
C      1  0.5445260000000  0.4281720000000  0.5399030000000 1.0
C      1  0.5129700000000  0.5779630000000  0.5782050000000 1.0
C      1  0.4460650000000  0.4198400000000  0.5336370000000 1.0
C      1  0.4534510000000  0.4502260000000  0.4150190000000 1.0
C      1  0.4164420000000  0.5372570000000  0.4497570000000 1.0
C      1  0.4769200000000  0.3990110000000  0.4886020000000 1.0
C      1  0.4486010000000  0.5048030000000  0.6072400000000 1.0
C      1  0.4790760000000  0.5947910000000  0.5439540000000 1.0
C      1  0.5047050000000  0.5878130000000  0.4332280000000 1.0
C      1  0.5869140000000  0.5804600000000  0.4852230000000 1.0
C      1  0.5519290000000  0.5711500000000  0.5330500000000 1.0
C      1  0.4192950000000  0.4770780000000  0.4890880000000 1.0
C      1  0.4863600000000  0.5832510000000  0.4830220000000 1.0
C      1  0.5526170000000  0.5327290000000  0.4228360000000 1.0
C      1  0.4151100000000  0.4775590000000  0.4450890000000 1.0
C      1  0.5574280000000  0.5411250000000  0.5796000000000 1.0
C      1  0.4998660000000  0.4025070000000  0.5109260000000 1.0
C      1  0.4918550000000  0.5567670000000  0.4707940000000 1.0
C      1  0.4016780000000  0.4263900000000  0.4991030000000 1.0
C      1  0.4156150000000  0.4481300000000  0.4508480000000 1.0
C      1  0.4585530000000  0.5243320000000  0.4030330000000 1.0
C      1  0.4554550000000  0.5084510000000  0.4294730000000 1.0
C      1  0.5270430000000  0.6117490000000  0.5263640000000 1.0
C      1  0.6007250000000  0.5077580000000  0.5255260000000 1.0
C      1  0.4947260000000  0.5164220000000  0.6098310000000 1.0
C      1  0.5453030000000  0.3992580000000  0.4706700000000 1.0
C      1  0.4627600000000  0.4346210000000  0.5735390000000 1.0
C      1  0.5010930000000  0.5247260000000  0.5249140000000 1.0
C      1  0.3942090000000  0.4953030000000  0.4571570000000 1.0
C      1  0.5132010000000  0.4564020000000  0.5716210000000 1.0
C      1  0.4834640000000  0.4493000000000  0.4095850000000 1.0
C      1  0.4008180000000  0.5248410000000  0.5551280000000 1.0
C      1  0.4993670000000  0.5487200000000  0.3996090000000 1.0
C      1  0.5888490000000  0.5304680000000  0.5383170000000 1.0
C      1  0.5081630000000  0.5319510000000  0.3766550000000 1.0
C      1  0.5590160000000  0.4825530000000  0.3939640000000 1.0
C      1  0.5205670000000  0.5082200000000  0.5120770000000 1.0
C      1  0.4474770000000  0.5511210000000  0.5495560000000 1.0
C      1  0.5128550000000  0.4647650000000  0.6043870000000 1.0
C      1  0.4653510000000  0.4942960000000  0.5169200000000 1.0
C      1  0.5515440000000  0.4677120000000  0.4683540000000 1.0
C      1  0.4341380000000  0.5597550000000  0.4562510000000 1.0
C      1  0.5133140000000  0.5291420000000  0.5744130000000 1.0
C      1  0.4102410000000  0.4549080000000  0.5354720000000 1.0
C      1  0.4741160000000  0.4844220000000  0.5804520000000 1.0
C      1  0.4480980000000  0.3999800000000  0.4730870000000 1.0
C      1  0.5569330000000  0.4928830000000  0.5571780000000 1.0
C      1  0.5727280000000  0.6026120000000  0.5001150000000 1.0
C      1  0.5301880000000  0.4886970000000  0.3970340000000 1.0
C      1  0.4866880000000  0.5292940000000  0.5640560000000 1.0
C      1  0.4845840000000  0.5788270000000  0.5689820000000 1.0
C      1  0.4989790000000  0.5372760000000  0.4288380000000 1.0
C      1  0.5278180000000  0.5570410000000  0.5269240000000 1.0
C      1  0.5718990000000  0.5653550000000  0.4636600000000 1.0
C      1  0.4852310000000  0.5446680000000  0.5104610000000 1.0
C      1  0.4368620000000  0.4336080000000  0.4347290000000 1.0
C      1  0.4786980000000  0.5285940000000  0.4785580000000 1.0
C      1  0.5138230000000  0.4805650000000  0.5126290000000 1.0
C      1  0.5229930000000  0.4309220000000  0.4868100000000 1.0
C      1  0.5983320000000  0.5439360000000  0.4064610000000 1.0
C      1  0.6064970000000  0.4538370000000  0.4983970000000 1.0
C      1  0.4679730000000  0.5315700000000  0.6015450000000 1.0
C      1  0.5951310000000  0.5567900000000  0.5284900000000 1.0
C      1  0.4589890000000  0.5888140000000  0.4872520000000 1.0
C      1  0.3937330000000  0.4957390000000  0.5585300000000 1.0
C      1  0.4557020000000  0.5116440000000  0.4926140000000 1.0
C      1  0.6123260000000  0.5090870000000  0.4994530000000 1.0
C      1  0.4668140000000  0.5526190000000  0.4066820000000 1.0
C      1  0.4338190000000  0.4958040000000  0.5836930000000 1.0
C      1  0.5833400000000  0.5289580000000  0.4274740000000 1.0
C      1  0.5554290000000  0.5109700000000  0.5950050000000 1.0
C      1  0.5983090000000  0.4292300000000  0.4812370000000 1.0
C      1  0.4791300000000  0.5209300000000  0.4443600000000 1.0
C      1  0.5475790000000  0.4410150000000  0.4743360000000 1.0
C      1  0.4699350000000  0.4170040000000  0.5502960000000 1.0
C      1  0.5460240000000  0.5623220000000  0.4192030000000 1.0
C      1  0.4947050000000  0.4864990000000  0.6169990000000 1.0
C      1  0.4610010000000  0.4611020000000  0.4553040000000 1.0
C      1  0.5303290000000  0.5779310000000  0.4905820000000 1.0
C      1  0.5627260000000  0.4744060000000  0.5196320000000 1.0
C      1  0.4297370000000  0.5281140000000  0.5512060000000 1.0
C      1  0.4068530000000  0.5227000000000  0.4989200000000 1.0
C      1  0.5497550000000  0.4763820000000  0.4400370000000 1.0
C      1  0.4943900000000  0.4237190000000  0.5348880000000 1.0
C      1  0.3977130000000  0.4805800000000  0.5335380000000 1.0
C      1  0.5910910000000  0.5006170000000  0.4275350000000 1.0
C      1  0.5912680000000  0.4458440000000  0.5493890000000 1.0
C      1  0.5278830000000  0.6030010000000  0.4760390000000 1.0
C      1  0.5345160000000  0.5194380000000  0.4892860000000 1.0
C      1  0.5933050000000  0.4610200000000  0.5749840000000 1.0
C      1  0.5270140000000  0.4326010000000  0.4323170000000 1.0
C      1  0.4474190000000  0.4076680000000  0.4439070000000 1.0
C      1  0.4293130000000  0.4340490000000  0.5722920000000 1.0
C      1  0.4372950000000  0.5674730000000  0.4878310000000 1.0
C      1  0.5192410000000  0.5717390000000  0.4091730000000 1.0
C      1  0.5542820000000  0.5983810000000  0.5233350000000 1.0
C      1  0.6123230000000  0.4490730000000  0.5280050000000 1.0
C      1  0.5224880000000  0.5243430000000  0.4634850000000 1.0
END
