TITL C-862128-1543-1053 -4.77462845787169e-06 125000 -466.659742185478 0 0 86 (C3) n - 1
REM
REM in /home/nfs/bkarasulu/CARBON/AIRSS/Generating-Clusters/TERSOFF/Higher-Symm/FIRE-HFTN
REM
REM
REM
REM
REM
REM ./C.cell (b20cbc046b6831c77cfcea5457e17084)
REM AIRSS Version 0.9.1 bugfix July 2018 build 013d7b7c2542+ Fri, 06 Jul 2018 19:26:36 +0100
REM compiler GCC version 9.2.1 20190827 (Red Hat 9.2.1-1)
REM options -cpp -mtune=generic -march=x86-64 -g -O0 -fpre-include=/usr/include/finclude/math-vector-fortran.h
REM seed 627458276 1312558298 665714680 -885750323 112163739 -1211629031 535869634 1900877056 -256728063 -259034133 487250357 1855010866 1028689783 -10569468 753704175 -942639317 1175096246 510572792 227843783 1987507106 -627768803 -917518165 808358959 -1550792755 -236428930 -1455497620 -1513917685 -233411622 -689199079 907732716 -576946899 749870459 1141172874
REM
CELL 1.54180   50.00000   50.00000   50.00000   90.00000   90.00000   90.00000
LATT -1
SFAC C  
C      1  0.4562880000000  0.4797600000000  0.4967670000000 1.0
C      1  0.5178310000000  0.4797600000000  0.5395440000000 1.0
C      1  0.5241060000000  0.4797600000000  0.4648580000000 1.0
C      1  0.5689490000000  0.5514310000000  0.5004660000000 1.0
C      1  0.4647040000000  0.5514310000000  0.4401280000000 1.0
C      1  0.4645720000000  0.5514310000000  0.5605760000000 1.0
C      1  0.5004920000000  0.5242360000000  0.5954930000000 1.0
C      1  0.5812280000000  0.5242360000000  0.4518990000000 1.0
C      1  0.4165040000000  0.5242360000000  0.4537770000000 1.0
C      1  0.4835080000000  0.4054490000000  0.4887630000000 1.0
C      1  0.4972890000000  0.4054490000000  0.5199740000000 1.0
C      1  0.5174280000000  0.4054490000000  0.4924340000000 1.0
C      1  0.4855660000000  0.5060700000000  0.5257760000000 1.0
C      1  0.5283140000000  0.5060700000000  0.4996850000000 1.0
C      1  0.4843450000000  0.5060700000000  0.4757100000000 1.0
C      1  0.4489790000000  0.5457490000000  0.5348280000000 1.0
C      1  0.5544470000000  0.5457490000000  0.5268440000000 1.0
C      1  0.4947990000000  0.5457490000000  0.4394980000000 1.0
C      1  0.5179390000000  0.4596120000000  0.4903620000000 1.0
C      1  0.4814580000000  0.4596120000000  0.4893560000000 1.0
C      1  0.4988280000000  0.4596120000000  0.5214520000000 1.0
C      1  0.5015750000000  0.4299380000000  0.5362150000000 1.0
C      1  0.5293500000000  0.4299380000000  0.4806010000000 1.0
C      1  0.4672990000000  0.4299380000000  0.4843540000000 1.0
C      1  0.5402790000000  0.5423420000000  0.5571530000000 1.0
C      1  0.5281310000000  0.5423420000000  0.4366130000000 1.0
C      1  0.4298140000000  0.5423420000000  0.5074030000000 1.0
C      1  0.4471690000000  0.5496350000000  0.4836760000000 1.0
C      1  0.5110530000000  0.5496350000000  0.5539880000000 1.0
C      1  0.5400020000000  0.5496350000000  0.4635060000000 1.0
C      1  0.5503020000000  0.4864640000000  0.5650260000000 1.0
C      1  0.5299380000000  0.4864640000000  0.4239970000000 1.0
C      1  0.4179850000000  0.4864640000000  0.5121470000000 1.0
C      1  0.5768960000000  0.4985350000000  0.4392570000000 1.0
C      1  0.4077210000000  0.4985350000000  0.4638500000000 1.0
C      1  0.5136070000000  0.4985350000000  0.5980630000000 1.0
C      1  0.4548260000000  0.5039190000000  0.4408390000000 1.0
C      1  0.4701260000000  0.5039190000000  0.5687750000000 1.0
C      1  0.5732720000000  0.5039190000000  0.4915560000000 1.0
C      1  0.5123480000000  0.5107660000000  0.5382420000000 1.0
C      1  0.5257190000000  0.5107660000000  0.4702580000000 1.0
C      1  0.4601580000000  0.5107660000000  0.4926700000000 1.0
C      1  0.4957410000000  0.4444200000000  0.4416030000000 1.0
C      1  0.4503310000000  0.4444200000000  0.5329590000000 1.0
C      1  0.5521520000000  0.4444200000000  0.5266080000000 1.0
C      1  0.4696030000000  0.5304770000000  0.5153620000000 1.0
C      1  0.5272770000000  0.5304770000000  0.5187160000000 1.0
C      1  0.5013450000000  0.5304770000000  0.4670920000000 1.0
C      1  0.4758760000000  0.4421880000000  0.5519730000000 1.0
C      1  0.5558460000000  0.4421880000000  0.4949780000000 1.0
C      1  0.4665020000000  0.4421880000000  0.4542200000000 1.0
C      1  0.5648870000000  0.5337010000000  0.4757880000000 1.0
C      1  0.4453630000000  0.5337010000000  0.4559840000000 1.0
C      1  0.4879740000000  0.5337010000000  0.5693970000000 1.0
C      1  0.4704000000000  0.5685190000000  0.4904140000000 1.0
C      1  0.5052730000000  0.5685190000000  0.5305000000000 1.0
C      1  0.5225520000000  0.5685190000000  0.4802560000000 1.0
C      1  0.4822050000000  0.4802640000000  0.4621080000000 1.0
C      1  0.4748560000000  0.4802640000000  0.5344290000000 1.0
C      1  0.5411630000000  0.4802640000000  0.5046330000000 1.0
C      1  0.4474420000000  0.4287740000000  0.5077150000000 1.0
C      1  0.5317350000000  0.4287740000000  0.5417320000000 1.0
C      1  0.5190480000000  0.4287740000000  0.4517230000000 1.0
C      1  0.4776870000000  0.5722670000000  0.5195060000000 1.0
C      1  0.5268240000000  0.5722670000000  0.5096420000000 1.0
C      1  0.4937130000000  0.5722670000000  0.4720210000000 1.0
C      1  0.4502390000000  0.4743640000000  0.4551380000000 1.0
C      1  0.4848030000000  0.4743640000000  0.5655970000000 1.0
C      1  0.5631820000000  0.4743640000000  0.4804350000000 1.0
C      1  0.5255400000000  0.5145530000000  0.4161080000000 1.0
C      1  0.4133520000000  0.5145530000000  0.5199000000000 1.0
C      1  0.5593320000000  0.5145530000000  0.5651610000000 1.0
C      1  0.5552650000000  0.4785140000000  0.4478090000000 1.0
C      1  0.4259430000000  0.4785140000000  0.4783070000000 1.0
C      1  0.5170160000000  0.4785140000000  0.5750540000000 1.0
C      1  0.5732710000000  0.5240300000000  0.5387510000000 1.0
C      1  0.4956990000000  0.5240300000000  0.4172430000000 1.0
C      1  0.4292550000000  0.5240300000000  0.5451760000000 1.0
C      1  0.4411820000000  0.5056590000000  0.5642040000000 1.0
C      1  0.5837860000000  0.5056590000000  0.5189080000000 1.0
C      1  0.4732570000000  0.5056590000000  0.4180580000000 1.0
C      1  0.5037770000000  0.4734850000000  0.4401630000000 1.0
C      1  0.4450650000000  0.4734850000000  0.5267200000000 1.0
C      1  0.5493820000000  0.4734850000000  0.5342870000000 1.0
C      1  0.4994080000000  0.5399350000000  0.5003900000000 1.0
C      1  0.4994080000000  0.4979990000000  0.5003900000000 1.0
END
