TITL C-862506-1665-1441 0.0405745711775206 125000 -476.703522938752 0 0 82 (C1) n - 1
REM
REM in /home/nfs/bkarasulu/CARBON/AIRSS/Generating-Clusters/TERSOFF/Higher-Symm/FIRE-HFTN
REM
REM
REM
REM
REM
REM ./C.cell (b20cbc046b6831c77cfcea5457e17084)
REM AIRSS Version 0.9.1 bugfix July 2018 build 013d7b7c2542+ Fri, 06 Jul 2018 19:26:36 +0100
REM compiler GCC version 9.2.1 20190827 (Red Hat 9.2.1-1)
REM options -cpp -mtune=generic -march=x86-64 -g -O0 -fpre-include=/usr/include/finclude/math-vector-fortran.h
REM seed -2082164913 -313416254 1007922484 -1671026607 -2054326172 -705376434 1755131593 -1311479244 1177749075 -1280564559 129467899 211130710 -1245885671 -733935758 -135299795 2118690480 613033766 1031969231 -160949105 1690546688 1164486073 -1389587857 -27790345 -1058627693 -171352467 1326621434 123138664 221134334 234439753 103180971 -1923460252 886917103 -897435505
REM
CELL 1.54180   50.00000   50.00000   50.00000   90.00000   90.00000   90.00000
LATT -1
SFAC C  
C      1  0.4501990000000  0.4959740000000  0.4828680000000 1.0
C      1  0.5115510000000  0.4318890000000  0.5326160000000 1.0
C      1  0.4583330000000  0.4217360000000  0.5138690000000 1.0
C      1  0.5550300000000  0.5389600000000  0.5257680000000 1.0
C      1  0.5732800000000  0.4957110000000  0.5475110000000 1.0
C      1  0.5499650000000  0.4547180000000  0.5490030000000 1.0
C      1  0.4832760000000  0.4349210000000  0.4640940000000 1.0
C      1  0.4955690000000  0.5225700000000  0.5241040000000 1.0
C      1  0.4546050000000  0.4464480000000  0.4702070000000 1.0
C      1  0.5284400000000  0.5938950000000  0.5241810000000 1.0
C      1  0.5147490000000  0.4161090000000  0.5075150000000 1.0
C      1  0.5333360000000  0.4414530000000  0.4754150000000 1.0
C      1  0.4809150000000  0.5224430000000  0.5835970000000 1.0
C      1  0.3993330000000  0.4666160000000  0.5012340000000 1.0
C      1  0.4328320000000  0.4618680000000  0.5402900000000 1.0
C      1  0.4805820000000  0.4822320000000  0.5533760000000 1.0
C      1  0.5373830000000  0.5800510000000  0.5002030000000 1.0
C      1  0.4407160000000  0.4362720000000  0.4952160000000 1.0
C      1  0.5667360000000  0.5059370000000  0.4504080000000 1.0
C      1  0.4305600000000  0.5408920000000  0.5168150000000 1.0
C      1  0.5003790000000  0.5890660000000  0.5299440000000 1.0
C      1  0.5741170000000  0.4663460000000  0.5387910000000 1.0
C      1  0.4332340000000  0.5330120000000  0.4458500000000 1.0
C      1  0.4615280000000  0.4580640000000  0.5507000000000 1.0
C      1  0.4983610000000  0.4730050000000  0.4926780000000 1.0
C      1  0.5579240000000  0.5594180000000  0.5033120000000 1.0
C      1  0.4917150000000  0.4124240000000  0.4876260000000 1.0
C      1  0.5087970000000  0.5259600000000  0.5759020000000 1.0
C      1  0.4386690000000  0.5148620000000  0.5571020000000 1.0
C      1  0.5547810000000  0.5019430000000  0.5702000000000 1.0
C      1  0.5123790000000  0.5744920000000  0.4776050000000 1.0
C      1  0.5112640000000  0.5437440000000  0.4844020000000 1.0
C      1  0.4517160000000  0.4919730000000  0.5123120000000 1.0
C      1  0.5205090000000  0.5024950000000  0.4606560000000 1.0
C      1  0.5018390000000  0.4455300000000  0.4351210000000 1.0
C      1  0.4450100000000  0.4738260000000  0.4599410000000 1.0
C      1  0.5384170000000  0.5033800000000  0.5035540000000 1.0
C      1  0.4741290000000  0.4681880000000  0.5089110000000 1.0
C      1  0.5271300000000  0.5205840000000  0.5277130000000 1.0
C      1  0.4570150000000  0.5708880000000  0.4653390000000 1.0
C      1  0.5095480000000  0.4783890000000  0.5572730000000 1.0
C      1  0.5057390000000  0.4504470000000  0.4766320000000 1.0
C      1  0.5655250000000  0.4248180000000  0.5102100000000 1.0
C      1  0.4720070000000  0.4443560000000  0.5263150000000 1.0
C      1  0.4957540000000  0.4945500000000  0.4724280000000 1.0
C      1  0.4331190000000  0.5131240000000  0.5282730000000 1.0
C      1  0.4519700000000  0.5588640000000  0.5245070000000 1.0
C      1  0.4898230000000  0.5060070000000  0.4243110000000 1.0
C      1  0.4888880000000  0.5378140000000  0.5008260000000 1.0
C      1  0.5224580000000  0.4770930000000  0.5095170000000 1.0
C      1  0.4855240000000  0.5620830000000  0.4568240000000 1.0
C      1  0.5549660000000  0.5323170000000  0.4618760000000 1.0
C      1  0.5310330000000  0.5235640000000  0.4772390000000 1.0
C      1  0.4928290000000  0.5690670000000  0.5514950000000 1.0
C      1  0.4589870000000  0.5331180000000  0.5676770000000 1.0
C      1  0.4714020000000  0.5607980000000  0.5037340000000 1.0
C      1  0.4178840000000  0.5469810000000  0.4909840000000 1.0
C      1  0.4648250000000  0.5573590000000  0.5510840000000 1.0
C      1  0.4717610000000  0.5125540000000  0.4719920000000 1.0
C      1  0.5449100000000  0.4547020000000  0.4079040000000 1.0
C      1  0.5235300000000  0.4600650000000  0.5373370000000 1.0
C      1  0.4889310000000  0.5841220000000  0.5020400000000 1.0
C      1  0.5772390000000  0.5166500000000  0.5269650000000 1.0
C      1  0.5831190000000  0.5046610000000  0.4762150000000 1.0
C      1  0.4237660000000  0.4551650000000  0.5120120000000 1.0
C      1  0.4604560000000  0.4899880000000  0.4316140000000 1.0
C      1  0.5785350000000  0.4514350000000  0.5121330000000 1.0
C      1  0.5759080000000  0.4645380000000  0.4860650000000 1.0
C      1  0.4917280000000  0.5382980000000  0.4336470000000 1.0
C      1  0.5425910000000  0.4828680000000  0.4500240000000 1.0
C      1  0.5409400000000  0.4206450000000  0.4946320000000 1.0
C      1  0.5257420000000  0.4682500000000  0.4264280000000 1.0
C      1  0.4561070000000  0.5166280000000  0.4468030000000 1.0
C      1  0.4157710000000  0.4725980000000  0.4533860000000 1.0
C      1  0.5524270000000  0.4614010000000  0.4686020000000 1.0
C      1  0.5690140000000  0.5027840000000  0.5019760000000 1.0
C      1  0.5121000000000  0.4914350000000  0.4130990000000 1.0
C      1  0.5248300000000  0.5018770000000  0.5684720000000 1.0
C      1  0.4750690000000  0.5025430000000  0.5330130000000 1.0
C      1  0.5702760000000  0.5504340000000  0.4784850000000 1.0
C      1  0.5139910000000  0.5524780000000  0.5641610000000 1.0
C      1  0.4326790000000  0.5532400000000  0.4658420000000 1.0
END
