TITL C-862134-6730-1282 0.0239940969465539 125000 -818.255784081516 0 0 145 (C1) n - 1
REM
REM in /home/nfs/bkarasulu/CARBON/AIRSS/Generating-Clusters/TERSOFF/Higher-Symm/FIRE-HFTN
REM
REM
REM
REM
REM
REM ./C.cell (b20cbc046b6831c77cfcea5457e17084)
REM AIRSS Version 0.9.1 bugfix July 2018 build 013d7b7c2542+ Fri, 06 Jul 2018 19:26:36 +0100
REM compiler GCC version 9.2.1 20190827 (Red Hat 9.2.1-1)
REM options -cpp -mtune=generic -march=x86-64 -g -O0 -fpre-include=/usr/include/finclude/math-vector-fortran.h
REM seed 518034806 -1890370679 -51671662 202799558 1048004733 -831159876 -2142704915 -820896621 -1514244833 1023887377 -1123312757 -1327073562 -1785390476 661572234 -1783668889 -960404661 -1822019460 -963366831 -1614913609 -916269071 1880949770 1612957264 406787684 -191980320 1367745276 1505537122 -2108915845 -493776901 1922393955 -529689375 -1694365661 -1033718290 618932593
REM
CELL 1.54180   50.00000   50.00000   50.00000   90.00000   90.00000   90.00000
LATT -1
SFAC C  
C      1  0.5405830000000  0.5119750000000  0.4867330000000 1.0
C      1  0.5265630000000  0.5106160000000  0.5393690000000 1.0
C      1  0.4726370000000  0.5130420000000  0.5397570000000 1.0
C      1  0.4606580000000  0.5133970000000  0.4858550000000 1.0
C      1  0.5005370000000  0.5103430000000  0.4498120000000 1.0
C      1  0.5442390000000  0.5045770000000  0.5151550000000 1.0
C      1  0.5266240000000  0.5044540000000  0.4600860000000 1.0
C      1  0.4718060000000  0.5069850000000  0.4590710000000 1.0
C      1  0.4570980000000  0.5065250000000  0.5160830000000 1.0
C      1  0.5002600000000  0.5052450000000  0.5503820000000 1.0
C      1  0.4200630000000  0.5385930000000  0.4832850000000 1.0
C      1  0.4903320000000  0.5378110000000  0.4157890000000 1.0
C      1  0.5757860000000  0.5376810000000  0.4671440000000 1.0
C      1  0.5552520000000  0.5383720000000  0.5611510000000 1.0
C      1  0.4556590000000  0.5388830000000  0.5725340000000 1.0
C      1  0.4181540000000  0.5382040000000  0.5173400000000 1.0
C      1  0.4891440000000  0.5373200000000  0.5831930000000 1.0
C      1  0.5761630000000  0.5379710000000  0.5343070000000 1.0
C      1  0.5557710000000  0.5375930000000  0.4393150000000 1.0
C      1  0.4571740000000  0.5393190000000  0.4266940000000 1.0
C      1  0.5008740000000  0.5640990000000  0.5848310000000 1.0
C      1  0.4137870000000  0.5646370000000  0.5306540000000 1.0
C      1  0.4446900000000  0.5662670000000  0.4290160000000 1.0
C      1  0.5498190000000  0.5645580000000  0.4282030000000 1.0
C      1  0.5869080000000  0.5639300000000  0.5252350000000 1.0
C      1  0.5026750000000  0.5642150000000  0.4137440000000 1.0
C      1  0.4174380000000  0.5651820000000  0.4705030000000 1.0
C      1  0.4426940000000  0.5655510000000  0.5709820000000 1.0
C      1  0.5481400000000  0.5654280000000  0.5712770000000 1.0
C      1  0.5874120000000  0.5635930000000  0.4755110000000 1.0
C      1  0.5540290000000  0.5883600000000  0.4446330000000 1.0
C      1  0.5724590000000  0.5879190000000  0.5317210000000 1.0
C      1  0.4891120000000  0.5848060000000  0.5690880000000 1.0
C      1  0.4190670000000  0.5889490000000  0.5159980000000 1.0
C      1  0.4617160000000  0.5898550000000  0.4310350000000 1.0
C      1  0.5518040000000  0.5888650000000  0.5541610000000 1.0
C      1  0.5747740000000  0.5881250000000  0.4669890000000 1.0
C      1  0.4914620000000  0.5853320000000  0.4293030000000 1.0
C      1  0.4236280000000  0.5886620000000  0.4858740000000 1.0
C      1  0.4593670000000  0.5893560000000  0.5683880000000 1.0
C      1  0.4705350000000  0.4054180000000  0.4515900000000 1.0
C      1  0.5221110000000  0.3996340000000  0.4528730000000 1.0
C      1  0.5421450000000  0.3993200000000  0.5152670000000 1.0
C      1  0.4980470000000  0.4073190000000  0.5597720000000 1.0
C      1  0.4631690000000  0.3983250000000  0.5183340000000 1.0
C      1  0.4709860000000  0.4057030000000  0.5477630000000 1.0
C      1  0.5232190000000  0.3999470000000  0.5438480000000 1.0
C      1  0.5341700000000  0.3999230000000  0.4855670000000 1.0
C      1  0.4969060000000  0.4073510000000  0.4382890000000 1.0
C      1  0.4660230000000  0.4004170000000  0.4823880000000 1.0
C      1  0.4990260000000  0.5924760000000  0.5398480000000 1.0
C      1  0.4473580000000  0.6043970000000  0.5167380000000 1.0
C      1  0.4698480000000  0.6041130000000  0.4599980000000 1.0
C      1  0.5295220000000  0.6041340000000  0.4597660000000 1.0
C      1  0.5494180000000  0.5993400000000  0.5135710000000 1.0
C      1  0.5020170000000  0.5931790000000  0.4580980000000 1.0
C      1  0.4519360000000  0.6038660000000  0.4839960000000 1.0
C      1  0.4663710000000  0.6037030000000  0.5392960000000 1.0
C      1  0.5265330000000  0.6035350000000  0.5374620000000 1.0
C      1  0.5520550000000  0.6028240000000  0.4840090000000 1.0
C      1  0.5823740000000  0.4333190000000  0.4828770000000 1.0
C      1  0.5543820000000  0.4315230000000  0.5738580000000 1.0
C      1  0.4305860000000  0.4349960000000  0.5646240000000 1.0
C      1  0.4236780000000  0.4339790000000  0.4686510000000 1.0
C      1  0.5292960000000  0.4333870000000  0.4074650000000 1.0
C      1  0.5891630000000  0.4332820000000  0.5166290000000 1.0
C      1  0.5538730000000  0.4315020000000  0.4253690000000 1.0
C      1  0.4300030000000  0.4345750000000  0.4354650000000 1.0
C      1  0.4205030000000  0.4329580000000  0.5324030000000 1.0
C      1  0.5301560000000  0.4322320000000  0.5917240000000 1.0
C      1  0.4393760000000  0.4883100000000  0.4190960000000 1.0
C      1  0.5594900000000  0.4847350000000  0.4219780000000 1.0
C      1  0.5935050000000  0.4864830000000  0.5301380000000 1.0
C      1  0.4965740000000  0.4840540000000  0.6008220000000 1.0
C      1  0.4089920000000  0.4851720000000  0.5289600000000 1.0
C      1  0.4411490000000  0.4884670000000  0.5810600000000 1.0
C      1  0.5598720000000  0.4854800000000  0.5781230000000 1.0
C      1  0.5905920000000  0.4857880000000  0.4717820000000 1.0
C      1  0.4948240000000  0.4853430000000  0.3992340000000 1.0
C      1  0.4116520000000  0.4858330000000  0.4713170000000 1.0
C      1  0.5467830000000  0.4532570000000  0.5157710000000 1.0
C      1  0.5016760000000  0.4538090000000  0.5568690000000 1.0
C      1  0.4581240000000  0.4550630000000  0.5175970000000 1.0
C      1  0.4714950000000  0.4548410000000  0.4548110000000 1.0
C      1  0.5266520000000  0.4533680000000  0.4558790000000 1.0
C      1  0.5399720000000  0.4553810000000  0.4864880000000 1.0
C      1  0.5004970000000  0.4547620000000  0.4423810000000 1.0
C      1  0.4636040000000  0.4567360000000  0.4843660000000 1.0
C      1  0.4721610000000  0.4557490000000  0.5446240000000 1.0
C      1  0.5275440000000  0.4543880000000  0.5423730000000 1.0
C      1  0.5716390000000  0.4554980000000  0.5675220000000 1.0
C      1  0.4470090000000  0.4571670000000  0.5852900000000 1.0
C      1  0.4091510000000  0.4559350000000  0.4837210000000 1.0
C      1  0.4783450000000  0.4536880000000  0.4053280000000 1.0
C      1  0.5868010000000  0.4556630000000  0.4614280000000 1.0
C      1  0.5711640000000  0.4550580000000  0.4325530000000 1.0
C      1  0.4456420000000  0.4565530000000  0.4142670000000 1.0
C      1  0.4069940000000  0.4551920000000  0.5163530000000 1.0
C      1  0.4792380000000  0.4527260000000  0.5947870000000 1.0
C      1  0.5907330000000  0.4556850000000  0.5398790000000 1.0
C      1  0.4648290000000  0.4844150000000  0.5587850000000 1.0
C      1  0.4419120000000  0.4831240000000  0.4847740000000 1.0
C      1  0.4926540000000  0.4832750000000  0.4314040000000 1.0
C      1  0.5578800000000  0.4819990000000  0.4766930000000 1.0
C      1  0.5433710000000  0.4821550000000  0.5506120000000 1.0
C      1  0.4625690000000  0.4828120000000  0.4422670000000 1.0
C      1  0.4394440000000  0.4818060000000  0.5166840000000 1.0
C      1  0.4951760000000  0.4813660000000  0.5686390000000 1.0
C      1  0.5610790000000  0.4807000000000  0.5239480000000 1.0
C      1  0.5420430000000  0.4805170000000  0.4488640000000 1.0
C      1  0.5850630000000  0.5142760000000  0.5163700000000 1.0
C      1  0.5107440000000  0.5138420000000  0.5900940000000 1.0
C      1  0.4215100000000  0.5138310000000  0.5370850000000 1.0
C      1  0.4381420000000  0.5162620000000  0.4357620000000 1.0
C      1  0.5422980000000  0.5128660000000  0.4220910000000 1.0
C      1  0.5837090000000  0.5138640000000  0.4854230000000 1.0
C      1  0.5108520000000  0.5139030000000  0.4093150000000 1.0
C      1  0.4239200000000  0.5145810000000  0.4636100000000 1.0
C      1  0.4372010000000  0.5154940000000  0.5641130000000 1.0
C      1  0.5421840000000  0.5137750000000  0.5781780000000 1.0
C      1  0.6026410000000  0.4965180000000  0.4461920000000 1.0
C      1  0.5877030000000  0.4973540000000  0.5794590000000 1.0
C      1  0.4481980000000  0.4982920000000  0.6084680000000 1.0
C      1  0.3865850000000  0.4959330000000  0.4849990000000 1.0
C      1  0.4729920000000  0.4966570000000  0.3818360000000 1.0
C      1  0.6041040000000  0.4974790000000  0.5561850000000 1.0
C      1  0.5874610000000  0.4964840000000  0.4220900000000 1.0
C      1  0.4462440000000  0.4982340000000  0.3915540000000 1.0
C      1  0.3852400000000  0.4955690000000  0.5133800000000 1.0
C      1  0.4747850000000  0.4955680000000  0.6183970000000 1.0
C      1  0.4584890000000  0.4308890000000  0.4448800000000 1.0
C      1  0.5405050000000  0.4246100000000  0.4507870000000 1.0
C      1  0.5600810000000  0.4249590000000  0.5222300000000 1.0
C      1  0.5019220000000  0.4321440000000  0.5798540000000 1.0
C      1  0.4446030000000  0.4254020000000  0.5157460000000 1.0
C      1  0.4591830000000  0.4311850000000  0.5546840000000 1.0
C      1  0.5420300000000  0.4259010000000  0.5477480000000 1.0
C      1  0.5529440000000  0.4269840000000  0.4789760000000 1.0
C      1  0.5006730000000  0.4330230000000  0.4191800000000 1.0
C      1  0.4479290000000  0.4277820000000  0.4853840000000 1.0
C      1  0.4167380000000  0.5660090000000  0.5590410000000 1.0
C      1  0.5303440000000  0.5658870000000  0.4074850000000 1.0
C      1  0.4193360000000  0.5670620000000  0.4420980000000 1.0
C      1  0.6013710000000  0.5639890000000  0.5005210000000 1.0
C      1  0.5283050000000  0.5666820000000  0.5915790000000 1.0
END
