TITL C-862133-5440-387 0.00695343103407866 125000 -546.294399423741 0 0 101 (C1) n - 1
REM
REM in /home/nfs/bkarasulu/CARBON/AIRSS/Generating-Clusters/TERSOFF/Higher-Symm/FIRE-HFTN
REM
REM
REM
REM
REM
REM ./C.cell (b20cbc046b6831c77cfcea5457e17084)
REM AIRSS Version 0.9.1 bugfix July 2018 build 013d7b7c2542+ Fri, 06 Jul 2018 19:26:36 +0100
REM compiler GCC version 9.2.1 20190827 (Red Hat 9.2.1-1)
REM options -cpp -mtune=generic -march=x86-64 -g -O0 -fpre-include=/usr/include/finclude/math-vector-fortran.h
REM seed 1558944138 1880696839 497294694 1578962211 -840388149 -1549594949 1031809696 -346747089 -485613772 954944307 -1553316768 641635580 452425389 -255445498 1515159492 -2090103121 795399572 -952408840 1994561487 1549803382 282908405 -1611912553 -1304094294 1985161669 -1201179065 -658911609 610457927 -2143342616 418995962 1100889546 1100370255 -40353085 888486031
REM
CELL 1.54180   50.00000   50.00000   50.00000   90.00000   90.00000   90.00000
LATT -1
SFAC C  
C      1  0.5417570000000  0.5035760000000  0.5199360000000 1.0
C      1  0.5468760000000  0.4613680000000  0.5180350000000 1.0
C      1  0.5044530000000  0.4423770000000  0.4685570000000 1.0
C      1  0.4050630000000  0.5224270000000  0.5015900000000 1.0
C      1  0.5418410000000  0.4423090000000  0.5649710000000 1.0
C      1  0.4479520000000  0.4926860000000  0.4272670000000 1.0
C      1  0.4943700000000  0.4491160000000  0.5150950000000 1.0
C      1  0.4587470000000  0.5065430000000  0.5021680000000 1.0
C      1  0.5652800000000  0.5235230000000  0.4463830000000 1.0
C      1  0.5808250000000  0.5194990000000  0.5471100000000 1.0
C      1  0.4989990000000  0.5203290000000  0.5450120000000 1.0
C      1  0.4871870000000  0.4333540000000  0.4471500000000 1.0
C      1  0.5758740000000  0.4698500000000  0.5234610000000 1.0
C      1  0.5313660000000  0.4903060000000  0.5441510000000 1.0
C      1  0.4996810000000  0.4820020000000  0.4446930000000 1.0
C      1  0.4739580000000  0.4863020000000  0.4119420000000 1.0
C      1  0.4637810000000  0.5841520000000  0.4889680000000 1.0
C      1  0.4785070000000  0.4205820000000  0.5155540000000 1.0
C      1  0.4365430000000  0.4669400000000  0.4743030000000 1.0
C      1  0.5129990000000  0.5297670000000  0.4404840000000 1.0
C      1  0.5655970000000  0.5188270000000  0.5224240000000 1.0
C      1  0.4489560000000  0.5111520000000  0.5802250000000 1.0
C      1  0.4707560000000  0.5762210000000  0.4596540000000 1.0
C      1  0.5482090000000  0.4223650000000  0.5413510000000 1.0
C      1  0.4720780000000  0.5157200000000  0.5980210000000 1.0
C      1  0.4853250000000  0.4581410000000  0.4265940000000 1.0
C      1  0.4766320000000  0.5475750000000  0.4295890000000 1.0
C      1  0.5330830000000  0.5868730000000  0.5362080000000 1.0
C      1  0.4553940000000  0.5572300000000  0.5626640000000 1.0
C      1  0.5919750000000  0.5112210000000  0.4862650000000 1.0
C      1  0.5742120000000  0.5341820000000  0.4982570000000 1.0
C      1  0.4469220000000  0.5722010000000  0.5127440000000 1.0
C      1  0.4266610000000  0.4753400000000  0.4468200000000 1.0
C      1  0.5265450000000  0.3950740000000  0.4721530000000 1.0
C      1  0.5018680000000  0.4920630000000  0.5475720000000 1.0
C      1  0.5020390000000  0.5679000000000  0.4946670000000 1.0
C      1  0.4731530000000  0.5305240000000  0.4535560000000 1.0
C      1  0.5504520000000  0.4724680000000  0.5607790000000 1.0
C      1  0.5055930000000  0.5844470000000  0.5262620000000 1.0
C      1  0.4755230000000  0.4474080000000  0.5587260000000 1.0
C      1  0.4550020000000  0.5787710000000  0.5398180000000 1.0
C      1  0.5564440000000  0.5407300000000  0.4708960000000 1.0
C      1  0.5937350000000  0.4809830000000  0.5003000000000 1.0
C      1  0.5594070000000  0.4453650000000  0.4299800000000 1.0
C      1  0.5190430000000  0.4523110000000  0.5313420000000 1.0
C      1  0.4215350000000  0.4715780000000  0.5237450000000 1.0
C      1  0.4034090000000  0.4984070000000  0.4468210000000 1.0
C      1  0.5361200000000  0.5457820000000  0.5686710000000 1.0
C      1  0.4618650000000  0.4790630000000  0.5147300000000 1.0
C      1  0.4796450000000  0.4189990000000  0.5460780000000 1.0
C      1  0.5883110000000  0.5055310000000  0.4550650000000 1.0
C      1  0.4439010000000  0.4520190000000  0.5413030000000 1.0
C      1  0.5009670000000  0.5637480000000  0.4441600000000 1.0
C      1  0.4056340000000  0.5190250000000  0.4692280000000 1.0
C      1  0.4866160000000  0.5595530000000  0.5745080000000 1.0
C      1  0.5304820000000  0.4263020000000  0.4746500000000 1.0
C      1  0.4697570000000  0.5013060000000  0.4509130000000 1.0
C      1  0.4991210000000  0.5091140000000  0.5858560000000 1.0
C      1  0.4530600000000  0.4371990000000  0.5148190000000 1.0
C      1  0.5015910000000  0.4913300000000  0.4863520000000 1.0
C      1  0.4319680000000  0.5318260000000  0.4655430000000 1.0
C      1  0.5080300000000  0.5367640000000  0.5683260000000 1.0
C      1  0.5128780000000  0.4811010000000  0.5865560000000 1.0
C      1  0.4874210000000  0.5150260000000  0.4976620000000 1.0
C      1  0.5101640000000  0.4554170000000  0.5662820000000 1.0
C      1  0.5478060000000  0.5656090000000  0.5502760000000 1.0
C      1  0.4779330000000  0.4027670000000  0.4904130000000 1.0
C      1  0.4164010000000  0.4631160000000  0.4961240000000 1.0
C      1  0.5789940000000  0.4762460000000  0.5520580000000 1.0
C      1  0.5890640000000  0.4748530000000  0.4655120000000 1.0
C      1  0.5403480000000  0.5149790000000  0.4309480000000 1.0
C      1  0.4528800000000  0.4938670000000  0.4746980000000 1.0
C      1  0.5468260000000  0.5702430000000  0.4700560000000 1.0
C      1  0.4925250000000  0.4621600000000  0.4875590000000 1.0
C      1  0.5312380000000  0.5236780000000  0.4709590000000 1.0
C      1  0.5584910000000  0.5832990000000  0.4951770000000 1.0
C      1  0.5295230000000  0.4984450000000  0.4891260000000 1.0
C      1  0.4799750000000  0.5422130000000  0.4824420000000 1.0
C      1  0.5045590000000  0.5272670000000  0.5182900000000 1.0
C      1  0.4594470000000  0.4567690000000  0.4930950000000 1.0
C      1  0.4204840000000  0.5080500000000  0.4212650000000 1.0
C      1  0.5427630000000  0.4715530000000  0.4923520000000 1.0
C      1  0.5443080000000  0.4224020000000  0.4438770000000 1.0
C      1  0.5427130000000  0.4655290000000  0.4169570000000 1.0
C      1  0.5286920000000  0.4871620000000  0.4312210000000 1.0
C      1  0.4754090000000  0.5456850000000  0.6006400000000 1.0
C      1  0.4422690000000  0.5313800000000  0.5602140000000 1.0
C      1  0.5467780000000  0.4527610000000  0.4727830000000 1.0
C      1  0.4129180000000  0.5000320000000  0.5286730000000 1.0
C      1  0.5699470000000  0.4545620000000  0.4565930000000 1.0
C      1  0.5527710000000  0.5566850000000  0.5095440000000 1.0
C      1  0.5171870000000  0.5734390000000  0.4687910000000 1.0
C      1  0.4848410000000  0.5826050000000  0.5468860000000 1.0
C      1  0.5224440000000  0.5495200000000  0.5103220000000 1.0
C      1  0.4709330000000  0.4124520000000  0.4624390000000 1.0
C      1  0.4315680000000  0.5454950000000  0.5105620000000 1.0
C      1  0.4311320000000  0.5247520000000  0.5344260000000 1.0
C      1  0.4823570000000  0.4719110000000  0.5370240000000 1.0
C      1  0.4490630000000  0.5344660000000  0.4887820000000 1.0
C      1  0.4948960000000  0.5115100000000  0.4152000000000 1.0
C      1  0.5373770000000  0.4213460000000  0.5097500000000 1.0
END
