TITL C-862128-1543-1068 -0.0503263224168014 125000 -377.779368998845 0 0 70 (C1) n - 1
REM
REM in /home/nfs/bkarasulu/CARBON/AIRSS/Generating-Clusters/TERSOFF/Higher-Symm/FIRE-HFTN
REM
REM
REM
REM
REM
REM ./C.cell (b20cbc046b6831c77cfcea5457e17084)
REM AIRSS Version 0.9.1 bugfix July 2018 build 013d7b7c2542+ Fri, 06 Jul 2018 19:26:36 +0100
REM compiler GCC version 9.2.1 20190827 (Red Hat 9.2.1-1)
REM options -cpp -mtune=generic -march=x86-64 -g -O0 -fpre-include=/usr/include/finclude/math-vector-fortran.h
REM seed 1582584869 -541292041 -206449500 -541099584 1114705319 -458067995 -1120657893 268196329 2038721218 -1227379488 -2059371387 8974038 1712371300 32633755 2047558924 924392017 1200530342 239985117 -1194213352 1273133840 -764581661 1823161462 1089409794 880376075 -378943512 -1395835210 -1207298235 -247887930 -1095494726 -895686045 177010056 -1979311047 606858910
REM
CELL 1.54180   50.00000   50.00000   50.00000   90.00000   90.00000   90.00000
LATT -1
SFAC C  
C      1  0.5128060000000  0.5673930000000  0.5442910000000 1.0
C      1  0.5347570000000  0.5531750000000  0.5583920000000 1.0
C      1  0.5812920000000  0.4969010000000  0.5048020000000 1.0
C      1  0.5319890000000  0.4389980000000  0.4758250000000 1.0
C      1  0.5099830000000  0.4837110000000  0.5654270000000 1.0
C      1  0.5509440000000  0.4793450000000  0.5424650000000 1.0
C      1  0.4818300000000  0.4304310000000  0.4650480000000 1.0
C      1  0.4778370000000  0.5589310000000  0.4686000000000 1.0
C      1  0.5586640000000  0.5430710000000  0.5128710000000 1.0
C      1  0.5752730000000  0.4926890000000  0.4595870000000 1.0
C      1  0.5335030000000  0.4541630000000  0.5470760000000 1.0
C      1  0.4881280000000  0.5255190000000  0.4233700000000 1.0
C      1  0.4649670000000  0.4803090000000  0.5320210000000 1.0
C      1  0.4342190000000  0.5327660000000  0.4777480000000 1.0
C      1  0.5178780000000  0.5057160000000  0.4622570000000 1.0
C      1  0.5391950000000  0.4965850000000  0.4815160000000 1.0
C      1  0.5196820000000  0.5276640000000  0.5106020000000 1.0
C      1  0.5105480000000  0.5683990000000  0.5145670000000 1.0
C      1  0.5034290000000  0.4541770000000  0.5602530000000 1.0
C      1  0.5705290000000  0.5217760000000  0.4936320000000 1.0
C      1  0.4539410000000  0.4953270000000  0.4478010000000 1.0
C      1  0.4548700000000  0.5139670000000  0.5679480000000 1.0
C      1  0.4548640000000  0.5435620000000  0.4577500000000 1.0
C      1  0.4926640000000  0.4340020000000  0.5347610000000 1.0
C      1  0.4661970000000  0.5385530000000  0.5167720000000 1.0
C      1  0.5361740000000  0.4589530000000  0.4521290000000 1.0
C      1  0.5509250000000  0.5068030000000  0.5567110000000 1.0
C      1  0.4872520000000  0.5507950000000  0.4974310000000 1.0
C      1  0.5562870000000  0.4730210000000  0.4720240000000 1.0
C      1  0.4664960000000  0.4714390000000  0.4337610000000 1.0
C      1  0.4940810000000  0.4747930000000  0.4250580000000 1.0
C      1  0.5032220000000  0.5209910000000  0.5834860000000 1.0
C      1  0.5262720000000  0.5473930000000  0.4811650000000 1.0
C      1  0.4822830000000  0.5238070000000  0.5639680000000 1.0
C      1  0.4245020000000  0.4745710000000  0.5043050000000 1.0
C      1  0.4634970000000  0.4556830000000  0.4613560000000 1.0
C      1  0.4493070000000  0.5176840000000  0.5003430000000 1.0
C      1  0.5007940000000  0.4891120000000  0.4967280000000 1.0
C      1  0.4419380000000  0.5436500000000  0.5349490000000 1.0
C      1  0.5559410000000  0.5369940000000  0.5419770000000 1.0
C      1  0.5403060000000  0.4374080000000  0.5235060000000 1.0
C      1  0.5115240000000  0.5022310000000  0.5429420000000 1.0
C      1  0.4910990000000  0.4912520000000  0.5239730000000 1.0
C      1  0.5661660000000  0.5226240000000  0.4578320000000 1.0
C      1  0.5064000000000  0.5523950000000  0.4600910000000 1.0
C      1  0.4324600000000  0.4679210000000  0.4749810000000 1.0
C      1  0.4493830000000  0.4422690000000  0.5143670000000 1.0
C      1  0.4680510000000  0.4606530000000  0.5556720000000 1.0
C      1  0.5303760000000  0.5270040000000  0.5755770000000 1.0
C      1  0.5042840000000  0.4319310000000  0.4844550000000 1.0
C      1  0.5405680000000  0.5250370000000  0.4326720000000 1.0
C      1  0.5304590000000  0.4985810000000  0.5113070000000 1.0
C      1  0.4656470000000  0.4666570000000  0.5014230000000 1.0
C      1  0.4623210000000  0.5226140000000  0.4378000000000 1.0
C      1  0.5385700000000  0.5653770000000  0.5024640000000 1.0
C      1  0.5128140000000  0.4775920000000  0.4475090000000 1.0
C      1  0.4913250000000  0.5184180000000  0.4811450000000 1.0
C      1  0.4608110000000  0.4325720000000  0.5408770000000 1.0
C      1  0.4240190000000  0.4903380000000  0.4550000000000 1.0
C      1  0.4947260000000  0.4706310000000  0.4714090000000 1.0
C      1  0.4387190000000  0.4963240000000  0.5223530000000 1.0
C      1  0.4628910000000  0.4962640000000  0.4806890000000 1.0
C      1  0.4927710000000  0.5318310000000  0.5344530000000 1.0
C      1  0.4341330000000  0.5168540000000  0.5466820000000 1.0
C      1  0.4925310000000  0.4464430000000  0.5073010000000 1.0
C      1  0.5120890000000  0.5375690000000  0.4355730000000 1.0
C      1  0.4137480000000  0.5155650000000  0.4657610000000 1.0
C      1  0.5651820000000  0.4755440000000  0.5163620000000 1.0
C      1  0.5558040000000  0.4494870000000  0.4985670000000 1.0
C      1  0.5518580000000  0.5477920000000  0.4664780000000 1.0
END
