TITL C-862134-6730-1391 -1.38956080658398e-05 125000 -647.34920699268 0 0 110 (D2) n - 1
REM
REM in /home/nfs/bkarasulu/CARBON/AIRSS/Generating-Clusters/TERSOFF/Higher-Symm/FIRE-HFTN
REM
REM
REM
REM
REM
REM ./C.cell (b20cbc046b6831c77cfcea5457e17084)
REM AIRSS Version 0.9.1 bugfix July 2018 build 013d7b7c2542+ Fri, 06 Jul 2018 19:26:36 +0100
REM compiler GCC version 9.2.1 20190827 (Red Hat 9.2.1-1)
REM options -cpp -mtune=generic -march=x86-64 -g -O0 -fpre-include=/usr/include/finclude/math-vector-fortran.h
REM seed -1892166852 750672600 1021466201 42092483 1515484011 -1627126179 2013692319 1396239125 163853412 -166786602 313018870 606002670 -1664711048 2123169685 276458468 2056739138 1708821694 -794961927 -556841845 -541084751 -1952606199 1912894498 -1334386536 1968824161 -1604307262 1933561450 -566448994 -1159450096 1110616882 1754752725 365768631 363283645 -2020592454
REM
CELL 1.54180   50.00000   50.00000   50.00000   90.00000   90.00000   90.00000
LATT -1
SFAC C  
C      1  0.5373350000000  0.5130690000000  0.4091420000000 1.0
C      1  0.4626650000000  0.4869310000000  0.4091420000000 1.0
C      1  0.5373350000000  0.4869310000000  0.5922980000000 1.0
C      1  0.4626650000000  0.5130690000000  0.5922980000000 1.0
C      1  0.5511750000000  0.4421090000000  0.5705460000000 1.0
C      1  0.4488250000000  0.5578910000000  0.5705460000000 1.0
C      1  0.5511740000000  0.5578910000000  0.4308930000000 1.0
C      1  0.4488260000000  0.4421090000000  0.4308930000000 1.0
C      1  0.5584060000000  0.4688950000000  0.5799380000000 1.0
C      1  0.4415940000000  0.5311050000000  0.5799380000000 1.0
C      1  0.5584060000000  0.5311050000000  0.4215020000000 1.0
C      1  0.4415940000000  0.4688950000000  0.4215020000000 1.0
C      1  0.4953180000000  0.6085780000000  0.4860540000000 1.0
C      1  0.5046820000000  0.3914220000000  0.4860540000000 1.0
C      1  0.4953180000000  0.3914220000000  0.5153850000000 1.0
C      1  0.5046820000000  0.6085780000000  0.5153850000000 1.0
C      1  0.4654640000000  0.4852140000000  0.4626200000000 1.0
C      1  0.5345360000000  0.5147860000000  0.4626200000000 1.0
C      1  0.4654640000000  0.5147860000000  0.5388190000000 1.0
C      1  0.5345360000000  0.4852140000000  0.5388190000000 1.0
C      1  0.5083430000000  0.4767770000000  0.5879770000000 1.0
C      1  0.4916570000000  0.5232230000000  0.5879770000000 1.0
C      1  0.5083430000000  0.5232230000000  0.4134620000000 1.0
C      1  0.4916570000000  0.4767770000000  0.4134620000000 1.0
C      1  0.4860140000000  0.5833880000000  0.4703580000000 1.0
C      1  0.5139860000000  0.4166120000000  0.4703580000000 1.0
C      1  0.4860150000000  0.4166120000000  0.5310810000000 1.0
C      1  0.5139850000000  0.5833880000000  0.5310810000000 1.0
C      1  0.5226470000000  0.4916090000000  0.4481360000000 1.0
C      1  0.4773530000000  0.5083910000000  0.4481360000000 1.0
C      1  0.5226470000000  0.5083910000000  0.5533030000000 1.0
C      1  0.4773530000000  0.4916090000000  0.5533030000000 1.0
C      1  0.5607290000000  0.5144690000000  0.4459950000000 1.0
C      1  0.4392710000000  0.4855310000000  0.4459950000000 1.0
C      1  0.5607290000000  0.4855310000000  0.5554440000000 1.0
C      1  0.4392710000000  0.5144690000000  0.5554440000000 1.0
C      1  0.5140330000000  0.5243310000000  0.5070770000000 1.0
C      1  0.4859670000000  0.4756690000000  0.5070770000000 1.0
C      1  0.5140330000000  0.4756690000000  0.4943620000000 1.0
C      1  0.4859670000000  0.5243310000000  0.4943620000000 1.0
C      1  0.4574480000000  0.4247180000000  0.5272870000000 1.0
C      1  0.5425520000000  0.5752820000000  0.5272870000000 1.0
C      1  0.4574480000000  0.5752810000000  0.4741520000000 1.0
C      1  0.5425520000000  0.4247190000000  0.4741520000000 1.0
C      1  0.4851240000000  0.5419220000000  0.5376730000000 1.0
C      1  0.5148760000000  0.4580780000000  0.5376730000000 1.0
C      1  0.4851240000000  0.4580780000000  0.4637670000000 1.0
C      1  0.5148760000000  0.5419220000000  0.4637670000000 1.0
C      1  0.4255720000000  0.4888540000000  0.5575770000000 1.0
C      1  0.5744280000000  0.5111460000000  0.5575770000000 1.0
C      1  0.4255720000000  0.5111460000000  0.4438620000000 1.0
C      1  0.5744280000000  0.4888540000000  0.4438620000000 1.0
C      1  0.6059680000000  0.4876160000000  0.4928770000000 1.0
C      1  0.3940320000000  0.5123840000000  0.4928770000000 1.0
C      1  0.6059680000000  0.5123840000000  0.5085630000000 1.0
C      1  0.3940320000000  0.4876160000000  0.5085630000000 1.0
C      1  0.5825980000000  0.5293880000000  0.5128850000000 1.0
C      1  0.4174020000000  0.4706120000000  0.5128850000000 1.0
C      1  0.5825990000000  0.4706120000000  0.4885550000000 1.0
C      1  0.4174010000000  0.5293880000000  0.4885550000000 1.0
C      1  0.5180250000000  0.4687130000000  0.4649980000000 1.0
C      1  0.4819750000000  0.5312870000000  0.4649980000000 1.0
C      1  0.5180240000000  0.5312870000000  0.5364410000000 1.0
C      1  0.4819760000000  0.4687130000000  0.5364410000000 1.0
C      1  0.4371740000000  0.4670920000000  0.4925580000000 1.0
C      1  0.5628260000000  0.5329080000000  0.4925580000000 1.0
C      1  0.4371740000000  0.5329080000000  0.5088820000000 1.0
C      1  0.5628260000000  0.4670920000000  0.5088820000000 1.0
C      1  0.5397150000000  0.4394260000000  0.5437840000000 1.0
C      1  0.4602850000000  0.5605740000000  0.5437840000000 1.0
C      1  0.5397150000000  0.5605740000000  0.4576550000000 1.0
C      1  0.4602850000000  0.4394260000000  0.4576550000000 1.0
C      1  0.5009820000000  0.5625300000000  0.4854780000000 1.0
C      1  0.4990180000000  0.4374700000000  0.4854780000000 1.0
C      1  0.5009820000000  0.4374700000000  0.5159620000000 1.0
C      1  0.4990180000000  0.5625300000000  0.5159620000000 1.0
C      1  0.5578230000000  0.4400660000000  0.5200210000000 1.0
C      1  0.4421770000000  0.5599340000000  0.5200210000000 1.0
C      1  0.5578220000000  0.5599340000000  0.4814180000000 1.0
C      1  0.4421780000000  0.4400660000000  0.4814180000000 1.0
C      1  0.4444750000000  0.4194830000000  0.5017920000000 1.0
C      1  0.5555250000000  0.5805170000000  0.5017920000000 1.0
C      1  0.4444750000000  0.5805170000000  0.4996480000000 1.0
C      1  0.5555250000000  0.4194830000000  0.4996480000000 1.0
C      1  0.5138440000000  0.4541290000000  0.4203200000000 1.0
C      1  0.4861560000000  0.5458710000000  0.4203200000000 1.0
C      1  0.5138440000000  0.5458710000000  0.5811190000000 1.0
C      1  0.4861560000000  0.4541290000000  0.5811190000000 1.0
C      1  0.5706520000000  0.4669290000000  0.4623500000000 1.0
C      1  0.4293480000000  0.5330710000000  0.4623500000000 1.0
C      1  0.5706520000000  0.5330710000000  0.5390890000000 1.0
C      1  0.4293480000000  0.4669290000000  0.5390890000000 1.0
C      1  0.5378250000000  0.5189430000000  0.5796960000000 1.0
C      1  0.4621750000000  0.4810570000000  0.5796960000000 1.0
C      1  0.5378250000000  0.4810570000000  0.4217440000000 1.0
C      1  0.4621750000000  0.5189430000000  0.4217440000000 1.0
C      1  0.4912880000000  0.5741520000000  0.4379250000000 1.0
C      1  0.5087120000000  0.4258480000000  0.4379250000000 1.0
C      1  0.4912880000000  0.4258480000000  0.5635140000000 1.0
C      1  0.5087120000000  0.5741520000000  0.5635140000000 1.0
C      1  0.4557640000000  0.5479400000000  0.4630320000000 1.0
C      1  0.5442360000000  0.4520600000000  0.4630320000000 1.0
C      1  0.4557640000000  0.4520600000000  0.5384070000000 1.0
C      1  0.5442360000000  0.5479400000000  0.5384070000000 1.0
C      1  0.5392640000000  0.4862310000000  0.5087310000000 1.0
C      1  0.4607360000000  0.5137690000000  0.5087310000000 1.0
C      1  0.5392640000000  0.5137690000000  0.4927090000000 1.0
C      1  0.4607360000000  0.4862310000000  0.4927090000000 1.0
C      1  0.5000000000000  0.5000000000000  0.5704120000000 1.0
C      1  0.5000000000000  0.5000000000000  0.4310280000000 1.0
END
