TITL C-862129-6180-111 -0.0554302974701779 125000 -562.48205431558 0 0 106 (C1) n - 1
REM
REM in /home/nfs/bkarasulu/CARBON/AIRSS/Generating-Clusters/TERSOFF/Higher-Symm/FIRE-HFTN
REM
REM
REM
REM
REM
REM ./C.cell (b20cbc046b6831c77cfcea5457e17084)
REM AIRSS Version 0.9.1 bugfix July 2018 build 013d7b7c2542+ Fri, 06 Jul 2018 19:26:36 +0100
REM compiler GCC version 9.2.1 20190827 (Red Hat 9.2.1-1)
REM options -cpp -mtune=generic -march=x86-64 -g -O0 -fpre-include=/usr/include/finclude/math-vector-fortran.h
REM seed -125498984 551870413 -966436378 756033362 722004303 -1676573287 -1492971783 2128725620 1706052638 153314264 1276506631 -1521743269 1524857633 -127933430 1466675364 -417553204 817927070 737232883 1814580606 989009595 950509838 1520146568 590241148 2078163061 1208625865 -943953721 -649960095 -2096596701 206632306 -1153396957 -1333290624 -1825993826 -1771306241
REM
CELL 1.54180   50.00000   50.00000   50.00000   90.00000   90.00000   90.00000
LATT -1
SFAC C  
C      1  0.5066470000000  0.5802030000000  0.4733680000000 1.0
C      1  0.5052240000000  0.4233330000000  0.5256940000000 1.0
C      1  0.5066330000000  0.4211280000000  0.4734770000000 1.0
C      1  0.5051480000000  0.5779660000000  0.5256710000000 1.0
C      1  0.4366420000000  0.5298100000000  0.4714720000000 1.0
C      1  0.4291630000000  0.4713530000000  0.5339970000000 1.0
C      1  0.4367290000000  0.4715190000000  0.4713880000000 1.0
C      1  0.4290180000000  0.5299070000000  0.5339870000000 1.0
C      1  0.4958600000000  0.5282700000000  0.5300670000000 1.0
C      1  0.4994640000000  0.4685960000000  0.4688990000000 1.0
C      1  0.4959950000000  0.4730430000000  0.5297520000000 1.0
C      1  0.4996070000000  0.5327070000000  0.4685330000000 1.0
C      1  0.5299730000000  0.5549670000000  0.4393830000000 1.0
C      1  0.5259650000000  0.4480290000000  0.5599200000000 1.0
C      1  0.5299090000000  0.4462930000000  0.4394600000000 1.0
C      1  0.5258610000000  0.5531030000000  0.5598290000000 1.0
C      1  0.5485480000000  0.5648080000000  0.5441770000000 1.0
C      1  0.5512840000000  0.4347420000000  0.4572630000000 1.0
C      1  0.5486490000000  0.4363750000000  0.5442040000000 1.0
C      1  0.5513260000000  0.5664840000000  0.4572320000000 1.0
C      1  0.5337010000000  0.5867060000000  0.5272680000000 1.0
C      1  0.5353820000000  0.4126700000000  0.4737800000000 1.0
C      1  0.5337570000000  0.4145610000000  0.5272430000000 1.0
C      1  0.5354380000000  0.5885640000000  0.4737420000000 1.0
C      1  0.5612820000000  0.5164450000000  0.5602440000000 1.0
C      1  0.5639900000000  0.4846060000000  0.4420150000000 1.0
C      1  0.5614140000000  0.4846560000000  0.5603190000000 1.0
C      1  0.5639880000000  0.5165350000000  0.4420330000000 1.0
C      1  0.5363780000000  0.5288190000000  0.4250110000000 1.0
C      1  0.5319510000000  0.4732560000000  0.5747580000000 1.0
C      1  0.5363600000000  0.4723790000000  0.4248470000000 1.0
C      1  0.5318070000000  0.5277740000000  0.5744230000000 1.0
C      1  0.5098530000000  0.4728310000000  0.4084800000000 1.0
C      1  0.5068170000000  0.5271430000000  0.5921870000000 1.0
C      1  0.5101070000000  0.5278160000000  0.4083310000000 1.0
C      1  0.5066890000000  0.4736510000000  0.5921830000000 1.0
C      1  0.4716250000000  0.5623370000000  0.5611980000000 1.0
C      1  0.4746490000000  0.4393560000000  0.4379340000000 1.0
C      1  0.4716960000000  0.4388560000000  0.5611490000000 1.0
C      1  0.4746660000000  0.5616730000000  0.4377730000000 1.0
C      1  0.4564860000000  0.5235740000000  0.4105470000000 1.0
C      1  0.4534760000000  0.4776150000000  0.5928790000000 1.0
C      1  0.4562440000000  0.4774980000000  0.4107180000000 1.0
C      1  0.4535590000000  0.5233230000000  0.5931470000000 1.0
C      1  0.4786610000000  0.5214610000000  0.4491810000000 1.0
C      1  0.4740060000000  0.4796390000000  0.5514690000000 1.0
C      1  0.4784080000000  0.4795710000000  0.4494130000000 1.0
C      1  0.4739590000000  0.5214980000000  0.5517540000000 1.0
C      1  0.4855080000000  0.5163920000000  0.4192030000000 1.0
C      1  0.4815510000000  0.4844440000000  0.5818650000000 1.0
C      1  0.4853360000000  0.4844460000000  0.4193440000000 1.0
C      1  0.4815860000000  0.5164540000000  0.5820080000000 1.0
C      1  0.5417990000000  0.5218840000000  0.4772550000000 1.0
C      1  0.5424290000000  0.4795990000000  0.5192560000000 1.0
C      1  0.5418650000000  0.4793010000000  0.4772830000000 1.0
C      1  0.5422160000000  0.5214960000000  0.5192390000000 1.0
C      1  0.5018850000000  0.5587680000000  0.4522760000000 1.0
C      1  0.4982760000000  0.4450860000000  0.5459790000000 1.0
C      1  0.5018260000000  0.4425860000000  0.4524300000000 1.0
C      1  0.4981810000000  0.5562300000000  0.5459890000000 1.0
C      1  0.4430410000000  0.5493870000000  0.5571700000000 1.0
C      1  0.4467500000000  0.4503170000000  0.4479950000000 1.0
C      1  0.4430990000000  0.4517870000000  0.5571310000000 1.0
C      1  0.4467430000000  0.5510800000000  0.4481560000000 1.0
C      1  0.5661640000000  0.4643130000000  0.5338170000000 1.0
C      1  0.5691570000000  0.5387370000000  0.4697350000000 1.0
C      1  0.5660300000000  0.5368120000000  0.5337260000000 1.0
C      1  0.5692070000000  0.4624140000000  0.4697570000000 1.0
C      1  0.4640880000000  0.5888240000000  0.4993010000000 1.0
C      1  0.4641330000000  0.4124900000000  0.4994250000000 1.0
C      1  0.4385260000000  0.4261110000000  0.5017680000000 1.0
C      1  0.4384820000000  0.5751940000000  0.5017760000000 1.0
C      1  0.4610390000000  0.5321930000000  0.5070150000000 1.0
C      1  0.4610540000000  0.4692150000000  0.5068580000000 1.0
C      1  0.5378850000000  0.4577780000000  0.4989770000000 1.0
C      1  0.5374750000000  0.5432560000000  0.4989530000000 1.0
C      1  0.5834580000000  0.5320620000000  0.5024450000000 1.0
C      1  0.5834920000000  0.4691190000000  0.5024800000000 1.0
C      1  0.4908230000000  0.4261700000000  0.4993270000000 1.0
C      1  0.4908000000000  0.5751570000000  0.4992300000000 1.0
C      1  0.4884790000000  0.4581900000000  0.4983170000000 1.0
C      1  0.4885020000000  0.5431590000000  0.4982040000000 1.0
C      1  0.4155710000000  0.5006200000000  0.4753910000000 1.0
C      1  0.4088570000000  0.5005740000000  0.5275200000000 1.0
C      1  0.4354590000000  0.4552050000000  0.5023950000000 1.0
C      1  0.4354110000000  0.5460900000000  0.5024220000000 1.0
C      1  0.5574230000000  0.5648270000000  0.5004510000000 1.0
C      1  0.5577420000000  0.4361360000000  0.5004140000000 1.0
C      1  0.4372780000000  0.5005620000000  0.5801790000000 1.0
C      1  0.4418210000000  0.5006690000000  0.4253840000000 1.0
C      1  0.4459010000000  0.5006810000000  0.5470280000000 1.0
C      1  0.4538660000000  0.5007210000000  0.4587450000000 1.0
C      1  0.5481510000000  0.5936450000000  0.5011740000000 1.0
C      1  0.5481650000000  0.4074310000000  0.5011680000000 1.0
C      1  0.5255480000000  0.5005700000000  0.4365920000000 1.0
C      1  0.5225130000000  0.5003880000000  0.5611590000000 1.0
C      1  0.5179480000000  0.5002090000000  0.4661740000000 1.0
C      1  0.5174350000000  0.4998940000000  0.5305470000000 1.0
C      1  0.5563240000000  0.5005720000000  0.4973300000000 1.0
C      1  0.4591310000000  0.5006560000000  0.5076010000000 1.0
C      1  0.4825100000000  0.5007530000000  0.4894380000000 1.0
C      1  0.3882870000000  0.5004210000000  0.4983240000000 1.0
C      1  0.5903290000000  0.5005990000000  0.4959540000000 1.0
C      1  0.4298600000000  0.5008250000000  0.5036960000000 1.0
C      1  0.6077020000000  0.5005950000000  0.4716450000000 1.0
C      1  0.5096690000000  0.5047510000000  0.4981590000000 1.0
END
