TITL C-862502-1143-454 -224154.037078744 125000 -442.876347525629 0 0 78 (Cs) n - 1
REM
REM in /home/nfs/bkarasulu/CARBON/AIRSS/Generating-Clusters/TERSOFF/Higher-Symm/FIRE-HFTN
REM
REM
REM
REM
REM
REM ./C.cell (b20cbc046b6831c77cfcea5457e17084)
REM AIRSS Version 0.9.1 bugfix July 2018 build 013d7b7c2542+ Fri, 06 Jul 2018 19:26:36 +0100
REM compiler GCC version 9.2.1 20190827 (Red Hat 9.2.1-1)
REM options -cpp -mtune=generic -march=x86-64 -g -O0 -fpre-include=/usr/include/finclude/math-vector-fortran.h
REM seed -942616317 1053905938 1595986834 -1220849068 1281885894 -1723102417 1715129747 1174120729 -1174211375 -337431228 -880729199 -1111783121 -140772606 -866244500 658667640 -1939304699 1865512147 -1944230817 395964835 1301232973 -1650264601 1058116780 -289461551 -1323366613 -355630601 -1825703295 1205608350 -1086600049 -1296073694 -1657750878 -1868433066 461290330 386566537
REM
CELL 1.54180   50.00000   50.00000   50.00000   90.00000   90.00000   90.00000
LATT -1
SFAC C  
C      1  0.5144610000000  0.4216700000000  0.4843960000000 1.0
C      1  0.4855390000000  0.4216700000000  0.4843960000000 1.0
C      1  0.5776190000000  0.4961340000000  0.5431000000000 1.0
C      1  0.4223810000000  0.4961330000000  0.5431000000000 1.0
C      1  0.5311730000000  0.4754520000000  0.4912250000000 1.0
C      1  0.4688270000000  0.4754520000000  0.4912250000000 1.0
C      1  0.4690430000000  0.4177050000000  0.4609760000000 1.0
C      1  0.5309580000000  0.4177040000000  0.4609770000000 1.0
C      1  0.5687820000000  0.4499780000000  0.4693720000000 1.0
C      1  0.4312180000000  0.4499770000000  0.4693730000000 1.0
C      1  0.4847330000000  0.4854420000000  0.5434910000000 1.0
C      1  0.5152670000000  0.4854420000000  0.5434910000000 1.0
C      1  0.5304590000000  0.5509530000000  0.5324950000000 1.0
C      1  0.4695410000000  0.5509530000000  0.5324950000000 1.0
C      1  0.4850310000000  0.5339870000000  0.5526260000000 1.0
C      1  0.5149690000000  0.5339870000000  0.5526260000000 1.0
C      1  0.4412590000000  0.5909420000000  0.4806140000000 1.0
C      1  0.5587410000000  0.5909420000000  0.4806140000000 1.0
C      1  0.4858470000000  0.4530360000000  0.4301860000000 1.0
C      1  0.5141530000000  0.4530360000000  0.4301860000000 1.0
C      1  0.5762300000000  0.5740430000000  0.5260560000000 1.0
C      1  0.4237700000000  0.5740430000000  0.5260560000000 1.0
C      1  0.4717320000000  0.4568910000000  0.5498710000000 1.0
C      1  0.5282680000000  0.4568910000000  0.5498710000000 1.0
C      1  0.4859350000000  0.4345160000000  0.5377260000000 1.0
C      1  0.5140650000000  0.4345160000000  0.5377260000000 1.0
C      1  0.5144070000000  0.5277500000000  0.4361980000000 1.0
C      1  0.4855930000000  0.5277500000000  0.4361980000000 1.0
C      1  0.5887420000000  0.5019550000000  0.5170250000000 1.0
C      1  0.4112580000000  0.5019540000000  0.5170250000000 1.0
C      1  0.5146350000000  0.5640790000000  0.4791690000000 1.0
C      1  0.4853650000000  0.5640790000000  0.4791700000000 1.0
C      1  0.4821220000000  0.4882250000000  0.4672900000000 1.0
C      1  0.5178780000000  0.4882250000000  0.4672900000000 1.0
C      1  0.5870720000000  0.5030420000000  0.4666320000000 1.0
C      1  0.4129280000000  0.5030410000000  0.4666310000000 1.0
C      1  0.4446110000000  0.4815090000000  0.4325490000000 1.0
C      1  0.5553890000000  0.4815080000000  0.4325490000000 1.0
C      1  0.4846950000000  0.4640870000000  0.5796260000000 1.0
C      1  0.5153050000000  0.4640870000000  0.5796260000000 1.0
C      1  0.4719030000000  0.5383820000000  0.4829740000000 1.0
C      1  0.5280970000000  0.5383830000000  0.4829740000000 1.0
C      1  0.5245650000000  0.4919930000000  0.5845730000000 1.0
C      1  0.4754350000000  0.4919930000000  0.5845730000000 1.0
C      1  0.4704170000000  0.4735170000000  0.4431330000000 1.0
C      1  0.5295830000000  0.4735170000000  0.4431330000000 1.0
C      1  0.4530980000000  0.5054750000000  0.5160240000000 1.0
C      1  0.5469020000000  0.5054750000000  0.5160240000000 1.0
C      1  0.4318520000000  0.4522630000000  0.5178350000000 1.0
C      1  0.5681480000000  0.4522630000000  0.5178350000000 1.0
C      1  0.4240100000000  0.5741890000000  0.4970090000000 1.0
C      1  0.5759890000000  0.5741900000000  0.4970090000000 1.0
C      1  0.4494990000000  0.4367950000000  0.4510140000000 1.0
C      1  0.5505010000000  0.4367950000000  0.4510140000000 1.0
C      1  0.4703120000000  0.5890360000000  0.4796450000000 1.0
C      1  0.5296880000000  0.5890360000000  0.4796450000000 1.0
C      1  0.4740290000000  0.5180190000000  0.4614260000000 1.0
C      1  0.5259710000000  0.5180190000000  0.4614260000000 1.0
C      1  0.5592660000000  0.5132950000000  0.5573790000000 1.0
C      1  0.4407340000000  0.5132940000000  0.5573790000000 1.0
C      1  0.4464380000000  0.4408080000000  0.4223460000000 1.0
C      1  0.5535610000000  0.4408070000000  0.4223460000000 1.0
C      1  0.5141570000000  0.5734070000000  0.5228020000000 1.0
C      1  0.4858430000000  0.5734070000000  0.5228020000000 1.0
C      1  0.4394450000000  0.4673420000000  0.4925330000000 1.0
C      1  0.5605550000000  0.4673420000000  0.4925330000000 1.0
C      1  0.5562960000000  0.5612790000000  0.5425900000000 1.0
C      1  0.4437040000000  0.5612790000000  0.5425900000000 1.0
C      1  0.4215860000000  0.4916170000000  0.4919720000000 1.0
C      1  0.5784140000000  0.4916170000000  0.4919720000000 1.0
C      1  0.5362700000000  0.5315410000000  0.5099600000000 1.0
C      1  0.4637300000000  0.5315410000000  0.5099600000000 1.0
C      1  0.4431670000000  0.4571060000000  0.5440890000000 1.0
C      1  0.5568330000000  0.4571060000000  0.5440890000000 1.0
C      1  0.5711450000000  0.5036290000000  0.4424660000000 1.0
C      1  0.4288550000000  0.5036300000000  0.4424660000000 1.0
C      1  0.4702250000000  0.5089140000000  0.5596050000000 1.0
C      1  0.5297750000000  0.5089140000000  0.5596050000000 1.0
END
