TITL C-862129-6180-1359 -0.0614422417888472 125000 -983.371267147709 0 0 174 (D3) n - 1
REM
REM in /home/nfs/bkarasulu/CARBON/AIRSS/Generating-Clusters/TERSOFF/Higher-Symm/FIRE-HFTN
REM
REM
REM
REM
REM
REM ./C.cell (b20cbc046b6831c77cfcea5457e17084)
REM AIRSS Version 0.9.1 bugfix July 2018 build 013d7b7c2542+ Fri, 06 Jul 2018 19:26:36 +0100
REM compiler GCC version 9.2.1 20190827 (Red Hat 9.2.1-1)
REM options -cpp -mtune=generic -march=x86-64 -g -O0 -fpre-include=/usr/include/finclude/math-vector-fortran.h
REM seed -1838975662 -911526786 -1023232120 -293621455 -1749173155 -1230670813 1361539069 1151556719 865862982 -1997900979 1645000867 -1193973882 -1346233177 -615233252 -1771197214 1143700978 2111661202 -780858288 -660926332 1044641985 -710832814 -188384494 639550150 -608301782 -1507813933 243704583 266031014 -1935477668 -460174765 -2064222685 1943327713 -154970815 -1510429205
REM
CELL 1.54180   50.00000   50.00000   50.00000   90.00000   90.00000   90.00000
LATT -1
SFAC C  
C      1  0.5480990000000  0.4842490000000  0.5576390000000 1.0
C      1  0.4895910000000  0.5495300000000  0.5576390000000 1.0
C      1  0.4623100000000  0.4662210000000  0.5576390000000 1.0
C      1  0.4519010000000  0.4842490000000  0.4423610000000 1.0
C      1  0.5104090000000  0.5495300000000  0.4423610000000 1.0
C      1  0.5376900000000  0.4662210000000  0.4423610000000 1.0
C      1  0.4936900000000  0.5304800000000  0.4021780000000 1.0
C      1  0.4767590000000  0.4792960000000  0.4021780000000 1.0
C      1  0.5295510000000  0.4902240000000  0.4021780000000 1.0
C      1  0.5063100000000  0.5304800000000  0.5978220000000 1.0
C      1  0.5232410000000  0.4792960000000  0.5978220000000 1.0
C      1  0.4704490000000  0.4902240000000  0.5978220000000 1.0
C      1  0.5006840000000  0.5968580000000  0.5692160000000 1.0
C      1  0.4157770000000  0.4521630000000  0.5692160000000 1.0
C      1  0.5835390000000  0.4509790000000  0.5692160000000 1.0
C      1  0.4993160000000  0.5968580000000  0.4307840000000 1.0
C      1  0.5842230000000  0.4521630000000  0.4307840000000 1.0
C      1  0.4164610000000  0.4509790000000  0.4307840000000 1.0
C      1  0.4238120000000  0.4253110000000  0.5752540000000 1.0
C      1  0.6027760000000  0.4713640000000  0.5752540000000 1.0
C      1  0.4734110000000  0.6033250000000  0.5752540000000 1.0
C      1  0.5761880000000  0.4253110000000  0.4247460000000 1.0
C      1  0.3972240000000  0.4713640000000  0.4247460000000 1.0
C      1  0.5265880000000  0.6033250000000  0.4247460000000 1.0
C      1  0.5316610000000  0.4129730000000  0.5561880000000 1.0
C      1  0.5595370000000  0.5709330000000  0.5561880000000 1.0
C      1  0.4088020000000  0.5160940000000  0.5561880000000 1.0
C      1  0.4683390000000  0.4129730000000  0.4438120000000 1.0
C      1  0.4404630000000  0.5709330000000  0.4438120000000 1.0
C      1  0.5911980000000  0.5160940000000  0.4438120000000 1.0
C      1  0.4221960000000  0.5130400000000  0.5852320000000 1.0
C      1  0.5276090000000  0.4261000000000  0.5852320000000 1.0
C      1  0.5501950000000  0.5608600000000  0.5852320000000 1.0
C      1  0.5778040000000  0.5130400000000  0.4147680000000 1.0
C      1  0.4723910000000  0.4261000000000  0.4147680000000 1.0
C      1  0.4498050000000  0.5608600000000  0.4147680000000 1.0
C      1  0.5583560000000  0.3997980000000  0.5358600000000 1.0
C      1  0.5575990000000  0.6006390000000  0.5358600000000 1.0
C      1  0.3840450000000  0.4995630000000  0.5358600000000 1.0
C      1  0.4416440000000  0.3997980000000  0.4641400000000 1.0
C      1  0.4424010000000  0.6006390000000  0.4641400000000 1.0
C      1  0.6159550000000  0.4995630000000  0.4641400000000 1.0
C      1  0.4171900000000  0.5851170000000  0.4757330000000 1.0
C      1  0.4676910000000  0.3857250000000  0.4757330000000 1.0
C      1  0.6151190000000  0.5291570000000  0.4757330000000 1.0
C      1  0.5828100000000  0.5851170000000  0.5242670000000 1.0
C      1  0.5323090000000  0.3857250000000  0.5242670000000 1.0
C      1  0.3848810000000  0.5291570000000  0.5242670000000 1.0
C      1  0.5683580000000  0.5124960000000  0.5073490000000 1.0
C      1  0.4549990000000  0.5529520000000  0.5073490000000 1.0
C      1  0.4766430000000  0.4345520000000  0.5073490000000 1.0
C      1  0.4316420000000  0.5124960000000  0.4926510000000 1.0
C      1  0.5450010000000  0.5529520000000  0.4926510000000 1.0
C      1  0.5233570000000  0.4345520000000  0.4926510000000 1.0
C      1  0.5754190000000  0.5537790000000  0.4873380000000 1.0
C      1  0.4157170000000  0.5384250000000  0.4873380000000 1.0
C      1  0.5088640000000  0.4077960000000  0.4873380000000 1.0
C      1  0.4245810000000  0.5537790000000  0.5126620000000 1.0
C      1  0.5842830000000  0.5384250000000  0.5126620000000 1.0
C      1  0.4911360000000  0.4077960000000  0.5126620000000 1.0
C      1  0.5666640000000  0.5041640000000  0.5677490000000 1.0
C      1  0.4630620000000  0.5556510000000  0.5677490000000 1.0
C      1  0.4702740000000  0.4401860000000  0.5677490000000 1.0
C      1  0.4333360000000  0.5041640000000  0.4322510000000 1.0
C      1  0.5369380000000  0.5556510000000  0.4322510000000 1.0
C      1  0.5297260000000  0.4401860000000  0.4322510000000 1.0
C      1  0.5273540000000  0.5173200000000  0.4633010000000 1.0
C      1  0.4713240000000  0.5150300000000  0.4633010000000 1.0
C      1  0.5013220000000  0.4676510000000  0.4633010000000 1.0
C      1  0.4726460000000  0.5173200000000  0.5366990000000 1.0
C      1  0.5286760000000  0.5150300000000  0.5366990000000 1.0
C      1  0.4986780000000  0.4676510000000  0.5366990000000 1.0
C      1  0.4514780000000  0.5171950000000  0.5554680000000 1.0
C      1  0.5093700000000  0.4493810000000  0.5554680000000 1.0
C      1  0.5391520000000  0.5334240000000  0.5554680000000 1.0
C      1  0.5485220000000  0.5171950000000  0.4445320000000 1.0
C      1  0.4906300000000  0.4493810000000  0.4445320000000 1.0
C      1  0.4608480000000  0.5334240000000  0.4445320000000 1.0
C      1  0.5169380000000  0.3848390000000  0.4480580000000 1.0
C      1  0.5912640000000  0.5722490000000  0.4480580000000 1.0
C      1  0.3917990000000  0.5429120000000  0.4480580000000 1.0
C      1  0.4830620000000  0.3848390000000  0.5519420000000 1.0
C      1  0.4087360000000  0.5722490000000  0.5519420000000 1.0
C      1  0.6082010000000  0.5429120000000  0.5519420000000 1.0
C      1  0.5730820000000  0.4095920000000  0.5079340000000 1.0
C      1  0.5417550000000  0.6084950000000  0.5079340000000 1.0
C      1  0.3851630000000  0.4819140000000  0.5079340000000 1.0
C      1  0.4269180000000  0.4095920000000  0.4920660000000 1.0
C      1  0.4582450000000  0.6084950000000  0.4920660000000 1.0
C      1  0.6148370000000  0.4819140000000  0.4920660000000 1.0
C      1  0.4241100000000  0.4758780000000  0.5266360000000 1.0
C      1  0.5588350000000  0.4463390000000  0.5266360000000 1.0
C      1  0.5170550000000  0.5777830000000  0.5266360000000 1.0
C      1  0.5758900000000  0.4758780000000  0.4733640000000 1.0
C      1  0.4411650000000  0.4463380000000  0.4733640000000 1.0
C      1  0.4829450000000  0.5777830000000  0.4733640000000 1.0
C      1  0.4943150000000  0.4684160000000  0.6023570000000 1.0
C      1  0.5301950000000  0.5108690000000  0.6023570000000 1.0
C      1  0.4754900000000  0.5207150000000  0.6023570000000 1.0
C      1  0.5056850000000  0.4684160000000  0.3976430000000 1.0
C      1  0.4698050000000  0.5108690000000  0.3976430000000 1.0
C      1  0.5245100000000  0.5207150000000  0.3976430000000 1.0
C      1  0.5605350000000  0.4578880000000  0.5526630000000 1.0
C      1  0.5062020000000  0.5734810000000  0.5526630000000 1.0
C      1  0.4332630000000  0.4686310000000  0.5526630000000 1.0
C      1  0.4394650000000  0.4578880000000  0.4473370000000 1.0
C      1  0.4937980000000  0.5734810000000  0.4473370000000 1.0
C      1  0.5667370000000  0.4686310000000  0.4473370000000 1.0
C      1  0.4198430000000  0.5823810000000  0.5048720000000 1.0
C      1  0.4687350000000  0.3893920000000  0.5048720000000 1.0
C      1  0.6114220000000  0.5282280000000  0.5048720000000 1.0
C      1  0.5801570000000  0.5823810000000  0.4951280000000 1.0
C      1  0.5312650000000  0.3893920000000  0.4951280000000 1.0
C      1  0.3885780000000  0.5282280000000  0.4951280000000 1.0
C      1  0.5039900000000  0.4418270000000  0.4155360000000 1.0
C      1  0.5483840000000  0.5325420000000  0.4155360000000 1.0
C      1  0.4476250000000  0.5256310000000  0.4155360000000 1.0
C      1  0.4960100000000  0.4418270000000  0.5844640000000 1.0
C      1  0.4516160000000  0.5325420000000  0.5844640000000 1.0
C      1  0.5523750000000  0.5256310000000  0.5844640000000 1.0
C      1  0.5681340000000  0.5905810000000  0.4506610000000 1.0
C      1  0.3874870000000  0.5137150000000  0.4506610000000 1.0
C      1  0.5443790000000  0.3957040000000  0.4506610000000 1.0
C      1  0.4318660000000  0.5905810000000  0.5493390000000 1.0
C      1  0.6125130000000  0.5137150000000  0.5493390000000 1.0
C      1  0.4556210000000  0.3957040000000  0.5493390000000 1.0
C      1  0.5403110000000  0.4532950000000  0.5955110000000 1.0
C      1  0.5202920000000  0.5582630000000  0.5955110000000 1.0
C      1  0.4393970000000  0.4884420000000  0.5955110000000 1.0
C      1  0.4596890000000  0.4532950000000  0.4044890000000 1.0
C      1  0.4797080000000  0.5582630000000  0.4044890000000 1.0
C      1  0.5606030000000  0.4884420000000  0.4044890000000 1.0
C      1  0.6190630000000  0.5024390000000  0.5192350000000 1.0
C      1  0.4383560000000  0.6018920000000  0.5192350000000 1.0
C      1  0.4425810000000  0.3956690000000  0.5192350000000 1.0
C      1  0.3809370000000  0.5024390000000  0.4807650000000 1.0
C      1  0.5616440000000  0.6018920000000  0.4807650000000 1.0
C      1  0.5574190000000  0.3956690000000  0.4807650000000 1.0
C      1  0.5179590000000  0.4886700000000  0.5675260000000 1.0
C      1  0.5008320000000  0.5212180000000  0.5675260000000 1.0
C      1  0.4812090000000  0.4901120000000  0.5675260000000 1.0
C      1  0.4820410000000  0.4886700000000  0.4324740000000 1.0
C      1  0.4991680000000  0.5212180000000  0.4324740000000 1.0
C      1  0.5187910000000  0.4901120000000  0.4324740000000 1.0
C      1  0.4168540000000  0.4397250000000  0.4894380000000 1.0
C      1  0.5937730000000  0.4581300000000  0.4894380000000 1.0
C      1  0.4893740000000  0.6021440000000  0.4894380000000 1.0
C      1  0.5831460000000  0.4397250000000  0.5105620000000 1.0
C      1  0.4062270000000  0.4581300000000  0.5105620000000 1.0
C      1  0.5106260000000  0.6021440000000  0.5105620000000 1.0
C      1  0.4242600000000  0.5029300000000  0.5188930000000 1.0
C      1  0.5353330000000  0.4329420000000  0.5188930000000 1.0
C      1  0.5404070000000  0.5641280000000  0.5188930000000 1.0
C      1  0.5757400000000  0.5029300000000  0.4811070000000 1.0
C      1  0.4646670000000  0.4329420000000  0.4811070000000 1.0
C      1  0.4595930000000  0.5641280000000  0.4811070000000 1.0
C      1  0.4507540000000  0.4178920000000  0.5676580000000 1.0
C      1  0.5957300000000  0.4984060000000  0.5676580000000 1.0
C      1  0.4535150000000  0.5837020000000  0.5676580000000 1.0
C      1  0.5492460000000  0.4178920000000  0.4323420000000 1.0
C      1  0.4042700000000  0.4984060000000  0.4323420000000 1.0
C      1  0.5464850000000  0.5837020000000  0.4323420000000 1.0
C      1  0.5848550000000  0.5561190000000  0.5387400000000 1.0
C      1  0.4089720000000  0.5454270000000  0.5387400000000 1.0
C      1  0.5061730000000  0.3984540000000  0.5387400000000 1.0
C      1  0.4151450000000  0.5561190000000  0.4612600000000 1.0
C      1  0.5910280000000  0.5454270000000  0.4612600000000 1.0
C      1  0.4938270000000  0.3984540000000  0.4612600000000 1.0
C      1  0.4904370000000  0.4600540000000  0.5109870000000 1.0
C      1  0.5393760000000  0.5116910000000  0.5109870000000 1.0
C      1  0.4701870000000  0.5282550000000  0.5109870000000 1.0
C      1  0.5095630000000  0.4600540000000  0.4890130000000 1.0
C      1  0.4606240000000  0.5116910000000  0.4890130000000 1.0
C      1  0.5298130000000  0.5282550000000  0.4890130000000 1.0
END
