TITL C-862132-7359-9 -0.0198817726862287 125000 -384.943666339297 0 0 68 (C5) n - 1
REM
REM in /home/nfs/bkarasulu/CARBON/AIRSS/Generating-Clusters/TERSOFF/Higher-Symm/FIRE-HFTN
REM
REM
REM
REM
REM
REM ./C.cell (b20cbc046b6831c77cfcea5457e17084)
REM AIRSS Version 0.9.1 bugfix July 2018 build 013d7b7c2542+ Fri, 06 Jul 2018 19:26:36 +0100
REM compiler GCC version 9.2.1 20190827 (Red Hat 9.2.1-1)
REM options -cpp -mtune=generic -march=x86-64 -g -O0 -fpre-include=/usr/include/finclude/math-vector-fortran.h
REM seed 195047184 1503675471 1208808299 -1853400235 527192342 206232928 954723046 241984777 1833755424 -1160180066 662044659 -1143784096 648875783 712708032 916035911 24717644 -810127941 -681774868 -1648147049 1219054675 1686704828 -529881493 -591423344 528420884 -764893979 -640969405 851730570 1147447169 -2109402431 -2140118665 -1284887585 1561268593 -1181772036
REM
CELL 1.54180   50.00000   50.00000   50.00000   90.00000   90.00000   90.00000
LATT -1
SFAC C  
C      1  0.4784760000000  0.5056330000000  0.5288500000000 1.0
C      1  0.5204290000000  0.5056330000000  0.5302210000000 1.0
C      1  0.5346970000000  0.5056320000000  0.4907450000000 1.0
C      1  0.5015620000000  0.5056320000000  0.4649760000000 1.0
C      1  0.4668150000000  0.5056330000000  0.4885270000000 1.0
C      1  0.4875120000000  0.5488340000000  0.4452750000000 1.0
C      1  0.4437370000000  0.5488350000000  0.4958010000000 1.0
C      1  0.4782630000000  0.5488360000000  0.5530470000000 1.0
C      1  0.5433770000000  0.5488350000000  0.5379010000000 1.0
C      1  0.5490930000000  0.5488340000000  0.4712940000000 1.0
C      1  0.4879160000000  0.4358670000000  0.4427290000000 1.0
C      1  0.4414380000000  0.4358680000000  0.4946290000000 1.0
C      1  0.4764360000000  0.4358690000000  0.5548710000000 1.0
C      1  0.5445440000000  0.4358670000000  0.5402010000000 1.0
C      1  0.5516390000000  0.4358670000000  0.4708940000000 1.0
C      1  0.4743570000000  0.4842110000000  0.5819140000000 1.0
C      1  0.5696220000000  0.4842090000000  0.5505360000000 1.0
C      1  0.5692180000000  0.4842080000000  0.4502370000000 1.0
C      1  0.4737040000000  0.4842090000000  0.4196270000000 1.0
C      1  0.4150760000000  0.4842110000000  0.5010070000000 1.0
C      1  0.5349170000000  0.4621680000000  0.5089070000000 1.0
C      1  0.5189020000000  0.4621680000000  0.4703800000000 1.0
C      1  0.4773120000000  0.4621690000000  0.4737050000000 1.0
C      1  0.4676220000000  0.4621690000000  0.5142870000000 1.0
C      1  0.5032230000000  0.4621690000000  0.5360430000000 1.0
C      1  0.5169620000000  0.5870290000000  0.4606460000000 1.0
C      1  0.4674580000000  0.5870300000000  0.4725420000000 1.0
C      1  0.4634740000000  0.5870310000000  0.5233000000000 1.0
C      1  0.5105160000000  0.5870300000000  0.5427740000000 1.0
C      1  0.5435740000000  0.5870290000000  0.5040520000000 1.0
C      1  0.5655890000000  0.4988060000000  0.5251330000000 1.0
C      1  0.5438130000000  0.4988060000000  0.4462230000000 1.0
C      1  0.4620360000000  0.4988070000000  0.4425480000000 1.0
C      1  0.4332710000000  0.4988080000000  0.5191870000000 1.0
C      1  0.4972700000000  0.4988080000000  0.5702280000000 1.0
C      1  0.5500140000000  0.5299020000000  0.4931910000000 1.0
C      1  0.5086220000000  0.5299020000000  0.4511650000000 1.0
C      1  0.4558620000000  0.5299030000000  0.4775440000000 1.0
C      1  0.4646470000000  0.5299040000000  0.5358740000000 1.0
C      1  0.5228350000000  0.5299030000000  0.5455440000000 1.0
C      1  0.4900350000000  0.5755760000000  0.4575200000000 1.0
C      1  0.4561630000000  0.5755770000000  0.4971860000000 1.0
C      1  0.4834200000000  0.5755770000000  0.5416570000000 1.0
C      1  0.5341390000000  0.5755760000000  0.5294760000000 1.0
C      1  0.5382270000000  0.5755760000000  0.4774760000000 1.0
C      1  0.5075970000000  0.4343190000000  0.4657250000000 1.0
C      1  0.4693900000000  0.4343200000000  0.4830180000000 1.0
C      1  0.4740310000000  0.4343200000000  0.5246980000000 1.0
C      1  0.5151050000000  0.4343200000000  0.5331650000000 1.0
C      1  0.5358500000000  0.4343190000000  0.4967180000000 1.0
C      1  0.4578900000000  0.4850990000000  0.5280790000000 1.0
C      1  0.5133340000000  0.4850990000000  0.5495610000000 1.0
C      1  0.5508970000000  0.4850980000000  0.5034690000000 1.0
C      1  0.5186690000000  0.4850980000000  0.4535010000000 1.0
C      1  0.4611870000000  0.4850990000000  0.4687110000000 1.0
C      1  0.4378300000000  0.5330560000000  0.5211720000000 1.0
C      1  0.5005670000000  0.5330560000000  0.5665050000000 1.0
C      1  0.5630680000000  0.5330540000000  0.5208470000000 1.0
C      1  0.5389580000000  0.5330540000000  0.4472960000000 1.0
C      1  0.4615570000000  0.5330550000000  0.4474970000000 1.0
C      1  0.4881280000000  0.4572840000000  0.4211910000000 1.0
C      1  0.4210210000000  0.4572860000000  0.4877720000000 1.0
C      1  0.4636060000000  0.4572860000000  0.5721700000000 1.0
C      1  0.5570320000000  0.4572850000000  0.5577490000000 1.0
C      1  0.5721880000000  0.4572830000000  0.4644390000000 1.0
C      1  0.5003950000000  0.4698330000000  0.5006640000000 1.0
C      1  0.5003960000000  0.5050280000000  0.5006640000000 1.0
C      1  0.5003950000000  0.4250950000000  0.5006650000000 1.0
END
