TITL C-862130-1496-909 -0.000725126054097096 125000 -679.873611156089 0 0 122 (C3) n - 1
REM
REM in /home/nfs/bkarasulu/CARBON/AIRSS/Generating-Clusters/TERSOFF/Higher-Symm/FIRE-HFTN
REM
REM
REM
REM
REM
REM ./C.cell (b20cbc046b6831c77cfcea5457e17084)
REM AIRSS Version 0.9.1 bugfix July 2018 build 013d7b7c2542+ Fri, 06 Jul 2018 19:26:36 +0100
REM compiler GCC version 9.2.1 20190827 (Red Hat 9.2.1-1)
REM options -cpp -mtune=generic -march=x86-64 -g -O0 -fpre-include=/usr/include/finclude/math-vector-fortran.h
REM seed -1550676967 -686438449 -1637211368 1972624872 1060938605 1103895129 1068360141 -631066309 -2117923378 1768986328 -1548505193 -2089930637 -1476297017 1500606248 766268405 -1623329425 -627853053 1808628861 -506186348 1871422440 -285458746 1129480443 1078004249 961636270 322835113 1471256782 723587294 -284327010 -1281986302 -2074106548 -1624126302 -406348978 1377108315
REM
CELL 1.54180   50.00000   50.00000   50.00000   90.00000   90.00000   90.00000
LATT -1
SFAC C  
C      1  0.4838100000000  0.4309360000000  0.4657850000000 1.0
C      1  0.4875990000000  0.4363820000000  0.5496870000000 1.0
C      1  0.4838090000000  0.5043980000000  0.5769990000000 1.0
C      1  0.4875970000000  0.5743360000000  0.5303320000000 1.0
C      1  0.4838080000000  0.5639810000000  0.4577720000000 1.0
C      1  0.4875990000000  0.4885970000000  0.4205380000000 1.0
C      1  0.5156820000000  0.4320870000000  0.5352650000000 1.0
C      1  0.5092030000000  0.4366360000000  0.4515170000000 1.0
C      1  0.5156820000000  0.5032350000000  0.4240280000000 1.0
C      1  0.5092010000000  0.5734890000000  0.4698420000000 1.0
C      1  0.5156800000000  0.5639950000000  0.5412630000000 1.0
C      1  0.5092020000000  0.4891920000000  0.5791970000000 1.0
C      1  0.4848850000000  0.4672740000000  0.5473440000000 1.0
C      1  0.4857340000000  0.5249130000000  0.5529010000000 1.0
C      1  0.4848840000000  0.5568610000000  0.5047500000000 1.0
C      1  0.4857340000000  0.5328540000000  0.4520550000000 1.0
C      1  0.4848850000000  0.4751800000000  0.4484630000000 1.0
C      1  0.4857350000000  0.4415480000000  0.4956010000000 1.0
C      1  0.5142460000000  0.4669650000000  0.4498330000000 1.0
C      1  0.5118150000000  0.5192300000000  0.4498530000000 1.0
C      1  0.5142450000000  0.5597820000000  0.4969500000000 1.0
C      1  0.5118140000000  0.5336330000000  0.5422030000000 1.0
C      1  0.5142460000000  0.4725690000000  0.5537730000000 1.0
C      1  0.5118160000000  0.4464540000000  0.5085010000000 1.0
C      1  0.4865140000000  0.4002310000000  0.4723370000000 1.0
C      1  0.4942820000000  0.4277260000000  0.5776840000000 1.0
C      1  0.4865110000000  0.5254250000000  0.6003150000000 1.0
C      1  0.4942800000000  0.6029100000000  0.5238300000000 1.0
C      1  0.4865110000000  0.5736600000000  0.4279050000000 1.0
C      1  0.4942820000000  0.4686790000000  0.3990430000000 1.0
C      1  0.5102490000000  0.4047700000000  0.5227840000000 1.0
C      1  0.5064150000000  0.4237950000000  0.4247250000000 1.0
C      1  0.5102470000000  0.5277030000000  0.4066120000000 1.0
C      1  0.5064110000000  0.6031110000000  0.4721170000000 1.0
C      1  0.5102460000000  0.5668440000000  0.5711610000000 1.0
C      1  0.5064130000000  0.4724100000000  0.6037130000000 1.0
C      1  0.4677300000000  0.5076710000000  0.4123000000000 1.0
C      1  0.4577420000000  0.4378800000000  0.4484560000000 1.0
C      1  0.4677310000000  0.4197110000000  0.5372870000000 1.0
C      1  0.4577410000000  0.4859190000000  0.5796490000000 1.0
C      1  0.4677280000000  0.5719330000000  0.5509690000000 1.0
C      1  0.4577400000000  0.5755150000000  0.4724500000000 1.0
C      1  0.5293620000000  0.5082040000000  0.5839900000000 1.0
C      1  0.5443780000000  0.4369040000000  0.5528390000000 1.0
C      1  0.5293640000000  0.4229800000000  0.4655850000000 1.0
C      1  0.5443770000000  0.4856080000000  0.4194130000000 1.0
C      1  0.5293620000000  0.5681340000000  0.4509810000000 1.0
C      1  0.5443760000000  0.5768060000000  0.5283050000000 1.0
C      1  0.4692660000000  0.6087410000000  0.5087890000000 1.0
C      1  0.4608250000000  0.5568290000000  0.4171480000000 1.0
C      1  0.4692680000000  0.4527380000000  0.4015130000000 1.0
C      1  0.4608270000000  0.3993300000000  0.4922900000000 1.0
C      1  0.4692680000000  0.4378350000000  0.5902540000000 1.0
C      1  0.4608250000000  0.5431550000000  0.5911180000000 1.0
C      1  0.5339300000000  0.6090390000000  0.4878420000000 1.0
C      1  0.5324720000000  0.5530970000000  0.5842850000000 1.0
C      1  0.5339320000000  0.4558290000000  0.6009850000000 1.0
C      1  0.5324740000000  0.4002780000000  0.5043160000000 1.0
C      1  0.5339330000000  0.4344490000000  0.4117290000000 1.0
C      1  0.5324720000000  0.5459430000000  0.4119550000000 1.0
C      1  0.5319600000000  0.5141720000000  0.5308630000000 1.0
C      1  0.5323590000000  0.5332530000000  0.5001640000000 1.0
C      1  0.5319600000000  0.5191400000000  0.4723770000000 1.0
C      1  0.5323600000000  0.4830140000000  0.4712010000000 1.0
C      1  0.5319610000000  0.4660050000000  0.4973170000000 1.0
C      1  0.5323600000000  0.4830510000000  0.5291910000000 1.0
C      1  0.4684010000000  0.5151550000000  0.4711320000000 1.0
C      1  0.4681340000000  0.5316550000000  0.5010940000000 1.0
C      1  0.4684000000000  0.5172400000000  0.5280340000000 1.0
C      1  0.4681350000000  0.4830430000000  0.5273430000000 1.0
C      1  0.4684010000000  0.4669190000000  0.5013890000000 1.0
C      1  0.4681350000000  0.4846160000000  0.4721200000000 1.0
C      1  0.4461120000000  0.5380740000000  0.5387400000000 1.0
C      1  0.4363590000000  0.5320360000000  0.4922610000000 1.0
C      1  0.4461130000000  0.5140090000000  0.4477360000000 1.0
C      1  0.4363600000000  0.4767750000000  0.4762050000000 1.0
C      1  0.4461140000000  0.4472300000000  0.5140800000000 1.0
C      1  0.4363600000000  0.4905010000000  0.5320900000000 1.0
C      1  0.5491000000000  0.5473530000000  0.4590100000000 1.0
C      1  0.5639320000000  0.5314930000000  0.5101490000000 1.0
C      1  0.5491010000000  0.5116420000000  0.5619780000000 1.0
C      1  0.5639330000000  0.4752850000000  0.5226740000000 1.0
C      1  0.5491020000000  0.4403240000000  0.4795680000000 1.0
C      1  0.5639330000000  0.4925420000000  0.4677340000000 1.0
C      1  0.5605750000000  0.4428810000000  0.5272580000000 1.0
C      1  0.5675160000000  0.4880910000000  0.5657710000000 1.0
C      1  0.5605730000000  0.5516640000000  0.5359190000000 1.0
C      1  0.5675150000000  0.5624120000000  0.4775100000000 1.0
C      1  0.5605740000000  0.5047740000000  0.4373800000000 1.0
C      1  0.5675170000000  0.4488160000000  0.4572760000000 1.0
C      1  0.4370500000000  0.4445130000000  0.4704820000000 1.0
C      1  0.4369610000000  0.4880300000000  0.4330100000000 1.0
C      1  0.4370480000000  0.5531240000000  0.4671820000000 1.0
C      1  0.4369600000000  0.5638170000000  0.5236050000000 1.0
C      1  0.4370490000000  0.5016760000000  0.5628910000000 1.0
C      1  0.4369620000000  0.4474660000000  0.5439410000000 1.0
C      1  0.4799180000000  0.5530800000000  0.5694010000000 1.0
C      1  0.4762660000000  0.6058120000000  0.4786590000000 1.0
C      1  0.4799190000000  0.5330600000000  0.4194110000000 1.0
C      1  0.4762690000000  0.4281090000000  0.4191150000000 1.0
C      1  0.4799210000000  0.4131750000000  0.5117440000000 1.0
C      1  0.4762680000000  0.4653930000000  0.6027820000000 1.0
C      1  0.5194130000000  0.5705830000000  0.4230560000000 1.0
C      1  0.5200090000000  0.5918820000000  0.5102350000000 1.0
C      1  0.5194130000000  0.5311630000000  0.6000740000000 1.0
C      1  0.5200110000000  0.4450140000000  0.5749300000000 1.0
C      1  0.5194160000000  0.3975710000000  0.4774260000000 1.0
C      1  0.5200110000000  0.4624200000000  0.4153910000000 1.0
C      1  0.5554360000000  0.4238890000000  0.5040490000000 1.0
C      1  0.5586510000000  0.4611410000000  0.5753190000000 1.0
C      1  0.5554340000000  0.5410610000000  0.5639710000000 1.0
C      1  0.5586500000000  0.5841570000000  0.4960750000000 1.0
C      1  0.5554340000000  0.5343690000000  0.4325360000000 1.0
C      1  0.5586520000000  0.4540210000000  0.4291620000000 1.0
C      1  0.4395500000000  0.4250810000000  0.4941910000000 1.0
C      1  0.4517070000000  0.4612820000000  0.4268670000000 1.0
C      1  0.4395480000000  0.5423080000000  0.4384990000000 1.0
C      1  0.4517050000000  0.5825110000000  0.5035120000000 1.0
C      1  0.4395480000000  0.5319250000000  0.5678660000000 1.0
C      1  0.4517070000000  0.4555200000000  0.5701770000000 1.0
C      1  0.4284840000000  0.4997710000000  0.5001850000000 1.0
C      1  0.5708330000000  0.4997730000000  0.5001860000000 1.0
END
