TITL C-862502-1143-1324 2.51305301840832e-05 125000 -380.341780845441 0 0 64 (C3) n - 1
REM
REM in /home/nfs/bkarasulu/CARBON/AIRSS/Generating-Clusters/TERSOFF/Higher-Symm/FIRE-HFTN
REM
REM
REM
REM
REM
REM ./C.cell (b20cbc046b6831c77cfcea5457e17084)
REM AIRSS Version 0.9.1 bugfix July 2018 build 013d7b7c2542+ Fri, 06 Jul 2018 19:26:36 +0100
REM compiler GCC version 9.2.1 20190827 (Red Hat 9.2.1-1)
REM options -cpp -mtune=generic -march=x86-64 -g -O0 -fpre-include=/usr/include/finclude/math-vector-fortran.h
REM seed -705626686 1931426764 2035166109 -1675460252 -788452224 1094947159 1580691316 -1527212523 1949929360 -1672619901 -238700967 1135977383 -1058551009 31511449 -443434939 2045169835 -1047826119 -1118364791 660356299 -338231902 -1087957523 -917115064 -2044665141 894196359 -1209128832 334907918 681673179 1604293056 -504893674 -1037037819 584213867 -1137721520 -1333190177
REM
CELL 1.54180   50.00000   50.00000   50.00000   90.00000   90.00000   90.00000
LATT -1
SFAC C  
C      1  0.5267250000000  0.4857430000000  0.4538700000000 1.0
C      1  0.4478060000000  0.4857430000000  0.4991970000000 1.0
C      1  0.5265200000000  0.4857430000000  0.5448800000000 1.0
C      1  0.4739750000000  0.4857430000000  0.4538700000000 1.0
C      1  0.5528950000000  0.4857430000000  0.4991970000000 1.0
C      1  0.4741810000000  0.4857430000000  0.5448800000000 1.0
C      1  0.5158530000000  0.5110160000000  0.5250410000000 1.0
C      1  0.5148780000000  0.5110160000000  0.4730280000000 1.0
C      1  0.4703210000000  0.5110160000000  0.4998790000000 1.0
C      1  0.4848480000000  0.5110160000000  0.5250410000000 1.0
C      1  0.4858230000000  0.5110160000000  0.4730280000000 1.0
C      1  0.5303800000000  0.5110160000000  0.4998790000000 1.0
C      1  0.4859300000000  0.4831830000000  0.5941300000000 1.0
C      1  0.5896720000000  0.4831830000000  0.4643970000000 1.0
C      1  0.4254490000000  0.4831830000000  0.4394210000000 1.0
C      1  0.5147710000000  0.4831830000000  0.5941300000000 1.0
C      1  0.4110290000000  0.4831830000000  0.4643970000000 1.0
C      1  0.5752520000000  0.4831830000000  0.4394210000000 1.0
C      1  0.5503370000000  0.4985310000000  0.4400980000000 1.0
C      1  0.4240730000000  0.4985310000000  0.4856350000000 1.0
C      1  0.5266410000000  0.4985310000000  0.5722140000000 1.0
C      1  0.4503640000000  0.4985310000000  0.4400980000000 1.0
C      1  0.5766270000000  0.4985310000000  0.4856350000000 1.0
C      1  0.4740600000000  0.4985310000000  0.5722140000000 1.0
C      1  0.5380930000000  0.4564910000000  0.5391100000000 1.0
C      1  0.5159420000000  0.4564910000000  0.4467330000000 1.0
C      1  0.4470160000000  0.4564910000000  0.5121050000000 1.0
C      1  0.4626080000000  0.4564910000000  0.5391100000000 1.0
C      1  0.4847590000000  0.4564910000000  0.4467330000000 1.0
C      1  0.5536850000000  0.4564910000000  0.5121050000000 1.0
C      1  0.4707290000000  0.5530010000000  0.4991540000000 1.0
C      1  0.5150210000000  0.5530010000000  0.5250500000000 1.0
C      1  0.5153020000000  0.5530010000000  0.4737440000000 1.0
C      1  0.5299720000000  0.5530010000000  0.4991540000000 1.0
C      1  0.4856800000000  0.5530010000000  0.5250500000000 1.0
C      1  0.4853990000000  0.5530010000000  0.4737440000000 1.0
C      1  0.5291840000000  0.5447500000000  0.5498880000000 1.0
C      1  0.5297310000000  0.5447500000000  0.4490590000000 1.0
C      1  0.4421370000000  0.5447500000000  0.4990000000000 1.0
C      1  0.4715170000000  0.5447500000000  0.5498880000000 1.0
C      1  0.4709700000000  0.5447500000000  0.4490590000000 1.0
C      1  0.5585640000000  0.5447500000000  0.4990000000000 1.0
C      1  0.5147480000000  0.5463240000000  0.4241920000000 1.0
C      1  0.4280920000000  0.5463240000000  0.5244090000000 1.0
C      1  0.5582110000000  0.5463240000000  0.5493470000000 1.0
C      1  0.4859530000000  0.5463240000000  0.4241920000000 1.0
C      1  0.5726090000000  0.5463240000000  0.5244090000000 1.0
C      1  0.4424900000000  0.5463240000000  0.5493470000000 1.0
C      1  0.4685650000000  0.4335320000000  0.4988480000000 1.0
C      1  0.5158380000000  0.4335320000000  0.5270770000000 1.0
C      1  0.5166490000000  0.4335320000000  0.4720230000000 1.0
C      1  0.5321360000000  0.4335320000000  0.4988480000000 1.0
C      1  0.4848630000000  0.4335320000000  0.5270770000000 1.0
C      1  0.4840520000000  0.4335320000000  0.4720230000000 1.0
C      1  0.5528540000000  0.5264190000000  0.4516420000000 1.0
C      1  0.4328120000000  0.5264190000000  0.4776830000000 1.0
C      1  0.5153860000000  0.5264190000000  0.5686220000000 1.0
C      1  0.4478470000000  0.5264190000000  0.4516420000000 1.0
C      1  0.5678890000000  0.5264190000000  0.4776830000000 1.0
C      1  0.4853150000000  0.5264190000000  0.5686220000000 1.0
C      1  0.5003500000000  0.4724220000000  0.5301960000000 1.0
C      1  0.5270940000000  0.4724220000000  0.4838760000000 1.0
C      1  0.4736070000000  0.4724220000000  0.4838760000000 1.0
C      1  0.5003500000000  0.4692560000000  0.4993160000000 1.0
END
