TITL C-862130-1496-490 -0.00245553876920043 125000 -320.728150788137 0 0 56 (C3) n - 1
REM
REM in /home/nfs/bkarasulu/CARBON/AIRSS/Generating-Clusters/TERSOFF/Higher-Symm/FIRE-HFTN
REM
REM
REM
REM
REM
REM ./C.cell (b20cbc046b6831c77cfcea5457e17084)
REM AIRSS Version 0.9.1 bugfix July 2018 build 013d7b7c2542+ Fri, 06 Jul 2018 19:26:36 +0100
REM compiler GCC version 9.2.1 20190827 (Red Hat 9.2.1-1)
REM options -cpp -mtune=generic -march=x86-64 -g -O0 -fpre-include=/usr/include/finclude/math-vector-fortran.h
REM seed -1937087736 -669650074 -838690196 -1903497980 -1285492329 -1349883352 1957462613 1359323139 -1402954705 1538959223 -1777202093 1117944920 495631522 -1974308060 -322962788 410720306 -1596800955 -1483561771 -935739717 1614215305 1960988692 1255549402 -1733373198 -636380107 -485398645 47614142 1390360656 -918171713 -105757941 -1798449936 633201396 -1949307689 1233692950
REM
CELL 1.54180   50.00000   50.00000   50.00000   90.00000   90.00000   90.00000
LATT -1
SFAC C  
C      1  0.4935170000000  0.5657750000000  0.5378750000000 1.0
C      1  0.5336840000000  0.5657750000000  0.4857650000000 1.0
C      1  0.4684720000000  0.5657750000000  0.4770340000000 1.0
C      1  0.4709820000000  0.4718040000000  0.4556360000000 1.0
C      1  0.4737310000000  0.4718040000000  0.5464010000000 1.0
C      1  0.5509610000000  0.4718040000000  0.4986370000000 1.0
C      1  0.4652190000000  0.4986780000000  0.5031390000000 1.0
C      1  0.5177520000000  0.4986780000000  0.5276400000000 1.0
C      1  0.5127030000000  0.4986780000000  0.4698950000000 1.0
C      1  0.4837210000000  0.4888810000000  0.5675100000000 1.0
C      1  0.5642470000000  0.4888810000000  0.4794310000000 1.0
C      1  0.4477050000000  0.4888810000000  0.4537330000000 1.0
C      1  0.5687850000000  0.5144780000000  0.5397880000000 1.0
C      1  0.4977070000000  0.5144780000000  0.4196240000000 1.0
C      1  0.4291810000000  0.5144780000000  0.5412610000000 1.0
C      1  0.4721370000000  0.4317060000000  0.5204890000000 1.0
C      1  0.5293180000000  0.4317060000000  0.5129740000000 1.0
C      1  0.4942190000000  0.4317060000000  0.4672110000000 1.0
C      1  0.5108750000000  0.4883030000000  0.5569320000000 1.0
C      1  0.5415090000000  0.4883030000000  0.4612050000000 1.0
C      1  0.4432900000000  0.4883030000000  0.4825380000000 1.0
C      1  0.5157630000000  0.5491930000000  0.5246310000000 1.0
C      1  0.5110910000000  0.5491930000000  0.4731210000000 1.0
C      1  0.4688190000000  0.5491930000000  0.5029220000000 1.0
C      1  0.4961620000000  0.4841250000000  0.4501010000000 1.0
C      1  0.4563470000000  0.4841250000000  0.5273620000000 1.0
C      1  0.5431650000000  0.4841250000000  0.5232120000000 1.0
C      1  0.4510690000000  0.5178560000000  0.4459220000000 1.0
C      1  0.4752750000000  0.5178560000000  0.5685020000000 1.0
C      1  0.5693300000000  0.5178560000000  0.4862500000000 1.0
C      1  0.4655280000000  0.5548360000000  0.5327620000000 1.0
C      1  0.5432510000000  0.5548360000000  0.5125610000000 1.0
C      1  0.4868950000000  0.5548360000000  0.4553520000000 1.0
C      1  0.5544190000000  0.5296700000000  0.4635080000000 1.0
C      1  0.4388300000000  0.5296700000000  0.4702060000000 1.0
C      1  0.5024250000000  0.5296700000000  0.5669600000000 1.0
C      1  0.4559100000000  0.4443960000000  0.4996150000000 1.0
C      1  0.5193540000000  0.4443960000000  0.5374630000000 1.0
C      1  0.5204100000000  0.4443960000000  0.4635960000000 1.0
C      1  0.4552760000000  0.5297140000000  0.5490850000000 1.0
C      1  0.5625140000000  0.5297140000000  0.5132780000000 1.0
C      1  0.4778840000000  0.5297140000000  0.4383110000000 1.0
C      1  0.5253410000000  0.5270280000000  0.4619440000000 1.0
C      1  0.4520150000000  0.5270280000000  0.4961700000000 1.0
C      1  0.5183180000000  0.5270280000000  0.5425600000000 1.0
C      1  0.5400900000000  0.4581570000000  0.5560790000000 1.0
C      1  0.5261630000000  0.4581570000000  0.4363300000000 1.0
C      1  0.4294210000000  0.4581570000000  0.5082660000000 1.0
C      1  0.5608120000000  0.4828810000000  0.5467330000000 1.0
C      1  0.5077080000000  0.4828810000000  0.4230570000000 1.0
C      1  0.4271530000000  0.4828810000000  0.5308840000000 1.0
C      1  0.5374380000000  0.4469700000000  0.4895250000000 1.0
C      1  0.4698510000000  0.4469700000000  0.4719030000000 1.0
C      1  0.4883840000000  0.4469700000000  0.5392460000000 1.0
C      1  0.4985580000000  0.5382810000000  0.5002250000000 1.0
C      1  0.4985580000000  0.5051020000000  0.5002250000000 1.0
END
