TITL C-862129-6180-1329 -0.00350464806538284 125000 -468.177709159448 0 0 88 (C1) n - 1
REM
REM in /home/nfs/bkarasulu/CARBON/AIRSS/Generating-Clusters/TERSOFF/Higher-Symm/FIRE-HFTN
REM
REM
REM
REM
REM
REM ./C.cell (b20cbc046b6831c77cfcea5457e17084)
REM AIRSS Version 0.9.1 bugfix July 2018 build 013d7b7c2542+ Fri, 06 Jul 2018 19:26:36 +0100
REM compiler GCC version 9.2.1 20190827 (Red Hat 9.2.1-1)
REM options -cpp -mtune=generic -march=x86-64 -g -O0 -fpre-include=/usr/include/finclude/math-vector-fortran.h
REM seed 140749258 -786499197 -1289052315 284618901 1349829701 910103412 -1146471334 -1502339386 -180475990 -1942845598 1636188072 871358967 1470222334 1161934284 -529580588 -827632823 277436644 -65553490 369402327 -1480436319 667758009 1078051636 1269408910 -943774647 467885594 -1666287416 569294664 580562859 1016464141 1027237983 -1768960522 -423044740 -1808650512
REM
CELL 1.54180   50.00000   50.00000   50.00000   90.00000   90.00000   90.00000
LATT -1
SFAC C  
C      1  0.5516710000000  0.4456910000000  0.5182680000000 1.0
C      1  0.5519780000000  0.5105860000000  0.4439020000000 1.0
C      1  0.5525080000000  0.5435720000000  0.5369150000000 1.0
C      1  0.4483880000000  0.5614210000000  0.5230340000000 1.0
C      1  0.4475940000000  0.4891210000000  0.4363640000000 1.0
C      1  0.4489910000000  0.4500290000000  0.5435240000000 1.0
C      1  0.5103990000000  0.4490040000000  0.5115600000000 1.0
C      1  0.5107690000000  0.5156050000000  0.4500690000000 1.0
C      1  0.5113400000000  0.5356910000000  0.5386270000000 1.0
C      1  0.4839170000000  0.5447210000000  0.5083260000000 1.0
C      1  0.4833180000000  0.4849950000000  0.4578830000000 1.0
C      1  0.4841660000000  0.4712840000000  0.5353580000000 1.0
C      1  0.4842000000000  0.4156020000000  0.4970640000000 1.0
C      1  0.4852570000000  0.5457210000000  0.4285180000000 1.0
C      1  0.4864930000000  0.5393460000000  0.5757550000000 1.0
C      1  0.5177830000000  0.5863930000000  0.4951340000000 1.0
C      1  0.5166480000000  0.4524840000000  0.4282350000000 1.0
C      1  0.5191540000000  0.4609760000000  0.5770130000000 1.0
C      1  0.5895580000000  0.4734040000000  0.5368250000000 1.0
C      1  0.5864340000000  0.4770900000000  0.4636740000000 1.0
C      1  0.5873350000000  0.5440770000000  0.4999850000000 1.0
C      1  0.4186150000000  0.5200780000000  0.5389900000000 1.0
C      1  0.4165830000000  0.5234150000000  0.4616520000000 1.0
C      1  0.4148170000000  0.4558430000000  0.5046180000000 1.0
C      1  0.4576760000000  0.5059290000000  0.5328450000000 1.0
C      1  0.4571060000000  0.4698920000000  0.4897800000000 1.0
C      1  0.4568860000000  0.5254800000000  0.4796930000000 1.0
C      1  0.5314770000000  0.4952860000000  0.5296910000000 1.0
C      1  0.5307890000000  0.5283140000000  0.4892200000000 1.0
C      1  0.5304270000000  0.4764890000000  0.4808840000000 1.0
C      1  0.5905410000000  0.5143160000000  0.5020410000000 1.0
C      1  0.5897470000000  0.5020970000000  0.5295610000000 1.0
C      1  0.6003910000000  0.4990710000000  0.4780950000000 1.0
C      1  0.4161580000000  0.4767450000000  0.4835650000000 1.0
C      1  0.4054990000000  0.5200700000000  0.5121670000000 1.0
C      1  0.4149500000000  0.5067760000000  0.4866880000000 1.0
C      1  0.5343410000000  0.5050500000000  0.4688540000000 1.0
C      1  0.5348710000000  0.5245810000000  0.5198350000000 1.0
C      1  0.5344710000000  0.4703850000000  0.5109820000000 1.0
C      1  0.4557280000000  0.4947760000000  0.4684830000000 1.0
C      1  0.4563130000000  0.4753640000000  0.5220640000000 1.0
C      1  0.4563660000000  0.5310000000000  0.5115550000000 1.0
C      1  0.4899340000000  0.5214400000000  0.4140710000000 1.0
C      1  0.4909980000000  0.5640760000000  0.5619580000000 1.0
C      1  0.4894550000000  0.4151190000000  0.5252310000000 1.0
C      1  0.5091610000000  0.4757740000000  0.4139310000000 1.0
C      1  0.5109840000000  0.4371760000000  0.5639560000000 1.0
C      1  0.5103340000000  0.5870140000000  0.5224770000000 1.0
C      1  0.4888760000000  0.5279330000000  0.4663300000000 1.0
C      1  0.4896230000000  0.5155560000000  0.5413560000000 1.0
C      1  0.4885570000000  0.4571380000000  0.4931250000000 1.0
C      1  0.5004400000000  0.4798600000000  0.4804090000000 1.0
C      1  0.5013140000000  0.4931780000000  0.5277980000000 1.0
C      1  0.5007420000000  0.5275110000000  0.4924910000000 1.0
C      1  0.4583000000000  0.5460060000000  0.4410810000000 1.0
C      1  0.4592840000000  0.5284250000000  0.5700810000000 1.0
C      1  0.4570860000000  0.4267840000000  0.4912260000000 1.0
C      1  0.5447710000000  0.4545290000000  0.4404300000000 1.0
C      1  0.5467370000000  0.4705710000000  0.5679660000000 1.0
C      1  0.5455190000000  0.5743220000000  0.4906290000000 1.0
C      1  0.4677850000000  0.5828470000000  0.5015650000000 1.0
C      1  0.4689640000000  0.4575310000000  0.5719590000000 1.0
C      1  0.4664660000000  0.4600680000000  0.4286510000000 1.0
C      1  0.5393410000000  0.4220280000000  0.4975000000000 1.0
C      1  0.5411870000000  0.5367610000000  0.5681370000000 1.0
C      1  0.5400450000000  0.5410880000000  0.4340600000000 1.0
C      1  0.4589040000000  0.4440110000000  0.4666920000000 1.0
C      1  0.4602560000000  0.5583760000000  0.4683030000000 1.0
C      1  0.4614400000000  0.4985500000000  0.5671710000000 1.0
C      1  0.5346700000000  0.5528330000000  0.4740180000000 1.0
C      1  0.5338770000000  0.4508350000000  0.4674340000000 1.0
C      1  0.5362590000000  0.4962120000000  0.5583850000000 1.0
C      1  0.5647550000000  0.5596770000000  0.5119060000000 1.0
C      1  0.5651340000000  0.4578940000000  0.5445250000000 1.0
C      1  0.5642160000000  0.4806680000000  0.4436890000000 1.0
C      1  0.4380980000000  0.4385630000000  0.5134130000000 1.0
C      1  0.4392000000000  0.5403060000000  0.5486830000000 1.0
C      1  0.4385400000000  0.5216160000000  0.4411750000000 1.0
C      1  0.5109270000000  0.4264920000000  0.4754820000000 1.0
C      1  0.5119730000000  0.5583230000000  0.4491290000000 1.0
C      1  0.5132060000000  0.5151450000000  0.5759510000000 1.0
C      1  0.4915980000000  0.5736520000000  0.4757090000000 1.0
C      1  0.4904070000000  0.4422450000000  0.4493320000000 1.0
C      1  0.4929640000000  0.4844500000000  0.5762650000000 1.0
C      1  0.4973650000000  0.4402630000000  0.5390850000000 1.0
C      1  0.4975710000000  0.5636960000000  0.5328400000000 1.0
C      1  0.4966660000000  0.4965160000000  0.4289760000000 1.0
C      1  0.4970140000000  0.5001810000000  0.5003040000000 1.0
END
