TITL C-862502-1143-395 0.058005319722244 125000 -72.2714057519191 0 0 15 (C1) n - 1
REM
REM in /home/nfs/bkarasulu/CARBON/AIRSS/Generating-Clusters/TERSOFF/Higher-Symm/FIRE-HFTN
REM
REM
REM
REM
REM
REM ./C.cell (b20cbc046b6831c77cfcea5457e17084)
REM AIRSS Version 0.9.1 bugfix July 2018 build 013d7b7c2542+ Fri, 06 Jul 2018 19:26:36 +0100
REM compiler GCC version 9.2.1 20190827 (Red Hat 9.2.1-1)
REM options -cpp -mtune=generic -march=x86-64 -g -O0 -fpre-include=/usr/include/finclude/math-vector-fortran.h
REM seed -1831348883 1992458577 1398523362 -872820348 1225144208 -1892624376 2132112440 -724513604 -1140537563 -1862707950 1572495138 1178405646 1130711278 -1123855254 -843074050 684338736 1493435792 -527819157 708422444 72877720 -210392593 1716354859 937090863 -1407345526 -135360483 864650140 -287099111 1830510854 -1777028519 1237207647 -1848035753 -1147731005 -415367543
REM
CELL 1.54180   50.00000   50.00000   50.00000   90.00000   90.00000   90.00000
LATT -1
SFAC C  
C      1  0.4738480000000  0.4726150000000  0.5119760000000 1.0
C      1  0.5423380000000  0.5153020000000  0.4993300000000 1.0
C      1  0.4913010000000  0.4669920000000  0.4869730000000 1.0
C      1  0.5261120000000  0.5381600000000  0.5112660000000 1.0
C      1  0.5202260000000  0.4708800000000  0.5171760000000 1.0
C      1  0.4382730000000  0.5113850000000  0.5117020000000 1.0
C      1  0.4858020000000  0.4841020000000  0.5372790000000 1.0
C      1  0.5456490000000  0.5106560000000  0.4702360000000 1.0
C      1  0.4976130000000  0.5313280000000  0.5168590000000 1.0
C      1  0.4985340000000  0.4909320000000  0.4680010000000 1.0
C      1  0.5182000000000  0.4969270000000  0.5045700000000 1.0
C      1  0.4612260000000  0.4977970000000  0.5004650000000 1.0
C      1  0.5249350000000  0.4958440000000  0.4561890000000 1.0
C      1  0.4923040000000  0.5128660000000  0.5403900000000 1.0
C      1  0.4873690000000  0.5114750000000  0.4923550000000 1.0
END
