TITL C-862134-6730-896 -0.0497583336987581 125000 -1099.46875224717 0 0 199 (C3i) n - 1
REM
REM in /home/nfs/bkarasulu/CARBON/AIRSS/Generating-Clusters/TERSOFF/Higher-Symm/FIRE-HFTN
REM
REM
REM
REM
REM
REM ./C.cell (b20cbc046b6831c77cfcea5457e17084)
REM AIRSS Version 0.9.1 bugfix July 2018 build 013d7b7c2542+ Fri, 06 Jul 2018 19:26:36 +0100
REM compiler GCC version 9.2.1 20190827 (Red Hat 9.2.1-1)
REM options -cpp -mtune=generic -march=x86-64 -g -O0 -fpre-include=/usr/include/finclude/math-vector-fortran.h
REM seed -179087552 1282970224 -2011993003 572870873 317695763 -1791333342 -329058394 1489277411 534942681 557210322 1215043807 -512666571 -939746221 2069918763 -1221839515 602675796 -631914365 1070912291 -854127433 567602902 1252021723 973710163 -1896320702 -138993183 219048906 56985810 -219340455 231099216 1863515467 1940241455 -512335176 1600541845 1995383069
REM
CELL 1.54180   50.00000   50.00000   50.00000   90.00000   90.00000   90.00000
LATT -1
SFAC C  
C      1  0.5499400000000  0.4671720000000  0.4518170000000 1.0
C      1  0.5534850000000  0.5266380000000  0.5482810000000 1.0
C      1  0.5037580000000  0.5594410000000  0.4518170000000 1.0
C      1  0.4504860000000  0.5327770000000  0.5482800000000 1.0
C      1  0.4469410000000  0.4733110000000  0.4518170000000 1.0
C      1  0.4966680000000  0.4405080000000  0.5482800000000 1.0
C      1  0.4357300000000  0.4950560000000  0.4670480000000 1.0
C      1  0.4722310000000  0.4416720000000  0.5330490000000 1.0
C      1  0.5367130000000  0.4465900000000  0.4670480000000 1.0
C      1  0.5646950000000  0.5048930000000  0.5330500000000 1.0
C      1  0.5281950000000  0.5582770000000  0.4670480000000 1.0
C      1  0.4637120000000  0.5533590000000  0.5330500000000 1.0
C      1  0.4692500000000  0.5091610000000  0.5496690000000 1.0
C      1  0.4767760000000  0.4777530000000  0.4504290000000 1.0
C      1  0.5077390000000  0.4685660000000  0.5496690000000 1.0
C      1  0.5311760000000  0.4907880000000  0.4504290000000 1.0
C      1  0.5236500000000  0.5221960000000  0.5496690000000 1.0
C      1  0.4926870000000  0.5313830000000  0.4504290000000 1.0
C      1  0.3695020000000  0.5126020000000  0.5226080000000 1.0
C      1  0.4239220000000  0.3930900000000  0.4774890000000 1.0
C      1  0.5546320000000  0.3804620000000  0.5226080000000 1.0
C      1  0.6309230000000  0.4873470000000  0.4774900000000 1.0
C      1  0.5765040000000  0.6068590000000  0.5226080000000 1.0
C      1  0.4457940000000  0.6194870000000  0.4774900000000 1.0
C      1  0.4034310000000  0.4404960000000  0.4865910000000 1.0
C      1  0.5033320000000  0.3864200000000  0.5135060000000 1.0
C      1  0.6001140000000  0.4458980000000  0.4865920000000 1.0
C      1  0.5969950000000  0.5594530000000  0.5135060000000 1.0
C      1  0.4970940000000  0.6135290000000  0.4865920000000 1.0
C      1  0.4003120000000  0.5540510000000  0.5135060000000 1.0
C      1  0.4803600000000  0.5900680000000  0.4232410000000 1.0
C      1  0.4122630000000  0.5278280000000  0.5768570000000 1.0
C      1  0.4321160000000  0.4377350000000  0.4232400000000 1.0
C      1  0.5200660000000  0.4098810000000  0.5768570000000 1.0
C      1  0.5881630000000  0.4721210000000  0.4232410000000 1.0
C      1  0.5683100000000  0.5622140000000  0.5768570000000 1.0
C      1  0.3765540000000  0.5412580000000  0.5257950000000 1.0
C      1  0.4026310000000  0.4135250000000  0.4743020000000 1.0
C      1  0.5262900000000  0.3722410000000  0.5257950000000 1.0
C      1  0.6238710000000  0.4586910000000  0.4743030000000 1.0
C      1  0.5977940000000  0.5864240000000  0.5257950000000 1.0
C      1  0.4741360000000  0.6277080000000  0.4743030000000 1.0
C      1  0.3862680000000  0.4622260000000  0.5256120000000 1.0
C      1  0.4759310000000  0.3824210000000  0.4744860000000 1.0
C      1  0.5898760000000  0.4201690000000  0.5256120000000 1.0
C      1  0.6141580000000  0.5377230000000  0.4744860000000 1.0
C      1  0.5244940000000  0.6175280000000  0.5256120000000 1.0
C      1  0.4105490000000  0.5797800000000  0.4744860000000 1.0
C      1  0.5316700000000  0.5359600000000  0.3962470000000 1.0
C      1  0.4847770000000  0.5452090000000  0.6038500000000 1.0
C      1  0.4533210000000  0.5092250000000  0.3962470000000 1.0
C      1  0.4687560000000  0.4639890000000  0.6038500000000 1.0
C      1  0.5156480000000  0.4547400000000  0.3962470000000 1.0
C      1  0.5471050000000  0.4907240000000  0.6038500000000 1.0
C      1  0.4748710000000  0.3902360000000  0.5266350000000 1.0
C      1  0.5825780000000  0.4231590000000  0.4734630000000 1.0
C      1  0.6079200000000  0.5328970000000  0.5266350000000 1.0
C      1  0.5255550000000  0.6097130000000  0.4734630000000 1.0
C      1  0.4178480000000  0.5767900000000  0.5266350000000 1.0
C      1  0.3925060000000  0.4670520000000  0.4734630000000 1.0
C      1  0.4428770000000  0.4902950000000  0.5763160000000 1.0
C      1  0.4799280000000  0.4454810000000  0.4237820000000 1.0
C      1  0.5372630000000  0.4551600000000  0.5763160000000 1.0
C      1  0.5575490000000  0.5096540000000  0.4237820000000 1.0
C      1  0.5204980000000  0.5544680000000  0.5763160000000 1.0
C      1  0.4631630000000  0.5447890000000  0.4237820000000 1.0
C      1  0.4342890000000  0.5057150000000  0.4199270000000 1.0
C      1  0.4622800000000  0.4457530000000  0.5801700000000 1.0
C      1  0.5282040000000  0.4400130000000  0.4199270000000 1.0
C      1  0.5661370000000  0.4942340000000  0.5801700000000 1.0
C      1  0.5381460000000  0.5541970000000  0.4199280000000 1.0
C      1  0.4722220000000  0.5599370000000  0.5801700000000 1.0
C      1  0.4954310000000  0.5179280000000  0.4242620000000 1.0
C      1  0.4822740000000  0.5048100000000  0.5758350000000 1.0
C      1  0.4870560000000  0.4868570000000  0.4242620000000 1.0
C      1  0.5049940000000  0.4820210000000  0.5758350000000 1.0
C      1  0.5181520000000  0.4951390000000  0.4242620000000 1.0
C      1  0.5133700000000  0.5130920000000  0.5758350000000 1.0
C      1  0.5493660000000  0.5336300000000  0.6010390000000 1.0
C      1  0.4956430000000  0.5593710000000  0.3990590000000 1.0
C      1  0.4464890000000  0.5257140000000  0.6010390000000 1.0
C      1  0.4510600000000  0.4663190000000  0.3990590000000 1.0
C      1  0.5047830000000  0.4405790000000  0.6010390000000 1.0
C      1  0.5539360000000  0.4742350000000  0.3990590000000 1.0
C      1  0.4268960000000  0.4645660000000  0.5359960000000 1.0
C      1  0.4942190000000  0.4187760000000  0.4641010000000 1.0
C      1  0.5675360000000  0.4541850000000  0.5359970000000 1.0
C      1  0.5735290000000  0.5353830000000  0.4641010000000 1.0
C      1  0.5062060000000  0.5811730000000  0.5359970000000 1.0
C      1  0.4328900000000  0.5457640000000  0.4641010000000 1.0
C      1  0.6117190000000  0.5079620000000  0.4702160000000 1.0
C      1  0.5490480000000  0.6005350000000  0.5298820000000 1.0
C      1  0.4375430000000  0.5925480000000  0.4702160000000 1.0
C      1  0.3887070000000  0.4919870000000  0.5298820000000 1.0
C      1  0.4513770000000  0.3994140000000  0.4702160000000 1.0
C      1  0.5628830000000  0.4074010000000  0.5298820000000 1.0
C      1  0.5051590000000  0.4318330000000  0.5024030000000 1.0
C      1  0.5616980000000  0.4701870000000  0.4976940000000 1.0
C      1  0.5567520000000  0.5383290000000  0.5024030000000 1.0
C      1  0.4952670000000  0.5681160000000  0.4976950000000 1.0
C      1  0.4387280000000  0.5297620000000  0.5024030000000 1.0
C      1  0.4436740000000  0.4616200000000  0.4976940000000 1.0
C      1  0.4578420000000  0.4093440000000  0.5104480000000 1.0
C      1  0.5575160000000  0.4179650000000  0.4896490000000 1.0
C      1  0.5998870000000  0.5085950000000  0.5104480000000 1.0
C      1  0.5425840000000  0.5906050000000  0.4896500000000 1.0
C      1  0.4429100000000  0.5819840000000  0.5104480000000 1.0
C      1  0.4005390000000  0.4913540000000  0.4896490000000 1.0
C      1  0.4110290000000  0.5252750000000  0.4260120000000 1.0
C      1  0.4337100000000  0.4353890000000  0.5740850000000 1.0
C      1  0.5228940000000  0.4100890000000  0.4260120000000 1.0
C      1  0.5893970000000  0.4746740000000  0.5740850000000 1.0
C      1  0.5667160000000  0.5645600000000  0.4260130000000 1.0
C      1  0.4775310000000  0.5898600000000  0.5740850000000 1.0
C      1  0.4616770000000  0.3945890000000  0.5543510000000 1.0
C      1  0.5722110000000  0.4139090000000  0.4457460000000 1.0
C      1  0.6107470000000  0.5192940000000  0.5543510000000 1.0
C      1  0.5387490000000  0.6053600000000  0.4457470000000 1.0
C      1  0.4282140000000  0.5860400000000  0.5543510000000 1.0
C      1  0.3896780000000  0.4806550000000  0.4457460000000 1.0
C      1  0.5764090000000  0.5149100000000  0.4932790000000 1.0
C      1  0.5253770000000  0.5734300000000  0.5068190000000 1.0
C      1  0.4491810000000  0.5584950000000  0.4932790000000 1.0
C      1  0.4240170000000  0.4850390000000  0.5068180000000 1.0
C      1  0.4750490000000  0.4265190000000  0.4932790000000 1.0
C      1  0.5512450000000  0.4414540000000  0.5068180000000 1.0
C      1  0.4299970000000  0.5227930000000  0.5306010000000 1.0
C      1  0.4453440000000  0.4505750000000  0.4694970000000 1.0
C      1  0.5155600000000  0.4277570000000  0.5306010000000 1.0
C      1  0.5704290000000  0.4771560000000  0.4694970000000 1.0
C      1  0.5550820000000  0.5493740000000  0.5306010000000 1.0
C      1  0.4848660000000  0.5721920000000  0.4694970000000 1.0
C      1  0.6078000000000  0.4884020000000  0.5547080000000 1.0
C      1  0.5640280000000  0.5873620000000  0.4453900000000 1.0
C      1  0.4564410000000  0.5989340000000  0.5547080000000 1.0
C      1  0.3926260000000  0.5115470000000  0.4453900000000 1.0
C      1  0.4363980000000  0.4125870000000  0.5547080000000 1.0
C      1  0.5439850000000  0.4010150000000  0.4453900000000 1.0
C      1  0.5195610000000  0.4842020000000  0.5230880000000 1.0
C      1  0.5235460000000  0.5088440000000  0.4770090000000 1.0
C      1  0.5041980000000  0.5246160000000  0.5230880000000 1.0
C      1  0.4808650000000  0.5157470000000  0.4770090000000 1.0
C      1  0.4768800000000  0.4911050000000  0.5230880000000 1.0
C      1  0.4962280000000  0.4753330000000  0.4770090000000 1.0
C      1  0.4640410000000  0.5997360000000  0.5255310000000 1.0
C      1  0.3957310000000  0.5185290000000  0.4745670000000 1.0
C      1  0.4319030000000  0.4187680000000  0.5255300000000 1.0
C      1  0.5363850000000  0.4002130000000  0.4745670000000 1.0
C      1  0.6046950000000  0.4814200000000  0.5255310000000 1.0
C      1  0.5685230000000  0.5811810000000  0.4745670000000 1.0
C      1  0.5283440000000  0.5140500000000  0.6025300000000 1.0
C      1  0.5020890000000  0.5313750000000  0.3975680000000 1.0
C      1  0.4739570000000  0.5172990000000  0.6025290000000 1.0
C      1  0.4720820000000  0.4858990000000  0.3975680000000 1.0
C      1  0.4983370000000  0.4685740000000  0.6025290000000 1.0
C      1  0.5264690000000  0.4826500000000  0.3975680000000 1.0
C      1  0.4112480000000  0.5027770000000  0.5431650000000 1.0
C      1  0.4533030000000  0.4243300000000  0.4569320000000 1.0
C      1  0.5422680000000  0.4215270000000  0.5431650000000 1.0
C      1  0.5891780000000  0.4971720000000  0.4569320000000 1.0
C      1  0.5471230000000  0.5756190000000  0.5431660000000 1.0
C      1  0.4581580000000  0.5784220000000  0.4569320000000 1.0
C      1  0.5351530000000  0.5360690000000  0.4830390000000 1.0
C      1  0.4864240000000  0.5482810000000  0.5170580000000 1.0
C      1  0.4514840000000  0.5121860000000  0.4830390000000 1.0
C      1  0.4652730000000  0.4638800000000  0.5170580000000 1.0
C      1  0.5140020000000  0.4516680000000  0.4830390000000 1.0
C      1  0.5489420000000  0.4877630000000  0.5170580000000 1.0
C      1  0.5501360000000  0.4754900000000  0.5592430000000 1.0
C      1  0.5463790000000  0.5309660000000  0.4408550000000 1.0
C      1  0.4964560000000  0.5554510000000  0.5592430000000 1.0
C      1  0.4502900000000  0.5244600000000  0.4408550000000 1.0
C      1  0.4540470000000  0.4689830000000  0.5592430000000 1.0
C      1  0.5039700000000  0.4444980000000  0.4408540000000 1.0
C      1  0.4905580000000  0.4052940000000  0.4341140000000 1.0
C      1  0.5773810000000  0.4442720000000  0.5659840000000 1.0
C      1  0.5870360000000  0.5389530000000  0.4341140000000 1.0
C      1  0.5098680000000  0.5946550000000  0.5659840000000 1.0
C      1  0.4230450000000  0.5556770000000  0.4341140000000 1.0
C      1  0.4133890000000  0.4609960000000  0.5659840000000 1.0
C      1  0.4599880000000  0.4231000000000  0.4266790000000 1.0
C      1  0.5466760000000  0.4267020000000  0.5734190000000 1.0
C      1  0.5869010000000  0.5035770000000  0.4266790000000 1.0
C      1  0.5404370000000  0.5768490000000  0.5734190000000 1.0
C      1  0.4537500000000  0.5732480000000  0.4266790000000 1.0
C      1  0.4135250000000  0.4963730000000  0.5734190000000 1.0
C      1  0.4922130000000  0.4260190000000  0.5760530000000 1.0
C      1  0.5602610000000  0.4560690000000  0.4240440000000 1.0
C      1  0.5682600000000  0.5300240000000  0.5760530000000 1.0
C      1  0.5082130000000  0.5739310000000  0.4240450000000 1.0
C      1  0.4401650000000  0.5438800000000  0.5760530000000 1.0
C      1  0.4321650000000  0.4699250000000  0.4240440000000 1.0
C      1  0.4942080000000  0.6056920000000  0.5163850000000 1.0
C      1  0.4056570000000  0.5476330000000  0.4837130000000 1.0
C      1  0.4116620000000  0.4419160000000  0.5163850000000 1.0
C      1  0.5062180000000  0.3942570000000  0.4837130000000 1.0
C      1  0.5947690000000  0.4523160000000  0.5163850000000 1.0
C      1  0.5887640000000  0.5580330000000  0.4837130000000 1.0
C      1  0.5002130000000  0.4999750000000  0.5000490000000 1.0
END
