TITL C-862130-1496-489 0.000177193896294281 125000 -783.160931200816 0 0 139 (C1) n - 1
REM
REM in /home/nfs/bkarasulu/CARBON/AIRSS/Generating-Clusters/TERSOFF/Higher-Symm/FIRE-HFTN
REM
REM
REM
REM
REM
REM ./C.cell (b20cbc046b6831c77cfcea5457e17084)
REM AIRSS Version 0.9.1 bugfix July 2018 build 013d7b7c2542+ Fri, 06 Jul 2018 19:26:36 +0100
REM compiler GCC version 9.2.1 20190827 (Red Hat 9.2.1-1)
REM options -cpp -mtune=generic -march=x86-64 -g -O0 -fpre-include=/usr/include/finclude/math-vector-fortran.h
REM seed -736814501 1132675948 -548653546 -1020400161 2082363032 111226040 10923326 -956846477 1177192071 1948476531 190586238 698367563 -1430443520 1378521290 1121325948 -1533958863 20541824 748843048 -105764392 1396361720 -2127413651 -578523191 2056386621 -696561544 -1700805157 1173743303 1829831145 -1666818582 2063798099 1407604858 -879670112 326831478 1530950987
REM
CELL 1.54180   50.00000   50.00000   50.00000   90.00000   90.00000   90.00000
LATT -1
SFAC C  
C      1  0.5755610000000  0.5138070000000  0.5331850000000 1.0
C      1  0.4743590000000  0.4285340000000  0.5326320000000 1.0
C      1  0.4514160000000  0.5580770000000  0.5335400000000 1.0
C      1  0.4254230000000  0.5144530000000  0.5317470000000 1.0
C      1  0.5246820000000  0.4295430000000  0.5316000000000 1.0
C      1  0.5498010000000  0.5573090000000  0.5319670000000 1.0
C      1  0.4077020000000  0.5356160000000  0.4759000000000 1.0
C      1  0.5598970000000  0.5489930000000  0.4782090000000 1.0
C      1  0.5126340000000  0.4252560000000  0.4782720000000 1.0
C      1  0.5813350000000  0.5283020000000  0.4777830000000 1.0
C      1  0.4244150000000  0.5604120000000  0.4768460000000 1.0
C      1  0.4843630000000  0.4159960000000  0.4774340000000 1.0
C      1  0.3877730000000  0.5073260000000  0.5147480000000 1.0
C      1  0.5637480000000  0.5913020000000  0.5117930000000 1.0
C      1  0.5467490000000  0.4000410000000  0.5115890000000 1.0
C      1  0.6109920000000  0.5028650000000  0.5135400000000 1.0
C      1  0.4414510000000  0.5937890000000  0.5139120000000 1.0
C      1  0.4471050000000  0.4038120000000  0.5124580000000 1.0
C      1  0.4835000000000  0.4753900000000  0.5581900000000 1.0
C      1  0.4872110000000  0.5274560000000  0.5590800000000 1.0
C      1  0.5305400000000  0.4983710000000  0.5585990000000 1.0
C      1  0.5157570000000  0.4744300000000  0.5586170000000 1.0
C      1  0.5153530000000  0.5267570000000  0.5590190000000 1.0
C      1  0.4700790000000  0.5001720000000  0.5583510000000 1.0
C      1  0.5314840000000  0.5346880000000  0.5316140000000 1.0
C      1  0.5142540000000  0.4566930000000  0.5313040000000 1.0
C      1  0.4545760000000  0.5102970000000  0.5309980000000 1.0
C      1  0.4721680000000  0.5359080000000  0.5326620000000 1.0
C      1  0.4833650000000  0.4580610000000  0.5316800000000 1.0
C      1  0.5455560000000  0.5071770000000  0.5320640000000 1.0
C      1  0.5191560000000  0.5786700000000  0.4452870000000 1.0
C      1  0.5571560000000  0.4460390000000  0.4450950000000 1.0
C      1  0.4236060000000  0.4759820000000  0.4450790000000 1.0
C      1  0.4878010000000  0.5727070000000  0.4434390000000 1.0
C      1  0.4458580000000  0.4531480000000  0.4419780000000 1.0
C      1  0.5677190000000  0.4761660000000  0.4430530000000 1.0
C      1  0.5283940000000  0.5343050000000  0.5869170000000 1.0
C      1  0.5157450000000  0.4592660000000  0.5864420000000 1.0
C      1  0.4573100000000  0.5071100000000  0.5864020000000 1.0
C      1  0.4735950000000  0.5339320000000  0.5866520000000 1.0
C      1  0.4844220000000  0.4601030000000  0.5854850000000 1.0
C      1  0.5432380000000  0.5067130000000  0.5859470000000 1.0
C      1  0.5336940000000  0.4933140000000  0.5053490000000 1.0
C      1  0.4774000000000  0.4757330000000  0.5051570000000 1.0
C      1  0.4901950000000  0.5331850000000  0.5058320000000 1.0
C      1  0.4688670000000  0.5050750000000  0.5044070000000 1.0
C      1  0.5125610000000  0.4712760000000  0.5045650000000 1.0
C      1  0.5199420000000  0.5261280000000  0.5047230000000 1.0
C      1  0.5561300000000  0.4302760000000  0.5220340000000 1.0
C      1  0.4109110000000  0.4862910000000  0.5227620000000 1.0
C      1  0.5329610000000  0.5842040000000  0.5223980000000 1.0
C      1  0.4440520000000  0.4328470000000  0.5241690000000 1.0
C      1  0.5871640000000  0.4854830000000  0.5247620000000 1.0
C      1  0.4693010000000  0.5827400000000  0.5249070000000 1.0
C      1  0.5326470000000  0.5369990000000  0.4789390000000 1.0
C      1  0.5148200000000  0.4550810000000  0.4786930000000 1.0
C      1  0.4548960000000  0.5109540000000  0.4785920000000 1.0
C      1  0.4779270000000  0.5216990000000  0.4624730000000 1.0
C      1  0.4935220000000  0.4718820000000  0.4635160000000 1.0
C      1  0.5290900000000  0.5103640000000  0.4638120000000 1.0
C      1  0.5788120000000  0.4280690000000  0.4550300000000 1.0
C      1  0.3976400000000  0.4654140000000  0.4549440000000 1.0
C      1  0.5232840000000  0.6062910000000  0.4559650000000 1.0
C      1  0.4340620000000  0.4285640000000  0.4538100000000 1.0
C      1  0.5956620000000  0.4769240000000  0.4527500000000 1.0
C      1  0.4721020000000  0.5956930000000  0.4534090000000 1.0
C      1  0.4835760000000  0.4198420000000  0.5604060000000 1.0
C      1  0.4392520000000  0.5546630000000  0.5612360000000 1.0
C      1  0.5786060000000  0.5260810000000  0.5609110000000 1.0
C      1  0.5162920000000  0.4198890000000  0.5596330000000 1.0
C      1  0.5622220000000  0.5545560000000  0.5600900000000 1.0
C      1  0.4226910000000  0.5263230000000  0.5603350000000 1.0
C      1  0.5313190000000  0.4993210000000  0.4057180000000 1.0
C      1  0.4872710000000  0.4729040000000  0.4059930000000 1.0
C      1  0.4866910000000  0.5238510000000  0.4067890000000 1.0
C      1  0.4724100000000  0.4980880000000  0.4073370000000 1.0
C      1  0.5167600000000  0.4732450000000  0.4062900000000 1.0
C      1  0.5161190000000  0.5245170000000  0.4067040000000 1.0
C      1  0.5617830000000  0.4428310000000  0.5743590000000 1.0
C      1  0.4198610000000  0.4754500000000  0.5749150000000 1.0
C      1  0.5194340000000  0.5823210000000  0.5748210000000 1.0
C      1  0.4379130000000  0.4439410000000  0.5756780000000 1.0
C      1  0.5801570000000  0.4741110000000  0.5760300000000 1.0
C      1  0.4831540000000  0.5822900000000  0.5762120000000 1.0
C      1  0.4447880000000  0.5640310000000  0.4561020000000 1.0
C      1  0.5889110000000  0.5181750000000  0.4508340000000 1.0
C      1  0.4729720000000  0.4134740000000  0.4501910000000 1.0
C      1  0.5611090000000  0.5638410000000  0.4523630000000 1.0
C      1  0.4141630000000  0.5155860000000  0.4553640000000 1.0
C      1  0.5263310000000  0.4163210000000  0.4534320000000 1.0
C      1  0.4739980000000  0.4472380000000  0.4113750000000 1.0
C      1  0.4709840000000  0.5470800000000  0.4148540000000 1.0
C      1  0.5603000000000  0.5016360000000  0.4105640000000 1.0
C      1  0.5298340000000  0.4478040000000  0.4132630000000 1.0
C      1  0.5310820000000  0.5489940000000  0.4136720000000 1.0
C      1  0.4447360000000  0.4987700000000  0.4168810000000 1.0
C      1  0.5892700000000  0.4370500000000  0.4814870000000 1.0
C      1  0.4009160000000  0.4534500000000  0.4820130000000 1.0
C      1  0.5099660000000  0.6099990000000  0.4823940000000 1.0
C      1  0.4257240000000  0.4343410000000  0.4813510000000 1.0
C      1  0.5955790000000  0.4678410000000  0.4806710000000 1.0
C      1  0.4802780000000  0.5996180000000  0.4814290000000 1.0
C      1  0.4793650000000  0.4037810000000  0.5069360000000 1.0
C      1  0.4274840000000  0.5638930000000  0.5089850000000 1.0
C      1  0.5942320000000  0.5304720000000  0.5073590000000 1.0
C      1  0.5150410000000  0.4098470000000  0.5069900000000 1.0
C      1  0.5719270000000  0.5590500000000  0.5071120000000 1.0
C      1  0.4079630000000  0.5332140000000  0.5087320000000 1.0
C      1  0.5323140000000  0.4359920000000  0.5803110000000 1.0
C      1  0.4288130000000  0.5043320000000  0.5807470000000 1.0
C      1  0.5401960000000  0.5603020000000  0.5807080000000 1.0
C      1  0.4677280000000  0.4367170000000  0.5810420000000 1.0
C      1  0.5718250000000  0.5037680000000  0.5814990000000 1.0
C      1  0.4618020000000  0.5601350000000  0.5818470000000 1.0
C      1  0.5506200000000  0.4895360000000  0.4671030000000 1.0
C      1  0.4644600000000  0.4638830000000  0.4665250000000 1.0
C      1  0.4850610000000  0.5505660000000  0.4666930000000 1.0
C      1  0.4393910000000  0.4863120000000  0.4717910000000 1.0
C      1  0.5435480000000  0.4581520000000  0.4722930000000 1.0
C      1  0.5155750000000  0.5602490000000  0.4724490000000 1.0
C      1  0.5161570000000  0.4257160000000  0.4275910000000 1.0
C      1  0.4340700000000  0.5201020000000  0.4340720000000 1.0
C      1  0.5572980000000  0.5489440000000  0.4272980000000 1.0
C      1  0.4864570000000  0.4253590000000  0.4264300000000 1.0
C      1  0.5724080000000  0.5235060000000  0.4265050000000 1.0
C      1  0.4486060000000  0.5453320000000  0.4337180000000 1.0
C      1  0.4259800000000  0.4407970000000  0.5461210000000 1.0
C      1  0.4858990000000  0.5943480000000  0.5466170000000 1.0
C      1  0.5886550000000  0.4653680000000  0.5464270000000 1.0
C      1  0.5735970000000  0.4375480000000  0.5450790000000 1.0
C      1  0.5176610000000  0.5952200000000  0.5455860000000 1.0
C      1  0.4095440000000  0.4674950000000  0.5456690000000 1.0
C      1  0.5634780000000  0.4464980000000  0.4972940000000 1.0
C      1  0.4212060000000  0.4728770000000  0.4974290000000 1.0
C      1  0.5151240000000  0.5827680000000  0.4976940000000 1.0
C      1  0.4497340000000  0.4534360000000  0.4982100000000 1.0
C      1  0.5671030000000  0.4809440000000  0.4985300000000 1.0
C      1  0.4837090000000  0.5680980000000  0.4986410000000 1.0
C      1  0.5004000000000  0.5013330000000  0.4588320000000 1.0
END
