TITL C-862131-2149-1041 0.000624733641468738 125000 -197.404791402366 0 0 42 (C2) n - 1
REM
REM in /home/nfs/bkarasulu/CARBON/AIRSS/Generating-Clusters/TERSOFF/Higher-Symm/FIRE-HFTN
REM
REM
REM
REM
REM
REM ./C.cell (b20cbc046b6831c77cfcea5457e17084)
REM AIRSS Version 0.9.1 bugfix July 2018 build 013d7b7c2542+ Fri, 06 Jul 2018 19:26:36 +0100
REM compiler GCC version 9.2.1 20190827 (Red Hat 9.2.1-1)
REM options -cpp -mtune=generic -march=x86-64 -g -O0 -fpre-include=/usr/include/finclude/math-vector-fortran.h
REM seed -1379839441 457394097 1360753447 1006581039 1012417424 -1252914141 -2094467215 -2131181681 1354475566 1542405675 -2100849436 1627967125 1636157122 379193268 -2085474776 -993091315 -462904720 977629784 494833592 -1595825450 220148840 -1367829508 347971225 1806688489 2039373392 -659926207 -687639046 1349078898 -1972030578 -1958046125 -2001904066 -1005917262 1967950753
REM
CELL 1.54180   50.00000   50.00000   50.00000   90.00000   90.00000   90.00000
LATT -1
SFAC C  
C      1  0.5592010000000  0.4774230000000  0.4962300000000 1.0
C      1  0.4407990000000  0.5225770000000  0.4962300000000 1.0
C      1  0.4409370000000  0.4771010000000  0.4961990000000 1.0
C      1  0.5590630000000  0.5228990000000  0.4961990000000 1.0
C      1  0.4788210000000  0.5138300000000  0.5366350000000 1.0
C      1  0.5211790000000  0.4861700000000  0.5366350000000 1.0
C      1  0.5207850000000  0.5141500000000  0.5366110000000 1.0
C      1  0.4792160000000  0.4858500000000  0.5366110000000 1.0
C      1  0.5616230000000  0.4821540000000  0.5259640000000 1.0
C      1  0.4383770000000  0.5178460000000  0.5259640000000 1.0
C      1  0.4383290000000  0.4817430000000  0.5259190000000 1.0
C      1  0.5616710000000  0.5182570000000  0.5259190000000 1.0
C      1  0.5183400000000  0.4446350000000  0.5238120000000 1.0
C      1  0.4816600000000  0.5553650000000  0.5238120000000 1.0
C      1  0.4820130000000  0.4446410000000  0.5238910000000 1.0
C      1  0.5179870000000  0.5553590000000  0.5238910000000 1.0
C      1  0.4523780000000  0.4536660000000  0.5355140000000 1.0
C      1  0.5476220000000  0.5463340000000  0.5355140000000 1.0
C      1  0.5478490000000  0.4538510000000  0.5354770000000 1.0
C      1  0.4521510000000  0.5461500000000  0.5354770000000 1.0
C      1  0.4851420000000  0.4576920000000  0.4695950000000 1.0
C      1  0.5148580000000  0.5423080000000  0.4695950000000 1.0
C      1  0.5139150000000  0.4572120000000  0.4699070000000 1.0
C      1  0.4860850000000  0.5427880000000  0.4699070000000 1.0
C      1  0.4672630000000  0.4817020000000  0.4817770000000 1.0
C      1  0.5327370000000  0.5182980000000  0.4817770000000 1.0
C      1  0.5329310000000  0.4818310000000  0.4813760000000 1.0
C      1  0.4670690000000  0.5181690000000  0.4813770000000 1.0
C      1  0.4840470000000  0.5262620000000  0.5084580000000 1.0
C      1  0.5159530000000  0.4737380000000  0.5084580000000 1.0
C      1  0.5155380000000  0.5263130000000  0.5084180000000 1.0
C      1  0.4844620000000  0.4736870000000  0.5084180000000 1.0
C      1  0.5371370000000  0.5124980000000  0.4501450000000 1.0
C      1  0.4628630000000  0.4875020000000  0.4501450000000 1.0
C      1  0.4607750000000  0.5185470000000  0.4467870000000 1.0
C      1  0.5392250000000  0.4814530000000  0.4467870000000 1.0
C      1  0.4845270000000  0.4792970000000  0.4273150000000 1.0
C      1  0.5154730000000  0.5207030000000  0.4273150000000 1.0
C      1  0.5159800000000  0.4863910000000  0.4250110000000 1.0
C      1  0.4840200000000  0.5136090000000  0.4250110000000 1.0
C      1  0.4997270000000  0.5258020000000  0.5559670000000 1.0
C      1  0.5002730000000  0.4741980000000  0.5559670000000 1.0
END
