TITL C-862132-7359-297 -0.00110469670800481 125000 -365.167485642732 0 0 62 (C1) n - 1
REM
REM in /home/nfs/bkarasulu/CARBON/AIRSS/Generating-Clusters/TERSOFF/Higher-Symm/FIRE-HFTN
REM
REM
REM
REM
REM
REM ./C.cell (b20cbc046b6831c77cfcea5457e17084)
REM AIRSS Version 0.9.1 bugfix July 2018 build 013d7b7c2542+ Fri, 06 Jul 2018 19:26:36 +0100
REM compiler GCC version 9.2.1 20190827 (Red Hat 9.2.1-1)
REM options -cpp -mtune=generic -march=x86-64 -g -O0 -fpre-include=/usr/include/finclude/math-vector-fortran.h
REM seed 230454125 -1149820305 1636253933 -56018815 -1410521806 -159644015 -1723374471 -1240756853 2115881705 -438971107 881875243 -1973871445 -1656995893 639538114 284312153 -221619387 1737626963 585365847 -693592733 188231278 -938077311 -904543389 -279179704 -101157473 -1292582335 -560468346 49429600 -774402344 -1019352678 -92394496 -583803355 -1329379626 59101879
REM
CELL 1.54180   50.00000   50.00000   50.00000   90.00000   90.00000   90.00000
LATT -1
SFAC C  
C      1  0.5241660000000  0.4503830000000  0.4397970000000 1.0
C      1  0.4512730000000  0.4517750000000  0.4591250000000 1.0
C      1  0.4463870000000  0.4517700000000  0.5342530000000 1.0
C      1  0.5164140000000  0.4504410000000  0.5620680000000 1.0
C      1  0.5642660000000  0.4509190000000  0.5039460000000 1.0
C      1  0.5156370000000  0.4291890000000  0.4584190000000 1.0
C      1  0.4658610000000  0.4299590000000  0.4726150000000 1.0
C      1  0.4636040000000  0.4298950000000  0.5242400000000 1.0
C      1  0.5120840000000  0.4290820000000  0.5422960000000 1.0
C      1  0.5440100000000  0.4294330000000  0.5016170000000 1.0
C      1  0.4448060000000  0.5001930000000  0.5241240000000 1.0
C      1  0.5057000000000  0.4978500000000  0.5608720000000 1.0
C      1  0.5623380000000  0.5000120000000  0.5137960000000 1.0
C      1  0.5323030000000  0.4980510000000  0.4468380000000 1.0
C      1  0.4604410000000  0.4999040000000  0.4536700000000 1.0
C      1  0.5314750000000  0.5736730000000  0.5291920000000 1.0
C      1  0.5234700000000  0.5747360000000  0.4628280000000 1.0
C      1  0.4928750000000  0.5754060000000  0.4658620000000 1.0
C      1  0.4555420000000  0.5751750000000  0.5051880000000 1.0
C      1  0.5012570000000  0.5751070000000  0.5332320000000 1.0
C      1  0.5396870000000  0.5492760000000  0.4627440000000 1.0
C      1  0.4804430000000  0.5511980000000  0.4489730000000 1.0
C      1  0.4413050000000  0.5497120000000  0.5039610000000 1.0
C      1  0.4898410000000  0.5518750000000  0.5515570000000 1.0
C      1  0.5475320000000  0.5484670000000  0.5328720000000 1.0
C      1  0.5023590000000  0.5369660000000  0.4356630000000 1.0
C      1  0.4389200000000  0.5396310000000  0.4768980000000 1.0
C      1  0.4617040000000  0.5442330000000  0.5486280000000 1.0
C      1  0.5369840000000  0.5352840000000  0.5562520000000 1.0
C      1  0.5588290000000  0.5436720000000  0.4840150000000 1.0
C      1  0.5528260000000  0.4582370000000  0.4441090000000 1.0
C      1  0.4636520000000  0.4593920000000  0.4330700000000 1.0
C      1  0.4256660000000  0.4598660000000  0.5143660000000 1.0
C      1  0.4910020000000  0.4583970000000  0.5758260000000 1.0
C      1  0.5698240000000  0.4582460000000  0.5322050000000 1.0
C      1  0.4325080000000  0.4845940000000  0.4985830000000 1.0
C      1  0.4779850000000  0.4834250000000  0.5648860000000 1.0
C      1  0.5558610000000  0.4831820000000  0.5414660000000 1.0
C      1  0.5572350000000  0.4833160000000  0.4606530000000 1.0
C      1  0.4812560000000  0.4839500000000  0.4339370000000 1.0
C      1  0.4525030000000  0.5300610000000  0.5241770000000 1.0
C      1  0.5089810000000  0.5271140000000  0.5537750000000 1.0
C      1  0.5514680000000  0.5293420000000  0.5088960000000 1.0
C      1  0.5236110000000  0.5258820000000  0.4530320000000 1.0
C      1  0.4627310000000  0.5296790000000  0.4628610000000 1.0
C      1  0.4459630000000  0.4795030000000  0.4713580000000 1.0
C      1  0.4566250000000  0.4793270000000  0.5435990000000 1.0
C      1  0.5283210000000  0.4780440000000  0.5552950000000 1.0
C      1  0.5623890000000  0.4787720000000  0.4906830000000 1.0
C      1  0.5113440000000  0.4782130000000  0.4379950000000 1.0
C      1  0.5361070000000  0.4180620000000  0.4759940000000 1.0
C      1  0.4886040000000  0.4182640000000  0.4584340000000 1.0
C      1  0.4571200000000  0.4187870000000  0.4980380000000 1.0
C      1  0.4850460000000  0.4182170000000  0.5401750000000 1.0
C      1  0.5338020000000  0.4178980000000  0.5264510000000 1.0
C      1  0.5036040000000  0.5192800000000  0.5248190000000 1.0
C      1  0.5244040000000  0.5154280000000  0.5046430000000 1.0
C      1  0.5105900000000  0.5157070000000  0.4781450000000 1.0
C      1  0.4822950000000  0.5199610000000  0.4833860000000 1.0
C      1  0.4782580000000  0.5221800000000  0.5114280000000 1.0
C      1  0.4849790000000  0.5773320000000  0.5010760000000 1.0
C      1  0.5048740000000  0.5519550000000  0.4984720000000 1.0
END
