TITL C-862132-7359-555 5.31433549749229 125000 -719.537612214993 0 0 126 (C1) n - 1
REM
REM in /home/nfs/bkarasulu/CARBON/AIRSS/Generating-Clusters/TERSOFF/Higher-Symm/FIRE-HFTN
REM
REM
REM
REM
REM
REM ./C.cell (b20cbc046b6831c77cfcea5457e17084)
REM AIRSS Version 0.9.1 bugfix July 2018 build 013d7b7c2542+ Fri, 06 Jul 2018 19:26:36 +0100
REM compiler GCC version 9.2.1 20190827 (Red Hat 9.2.1-1)
REM options -cpp -mtune=generic -march=x86-64 -g -O0 -fpre-include=/usr/include/finclude/math-vector-fortran.h
REM seed 347556415 1569028050 1878345946 -416241734 30906108 551840028 1366564724 -1514826075 473863166 -315327816 -1638460231 -337591211 498598671 1010193263 1752882968 104711250 1463028637 813495656 1599389656 1361441668 -1356557359 1652217434 -1314463897 1799765893 -1638648371 -1152671736 -1598979485 1717600837 -1858995185 1101419723 -1879961588 -1109198791 -158577118
REM
CELL 1.54180   50.00000   50.00000   50.00000   90.00000   90.00000   90.00000
LATT -1
SFAC C  
C      1  0.5012390000000  0.5069480000000  0.5596390000000 1.0
C      1  0.5718070000000  0.5650350000000  0.4868050000000 1.0
C      1  0.5146050000000  0.4151900000000  0.4672860000000 1.0
C      1  0.4432440000000  0.4525650000000  0.4356600000000 1.0
C      1  0.4845710000000  0.5870290000000  0.5060830000000 1.0
C      1  0.5134310000000  0.4215180000000  0.4971090000000 1.0
C      1  0.5876320000000  0.4997180000000  0.4534590000000 1.0
C      1  0.4983140000000  0.4841820000000  0.5199480000000 1.0
C      1  0.5768770000000  0.5506780000000  0.4349230000000 1.0
C      1  0.4525430000000  0.4567000000000  0.5173220000000 1.0
C      1  0.4845810000000  0.4564310000000  0.5647810000000 1.0
C      1  0.4874700000000  0.5784550000000  0.5559220000000 1.0
C      1  0.4942770000000  0.5363240000000  0.5574850000000 1.0
C      1  0.5276970000000  0.4300760000000  0.5480230000000 1.0
C      1  0.5247040000000  0.4770860000000  0.5777720000000 1.0
C      1  0.5732580000000  0.5034220000000  0.5327140000000 1.0
C      1  0.5712520000000  0.4514430000000  0.4449280000000 1.0
C      1  0.4575840000000  0.4847130000000  0.4733240000000 1.0
C      1  0.4853720000000  0.5335120000000  0.4643790000000 1.0
C      1  0.5685140000000  0.4205560000000  0.5111790000000 1.0
C      1  0.5252820000000  0.5047630000000  0.4691140000000 1.0
C      1  0.4648130000000  0.5916740000000  0.4827930000000 1.0
C      1  0.5688730000000  0.5465420000000  0.5703690000000 1.0
C      1  0.5311290000000  0.5133440000000  0.5576020000000 1.0
C      1  0.4316030000000  0.5294630000000  0.4976830000000 1.0
C      1  0.4374960000000  0.4679920000000  0.5619050000000 1.0
C      1  0.4223370000000  0.4675210000000  0.4216540000000 1.0
C      1  0.5518970000000  0.5785600000000  0.5047720000000 1.0
C      1  0.5584190000000  0.5564770000000  0.4570800000000 1.0
C      1  0.4106880000000  0.4823270000000  0.5101980000000 1.0
C      1  0.5395880000000  0.4168350000000  0.4525800000000 1.0
C      1  0.4505510000000  0.5278650000000  0.5199710000000 1.0
C      1  0.4793540000000  0.4655100000000  0.4764880000000 1.0
C      1  0.5297110000000  0.4906610000000  0.4441420000000 1.0
C      1  0.4797340000000  0.5944470000000  0.5333200000000 1.0
C      1  0.4436340000000  0.5479020000000  0.5418780000000 1.0
C      1  0.4703130000000  0.5237380000000  0.4422670000000 1.0
C      1  0.4287350000000  0.4404460000000  0.5135600000000 1.0
C      1  0.5186720000000  0.5777910000000  0.5637480000000 1.0
C      1  0.4864790000000  0.4996780000000  0.4997560000000 1.0
C      1  0.5789410000000  0.5250990000000  0.4211450000000 1.0
C      1  0.4848580000000  0.5892820000000  0.4596970000000 1.0
C      1  0.4638230000000  0.4942780000000  0.4055250000000 1.0
C      1  0.5569230000000  0.5115320000000  0.4079980000000 1.0
C      1  0.4897240000000  0.4258430000000  0.4546890000000 1.0
C      1  0.5682980000000  0.4624550000000  0.5645370000000 1.0
C      1  0.4537170000000  0.5428690000000  0.4284620000000 1.0
C      1  0.5705110000000  0.4771550000000  0.4592640000000 1.0
C      1  0.5305930000000  0.5602190000000  0.5115510000000 1.0
C      1  0.5135890000000  0.5534280000000  0.4238520000000 1.0
C      1  0.5647140000000  0.5049590000000  0.5939080000000 1.0
C      1  0.5076660000000  0.5702460000000  0.4967830000000 1.0
C      1  0.5539180000000  0.4791950000000  0.5849920000000 1.0
C      1  0.5214600000000  0.4405180000000  0.3876160000000 1.0
C      1  0.4080360000000  0.5500750000000  0.5011210000000 1.0
C      1  0.5805430000000  0.5509770000000  0.5181850000000 1.0
C      1  0.4315200000000  0.5667070000000  0.5170830000000 1.0
C      1  0.5432890000000  0.4415380000000  0.4346760000000 1.0
C      1  0.5093300000000  0.5252820000000  0.4153340000000 1.0
C      1  0.5882980000000  0.5226240000000  0.5797950000000 1.0
C      1  0.4756350000000  0.4653790000000  0.5923030000000 1.0
C      1  0.4469180000000  0.4767790000000  0.5884640000000 1.0
C      1  0.6022180000000  0.5149190000000  0.4733070000000 1.0
C      1  0.5189900000000  0.4505170000000  0.5059700000000 1.0
C      1  0.4754550000000  0.4503760000000  0.5012250000000 1.0
C      1  0.4796220000000  0.4159480000000  0.5333240000000 1.0
C      1  0.4986450000000  0.4854850000000  0.5956220000000 1.0
C      1  0.3927210000000  0.5266620000000  0.5131870000000 1.0
C      1  0.5287610000000  0.4131210000000  0.5223930000000 1.0
C      1  0.4178220000000  0.5125160000000  0.5617070000000 1.0
C      1  0.5618840000000  0.3985300000000  0.4936920000000 1.0
C      1  0.4648600000000  0.4221450000000  0.4720300000000 1.0
C      1  0.4239800000000  0.5611280000000  0.4638710000000 1.0
C      1  0.3981800000000  0.4637670000000  0.5303690000000 1.0
C      1  0.4661100000000  0.5505010000000  0.5636470000000 1.0
C      1  0.5172830000000  0.5448800000000  0.6030960000000 1.0
C      1  0.3904390000000  0.5038420000000  0.4910260000000 1.0
C      1  0.4695400000000  0.4697320000000  0.4297680000000 1.0
C      1  0.4933240000000  0.4552890000000  0.4483310000000 1.0
C      1  0.4991880000000  0.5117110000000  0.4771330000000 1.0
C      1  0.5562810000000  0.4353090000000  0.5605890000000 1.0
C      1  0.4725990000000  0.5504710000000  0.4850060000000 1.0
C      1  0.4103270000000  0.4595350000000  0.5562700000000 1.0
C      1  0.4419650000000  0.5061620000000  0.5802890000000 1.0
C      1  0.4297900000000  0.4960530000000  0.4174340000000 1.0
C      1  0.5452240000000  0.5188750000000  0.4835900000000 1.0
C      1  0.5823090000000  0.4323890000000  0.4664190000000 1.0
C      1  0.4832090000000  0.5174120000000  0.4004050000000 1.0
C      1  0.5464300000000  0.5257540000000  0.5796730000000 1.0
C      1  0.4278710000000  0.5422530000000  0.4415800000000 1.0
C      1  0.4448270000000  0.5676360000000  0.4848850000000 1.0
C      1  0.4392200000000  0.4420540000000  0.4653520000000 1.0
C      1  0.5220150000000  0.4627650000000  0.4421690000000 1.0
C      1  0.5274180000000  0.5605560000000  0.4502940000000 1.0
C      1  0.5133330000000  0.5511780000000  0.5750380000000 1.0
C      1  0.5338780000000  0.4706380000000  0.4920380000000 1.0
C      1  0.4114850000000  0.4970880000000  0.4675320000000 1.0
C      1  0.4302410000000  0.4739890000000  0.4807820000000 1.0
C      1  0.4194360000000  0.4336210000000  0.4872800000000 1.0
C      1  0.4957100000000  0.4303340000000  0.5546240000000 1.0
C      1  0.5664220000000  0.5617410000000  0.5447320000000 1.0
C      1  0.4192800000000  0.5130440000000  0.4415550000000 1.0
C      1  0.4886460000000  0.5144360000000  0.5989710000000 1.0
C      1  0.5949500000000  0.4597660000000  0.5204860000000 1.0
C      1  0.5097830000000  0.5752150000000  0.4681790000000 1.0
C      1  0.4607160000000  0.4961190000000  0.4472940000000 1.0
C      1  0.5906900000000  0.5233450000000  0.5203940000000 1.0
C      1  0.4555440000000  0.4738070000000  0.5399710000000 1.0
C      1  0.4865020000000  0.4823770000000  0.5466300000000 1.0
C      1  0.4932100000000  0.5719250000000  0.4140330000000 1.0
C      1  0.4965720000000  0.5429210000000  0.5288530000000 1.0
C      1  0.4831460000000  0.4213370000000  0.5030550000000 1.0
C      1  0.4648590000000  0.5662530000000  0.4153070000000 1.0
C      1  0.5238390000000  0.4621120000000  0.5510840000000 1.0
C      1  0.4752980000000  0.5385430000000  0.5108260000000 1.0
C      1  0.5620020000000  0.4691700000000  0.4862250000000 1.0
C      1  0.5310550000000  0.5065240000000  0.4200850000000 1.0
C      1  0.5432960000000  0.4350100000000  0.4057980000000 1.0
C      1  0.4141110000000  0.5099690000000  0.5307180000000 1.0
C      1  0.5644180000000  0.4075880000000  0.4659500000000 1.0
C      1  0.5795580000000  0.4461130000000  0.4987110000000 1.0
C      1  0.4640840000000  0.5255860000000  0.5846340000000 1.0
C      1  0.5386350000000  0.5303610000000  0.5096220000000 1.0
C      1  0.5454290000000  0.5126500000000  0.5326930000000 1.0
C      1  0.5429520000000  0.5812340000000  0.5457200000000 1.0
C      1  0.5818270000000  0.4761550000000  0.5409300000000 1.0
END
