TITL C-862131-2149-910 3.79662417843018e-06 125000 -422.823405600688 0 0 90 (C1) n - 1
REM
REM in /home/nfs/bkarasulu/CARBON/AIRSS/Generating-Clusters/TERSOFF/Higher-Symm/FIRE-HFTN
REM
REM
REM
REM
REM
REM ./C.cell (b20cbc046b6831c77cfcea5457e17084)
REM AIRSS Version 0.9.1 bugfix July 2018 build 013d7b7c2542+ Fri, 06 Jul 2018 19:26:36 +0100
REM compiler GCC version 9.2.1 20190827 (Red Hat 9.2.1-1)
REM options -cpp -mtune=generic -march=x86-64 -g -O0 -fpre-include=/usr/include/finclude/math-vector-fortran.h
REM seed 1343594204 -240633914 305094624 -1078511778 -1412585730 -1008935098 731092891 1150092363 -1696211432 854496883 -1849086294 532485814 1562036280 1140377949 2001766731 2006622612 16405984 1370010214 1882332259 102242772 2102173773 232097410 -1838886728 -661360089 -1657261728 592190431 -898829262 -2028687403 1615381516 868625623 -1762685318 254847220 -2101469096
REM
CELL 1.54180   50.00000   50.00000   50.00000   90.00000   90.00000   90.00000
LATT -1
SFAC C  
C      1  0.5055060000000  0.4225010000000  0.5267260000000 1.0
C      1  0.4771910000000  0.4228790000000  0.5132740000000 1.0
C      1  0.4808590000000  0.4228170000000  0.4819310000000 1.0
C      1  0.5119480000000  0.4223940000000  0.4755730000000 1.0
C      1  0.5273470000000  0.4220330000000  0.5036360000000 1.0
C      1  0.5452420000000  0.5002010000000  0.5915360000000 1.0
C      1  0.4261570000000  0.4999540000000  0.5743600000000 1.0
C      1  0.4088960000000  0.4991870000000  0.4540020000000 1.0
C      1  0.5167780000000  0.5019880000000  0.4006220000000 1.0
C      1  0.6011070000000  0.4994330000000  0.4846530000000 1.0
C      1  0.4771090000000  0.5394960000000  0.5681050000000 1.0
C      1  0.4216130000000  0.5347110000000  0.5017310000000 1.0
C      1  0.4766180000000  0.5367090000000  0.4292120000000 1.0
C      1  0.5647590000000  0.5363680000000  0.4572410000000 1.0
C      1  0.5637720000000  0.5352900000000  0.5471130000000 1.0
C      1  0.5239090000000  0.5193280000000  0.5789450000000 1.0
C      1  0.4325460000000  0.5156500000000  0.5480820000000 1.0
C      1  0.4332690000000  0.5178770000000  0.4495320000000 1.0
C      1  0.5285860000000  0.5194580000000  0.4235610000000 1.0
C      1  0.5836790000000  0.5173280000000  0.5030730000000 1.0
C      1  0.4952010000000  0.5677180000000  0.5243270000000 1.0
C      1  0.4647300000000  0.5637580000000  0.5052060000000 1.0
C      1  0.4800750000000  0.5646840000000  0.4752080000000 1.0
C      1  0.5299700000000  0.5658520000000  0.4854140000000 1.0
C      1  0.5308080000000  0.5648600000000  0.5195440000000 1.0
C      1  0.4194180000000  0.5102790000000  0.5225380000000 1.0
C      1  0.4549280000000  0.5124570000000  0.4305080000000 1.0
C      1  0.5533600000000  0.5129420000000  0.4375480000000 1.0
C      1  0.5782390000000  0.5113710000000  0.5310270000000 1.0
C      1  0.4952080000000  0.5149410000000  0.5805570000000 1.0
C      1  0.5730800000000  0.4585390000000  0.4941440000000 1.0
C      1  0.5276000000000  0.4603540000000  0.5668670000000 1.0
C      1  0.4455460000000  0.4611050000000  0.5467080000000 1.0
C      1  0.4384960000000  0.4600770000000  0.4624440000000 1.0
C      1  0.5166580000000  0.4596100000000  0.4284790000000 1.0
C      1  0.5328690000000  0.4641140000000  0.4842160000000 1.0
C      1  0.5255900000000  0.4649480000000  0.5253660000000 1.0
C      1  0.4842460000000  0.4642570000000  0.5312790000000 1.0
C      1  0.4660160000000  0.4625490000000  0.4937320000000 1.0
C      1  0.4959890000000  0.4626680000000  0.4646360000000 1.0
C      1  0.4756450000000  0.5694290000000  0.5529800000000 1.0
C      1  0.4311020000000  0.5678850000000  0.5004480000000 1.0
C      1  0.4827050000000  0.5675880000000  0.4413160000000 1.0
C      1  0.5607520000000  0.5653980000000  0.4727320000000 1.0
C      1  0.5517910000000  0.5669710000000  0.5454920000000 1.0
C      1  0.4778240000000  0.4491300000000  0.4403690000000 1.0
C      1  0.5499680000000  0.4497940000000  0.4602920000000 1.0
C      1  0.5526520000000  0.4499950000000  0.5348370000000 1.0
C      1  0.4837190000000  0.4510560000000  0.5609790000000 1.0
C      1  0.4376460000000  0.4491120000000  0.5030590000000 1.0
C      1  0.4538980000000  0.4845440000000  0.5664990000000 1.0
C      1  0.4207930000000  0.4814020000000  0.4776250000000 1.0
C      1  0.4976360000000  0.4830730000000  0.4179140000000 1.0
C      1  0.5781300000000  0.4812880000000  0.4722770000000 1.0
C      1  0.5509170000000  0.4818430000000  0.5656430000000 1.0
C      1  0.5396870000000  0.5120840000000  0.5516630000000 1.0
C      1  0.4645280000000  0.5146900000000  0.5497630000000 1.0
C      1  0.4377960000000  0.5124570000000  0.4814270000000 1.0
C      1  0.4993950000000  0.5133910000000  0.4370930000000 1.0
C      1  0.5612620000000  0.5117340000000  0.4797180000000 1.0
C      1  0.5320900000000  0.5090530000000  0.5165850000000 1.0
C      1  0.4942030000000  0.5098170000000  0.5343370000000 1.0
C      1  0.4654640000000  0.5087610000000  0.5039370000000 1.0
C      1  0.4854880000000  0.5085480000000  0.4671910000000 1.0
C      1  0.5266640000000  0.5085780000000  0.4750650000000 1.0
C      1  0.4513030000000  0.4342190000000  0.5265930000000 1.0
C      1  0.4602960000000  0.4341960000000  0.4613200000000 1.0
C      1  0.5252860000000  0.4345340000000  0.4498650000000 1.0
C      1  0.5557660000000  0.4338490000000  0.5087730000000 1.0
C      1  0.5096240000000  0.4345090000000  0.5553530000000 1.0
C      1  0.4229300000000  0.4800970000000  0.5102580000000 1.0
C      1  0.4668820000000  0.4816330000000  0.4293770000000 1.0
C      1  0.5577110000000  0.4815480000000  0.4464210000000 1.0
C      1  0.5691840000000  0.4808200000000  0.5381010000000 1.0
C      1  0.4851320000000  0.4837010000000  0.5760340000000 1.0
C      1  0.4677380000000  0.4810440000000  0.4655380000000 1.0
C      1  0.5229320000000  0.4815930000000  0.4566240000000 1.0
C      1  0.5488950000000  0.4818810000000  0.5078760000000 1.0
C      1  0.5073790000000  0.4828620000000  0.5473250000000 1.0
C      1  0.4579330000000  0.4815930000000  0.5200690000000 1.0
C      1  0.5311240000000  0.5372080000000  0.4636380000000 1.0
C      1  0.5467950000000  0.5358950000000  0.5178510000000 1.0
C      1  0.5022740000000  0.5383500000000  0.5441770000000 1.0
C      1  0.4530080000000  0.5347050000000  0.5136150000000 1.0
C      1  0.4693210000000  0.5345080000000  0.4632110000000 1.0
C      1  0.5003700000000  0.4858960000000  0.4992330000000 1.0
C      1  0.5012290000000  0.4546670000000  0.5001270000000 1.0
C      1  0.5019280000000  0.5874220000000  0.4931420000000 1.0
C      1  0.5008780000000  0.5157320000000  0.4992150000000 1.0
C      1  0.5015960000000  0.5458380000000  0.4962170000000 1.0
END
