TITL C-862506-1665-1248 6.88406811505694e-06 125000 -698.688160011151 0 0 127 (D3) n - 1
REM
REM in /home/nfs/bkarasulu/CARBON/AIRSS/Generating-Clusters/TERSOFF/Higher-Symm/FIRE-HFTN
REM
REM
REM
REM
REM
REM ./C.cell (b20cbc046b6831c77cfcea5457e17084)
REM AIRSS Version 0.9.1 bugfix July 2018 build 013d7b7c2542+ Fri, 06 Jul 2018 19:26:36 +0100
REM compiler GCC version 9.2.1 20190827 (Red Hat 9.2.1-1)
REM options -cpp -mtune=generic -march=x86-64 -g -O0 -fpre-include=/usr/include/finclude/math-vector-fortran.h
REM seed -1949637823 -1684448521 -1180686769 -61061856 -776056324 -84112936 1409211587 1807047648 -1915902094 -1090540382 1859393934 -1850724111 -1766858042 -138430724 1031478045 -528118871 1105467647 -1263869521 -225508961 -1512692934 1999522445 2061156937 -302535890 260458317 -421047366 970253631 -989332020 -1719809507 -2144116120 1265888952 -503883299 1279077351 1333858930
REM
CELL 1.54180   50.00000   50.00000   50.00000   90.00000   90.00000   90.00000
LATT -1
SFAC C  
C      1  0.5335220000000  0.5231770000000  0.5255620000000 1.0
C      1  0.5056200000000  0.5231770000000  0.4582730000000 1.0
C      1  0.4612970000000  0.5231770000000  0.5160820000000 1.0
C      1  0.5335220000000  0.4760490000000  0.4743820000000 1.0
C      1  0.5056210000000  0.4760490000000  0.5416720000000 1.0
C      1  0.4612970000000  0.4760490000000  0.4838640000000 1.0
C      1  0.4639320000000  0.5569360000000  0.5524500000000 1.0
C      1  0.5637010000000  0.5569360000000  0.5050960000000 1.0
C      1  0.4728060000000  0.5569360000000  0.4423710000000 1.0
C      1  0.4639320000000  0.4422900000000  0.4474950000000 1.0
C      1  0.5637010000000  0.4422900000000  0.4948490000000 1.0
C      1  0.4728070000000  0.4422900000000  0.5575740000000 1.0
C      1  0.4592730000000  0.5073390000000  0.5434860000000 1.0
C      1  0.5582670000000  0.5073390000000  0.5136130000000 1.0
C      1  0.4828990000000  0.5073380000000  0.4428190000000 1.0
C      1  0.4592730000000  0.4918870000000  0.4564600000000 1.0
C      1  0.5582660000000  0.4918880000000  0.4863310000000 1.0
C      1  0.4829000000000  0.4918880000000  0.5571270000000 1.0
C      1  0.4455670000000  0.5146280000000  0.4119860000000 1.0
C      1  0.4512370000000  0.5146290000000  0.5912330000000 1.0
C      1  0.6036350000000  0.5146290000000  0.4966990000000 1.0
C      1  0.4455680000000  0.4845980000000  0.5879600000000 1.0
C      1  0.4512360000000  0.4845970000000  0.4087130000000 1.0
C      1  0.6036350000000  0.4845980000000  0.5032450000000 1.0
C      1  0.5282720000000  0.4716090000000  0.5616290000000 1.0
C      1  0.5394790000000  0.4716080000000  0.4447870000000 1.0
C      1  0.4326880000000  0.4716080000000  0.4935020000000 1.0
C      1  0.5282710000000  0.5276170000000  0.4383160000000 1.0
C      1  0.5394800000000  0.5276180000000  0.5551570000000 1.0
C      1  0.4326880000000  0.5276180000000  0.5064440000000 1.0
C      1  0.4173980000000  0.4684460000000  0.4508390000000 1.0
C      1  0.4989700000000  0.4684460000000  0.5962010000000 1.0
C      1  0.5840710000000  0.4684460000000  0.4528770000000 1.0
C      1  0.4173990000000  0.5307800000000  0.5491070000000 1.0
C      1  0.4989690000000  0.5307800000000  0.4037440000000 1.0
C      1  0.5840720000000  0.5307800000000  0.5470670000000 1.0
C      1  0.4708250000000  0.5878090000000  0.4934390000000 1.0
C      1  0.5091490000000  0.5878100000000  0.5286320000000 1.0
C      1  0.5204640000000  0.5878090000000  0.4778460000000 1.0
C      1  0.4708250000000  0.4114170000000  0.5065060000000 1.0
C      1  0.5091490000000  0.4114160000000  0.4713130000000 1.0
C      1  0.5204650000000  0.4114170000000  0.5220990000000 1.0
C      1  0.4475420000000  0.5553420000000  0.4634830000000 1.0
C      1  0.4948480000000  0.5553420000000  0.5637730000000 1.0
C      1  0.5580490000000  0.5553420000000  0.4726600000000 1.0
C      1  0.4475430000000  0.4438840000000  0.5364630000000 1.0
C      1  0.4948470000000  0.4438840000000  0.4361720000000 1.0
C      1  0.5580490000000  0.4438840000000  0.5272840000000 1.0
C      1  0.5589430000000  0.5456760000000  0.4160570000000 1.0
C      1  0.3980750000000  0.5456760000000  0.4910110000000 1.0
C      1  0.5434210000000  0.5456770000000  0.5928500000000 1.0
C      1  0.5589440000000  0.4535500000000  0.5838880000000 1.0
C      1  0.3980750000000  0.4535490000000  0.5089360000000 1.0
C      1  0.5434200000000  0.4535490000000  0.4070950000000 1.0
C      1  0.5075780000000  0.4711450000000  0.4401510000000 1.0
C      1  0.4446230000000  0.4711450000000  0.5234480000000 1.0
C      1  0.5482380000000  0.4711460000000  0.5363190000000 1.0
C      1  0.5075780000000  0.5280810000000  0.5597940000000 1.0
C      1  0.4446230000000  0.5280800000000  0.4764980000000 1.0
C      1  0.5482370000000  0.5280810000000  0.4636250000000 1.0
C      1  0.4467280000000  0.4708000000000  0.4361670000000 1.0
C      1  0.4715980000000  0.4708000000000  0.5781370000000 1.0
C      1  0.5821130000000  0.4708000000000  0.4856140000000 1.0
C      1  0.4467290000000  0.5284260000000  0.5637790000000 1.0
C      1  0.4715970000000  0.5284250000000  0.4218080000000 1.0
C      1  0.5821130000000  0.5284260000000  0.5143300000000 1.0
C      1  0.3929880000000  0.5151710000000  0.4858940000000 1.0
C      1  0.5415330000000  0.5151710000000  0.5998140000000 1.0
C      1  0.5659180000000  0.5151710000000  0.4142100000000 1.0
C      1  0.3929880000000  0.4840550000000  0.5140530000000 1.0
C      1  0.5415320000000  0.4840550000000  0.4001310000000 1.0
C      1  0.5659190000000  0.4840560000000  0.5857340000000 1.0
C      1  0.4132150000000  0.4920780000000  0.4750640000000 1.0
C      1  0.5220410000000  0.4920780000000  0.5877120000000 1.0
C      1  0.5651830000000  0.4920780000000  0.4371420000000 1.0
C      1  0.4132160000000  0.5071480000000  0.5248820000000 1.0
C      1  0.5220390000000  0.5071480000000  0.4122330000000 1.0
C      1  0.5651840000000  0.5071480000000  0.5628020000000 1.0
C      1  0.4256000000000  0.5590450000000  0.5064620000000 1.0
C      1  0.5430400000000  0.5590450000000  0.5612870000000 1.0
C      1  0.5318000000000  0.5590450000000  0.4321680000000 1.0
C      1  0.4256000000000  0.4401810000000  0.4934840000000 1.0
C      1  0.5430390000000  0.4401810000000  0.4386580000000 1.0
C      1  0.5318010000000  0.4401820000000  0.5677760000000 1.0
C      1  0.5688030000000  0.5083560000000  0.4626490000000 1.0
C      1  0.4334950000000  0.5083560000000  0.4591750000000 1.0
C      1  0.4981410000000  0.5083560000000  0.5780930000000 1.0
C      1  0.5688040000000  0.4908700000000  0.5372950000000 1.0
C      1  0.4334960000000  0.4908700000000  0.5407710000000 1.0
C      1  0.4981400000000  0.4908700000000  0.4218520000000 1.0
C      1  0.5015910000000  0.4778400000000  0.4722060000000 1.0
C      1  0.4753780000000  0.4778400000000  0.5126050000000 1.0
C      1  0.5234710000000  0.4778410000000  0.5151070000000 1.0
C      1  0.5015910000000  0.5213860000000  0.5277390000000 1.0
C      1  0.4753770000000  0.5213850000000  0.4873400000000 1.0
C      1  0.5234710000000  0.5213850000000  0.4848380000000 1.0
C      1  0.4451100000000  0.4252130000000  0.5133750000000 1.0
C      1  0.5392710000000  0.4252130000000  0.5409340000000 1.0
C      1  0.5160580000000  0.4252130000000  0.4456090000000 1.0
C      1  0.4451100000000  0.5740130000000  0.4865710000000 1.0
C      1  0.5392700000000  0.5740130000000  0.4590100000000 1.0
C      1  0.5160580000000  0.5740130000000  0.5543360000000 1.0
C      1  0.5019730000000  0.4418150000000  0.5788480000000 1.0
C      1  0.5675420000000  0.4418140000000  0.4589540000000 1.0
C      1  0.4309250000000  0.4418140000000  0.4621170000000 1.0
C      1  0.5019710000000  0.5574110000000  0.4210970000000 1.0
C      1  0.5675420000000  0.5574120000000  0.5409910000000 1.0
C      1  0.4309260000000  0.5574120000000  0.5378300000000 1.0
C      1  0.5957690000000  0.5179440000000  0.4688690000000 1.0
C      1  0.4253990000000  0.5179440000000  0.4327120000000 1.0
C      1  0.4792710000000  0.5179440000000  0.5983360000000 1.0
C      1  0.5957700000000  0.4812820000000  0.5310750000000 1.0
C      1  0.4254000000000  0.4812820000000  0.5672340000000 1.0
C      1  0.4792700000000  0.4812810000000  0.4016090000000 1.0
C      1  0.5337400000000  0.4537810000000  0.4945280000000 1.0
C      1  0.4786340000000  0.4537810000000  0.4736020000000 1.0
C      1  0.4880650000000  0.4537810000000  0.5317880000000 1.0
C      1  0.5337400000000  0.5454450000000  0.5054170000000 1.0
C      1  0.4786340000000  0.5454450000000  0.5263430000000 1.0
C      1  0.4880640000000  0.5454450000000  0.4681570000000 1.0
C      1  0.4916670000000  0.4089150000000  0.5275120000000 1.0
C      1  0.5282360000000  0.4089150000000  0.4935470000000 1.0
C      1  0.4805370000000  0.4089140000000  0.4788600000000 1.0
C      1  0.4916660000000  0.5903110000000  0.4724330000000 1.0
C      1  0.5282360000000  0.5903120000000  0.5063980000000 1.0
C      1  0.4805370000000  0.5903120000000  0.5210850000000 1.0
C      1  0.5001460000000  0.4996130000000  0.4999730000000 1.0
END
