TITL C-862503-991-157 0.290109195318413 125000 -875.392509157672 0 0 155 (C3) n - 1
REM
REM in /home/nfs/bkarasulu/CARBON/AIRSS/Generating-Clusters/TERSOFF/Higher-Symm/FIRE-HFTN
REM
REM
REM
REM
REM
REM ./C.cell (b20cbc046b6831c77cfcea5457e17084)
REM AIRSS Version 0.9.1 bugfix July 2018 build 013d7b7c2542+ Fri, 06 Jul 2018 19:26:36 +0100
REM compiler GCC version 9.2.1 20190827 (Red Hat 9.2.1-1)
REM options -cpp -mtune=generic -march=x86-64 -g -O0 -fpre-include=/usr/include/finclude/math-vector-fortran.h
REM seed 1755269950 54887764 -925160624 466523680 610749666 -520197431 -777264910 -138076069 1847052842 1481553329 1534564127 -628626092 115017401 -2054126951 -1390546888 -1879217189 -875316577 1000636999 824080662 1042726475 -1796716789 1240916928 -624929821 -1017617278 757519980 1664412535 -1262197048 -521422453 1275329020 1699402069 -1750271771 -2009825916 792702541
REM
CELL 1.54180   50.00000   50.00000   50.00000   90.00000   90.00000   90.00000
LATT -1
SFAC C  
C      1  0.5975870000000  0.4427260000000  0.4839020000000 1.0
C      1  0.4376470000000  0.4427270000000  0.4234580000000 1.0
C      1  0.4652710000000  0.4427260000000  0.5921930000000 1.0
C      1  0.6007240000000  0.5540150000000  0.4877900000000 1.0
C      1  0.4394460000000  0.5540160000000  0.4187990000000 1.0
C      1  0.4603370000000  0.5540150000000  0.5929660000000 1.0
C      1  0.4530630000000  0.4120800000000  0.5217560000000 1.0
C      1  0.5426910000000  0.4120800000000  0.5296930000000 1.0
C      1  0.5047510000000  0.4120800000000  0.4481040000000 1.0
C      1  0.4519040000000  0.5890810000000  0.5178130000000 1.0
C      1  0.5398560000000  0.5890810000000  0.5326700000000 1.0
C      1  0.5087470000000  0.5890810000000  0.4490720000000 1.0
C      1  0.4977760000000  0.4309910000000  0.5513900000000 1.0
C      1  0.5459990000000  0.4309920000000  0.4761540000000 1.0
C      1  0.4567310000000  0.4309920000000  0.4720100000000 1.0
C      1  0.4942600000000  0.5695660000000  0.5526460000000 1.0
C      1  0.5488440000000  0.5695660000000  0.4785720000000 1.0
C      1  0.4574030000000  0.5695660000000  0.4683370000000 1.0
C      1  0.5000630000000  0.4694090000000  0.5346080000000 1.0
C      1  0.5303210000000  0.4694100000000  0.4825640000000 1.0
C      1  0.4701210000000  0.4694100000000  0.4823820000000 1.0
C      1  0.4985520000000  0.5314680000000  0.5355260000000 1.0
C      1  0.5318720000000  0.5314680000000  0.4834140000000 1.0
C      1  0.4700820000000  0.5314680000000  0.4806140000000 1.0
C      1  0.4362910000000  0.4468080000000  0.4527980000000 1.0
C      1  0.4913570000000  0.4468070000000  0.5786970000000 1.0
C      1  0.5728570000000  0.4468070000000  0.4680590000000 1.0
C      1  0.4374180000000  0.5525440000000  0.4488630000000 1.0
C      1  0.4873870000000  0.5525430000000  0.5796900000000 1.0
C      1  0.5757010000000  0.5525430000000  0.4710010000000 1.0
C      1  0.5355780000000  0.5347530000000  0.3932010000000 1.0
C      1  0.3901020000000  0.5347530000000  0.5225120000000 1.0
C      1  0.5748270000000  0.5347520000000  0.5838420000000 1.0
C      1  0.5321420000000  0.4694490000000  0.3930220000000 1.0
C      1  0.3916650000000  0.4694490000000  0.5255760000000 1.0
C      1  0.5766980000000  0.4694480000000  0.5809560000000 1.0
C      1  0.4915820000000  0.4201020000000  0.4203910000000 1.0
C      1  0.4356470000000  0.4201020000000  0.5470170000000 1.0
C      1  0.5732760000000  0.4201010000000  0.5321450000000 1.0
C      1  0.4970670000000  0.5803560000000  0.4208710000000 1.0
C      1  0.4333200000000  0.5803550000000  0.5420280000000 1.0
C      1  0.5701190000000  0.5803550000000  0.5366560000000 1.0
C      1  0.4088550000000  0.5559670000000  0.4583730000000 1.0
C      1  0.5099040000000  0.5559660000000  0.5996710000000 1.0
C      1  0.5817480000000  0.5559670000000  0.4415110000000 1.0
C      1  0.4079690000000  0.4441250000000  0.4629350000000 1.0
C      1  0.5142970000000  0.4441240000000  0.5981560000000 1.0
C      1  0.5782390000000  0.4441250000000  0.4384630000000 1.0
C      1  0.5316290000000  0.4548890000000  0.5581790000000 1.0
C      1  0.5349520000000  0.4548890000000  0.4434420000000 1.0
C      1  0.4339250000000  0.4548890000000  0.4979330000000 1.0
C      1  0.5294970000000  0.5475850000000  0.5588890000000 1.0
C      1  0.5366330000000  0.5475860000000  0.4449340000000 1.0
C      1  0.4343770000000  0.5475860000000  0.4957310000000 1.0
C      1  0.4413050000000  0.4582400000000  0.5858900000000 1.0
C      1  0.6041120000000  0.4582400000000  0.5078090000000 1.0
C      1  0.4550880000000  0.4582410000000  0.4058540000000 1.0
C      1  0.4356690000000  0.5425370000000  0.5819450000000 1.0
C      1  0.6035140000000  0.5425360000000  0.5146630000000 1.0
C      1  0.4613240000000  0.5425370000000  0.4029460000000 1.0
C      1  0.5389030000000  0.4545490000000  0.5290920000000 1.0
C      1  0.5061250000000  0.4545490000000  0.4516860000000 1.0
C      1  0.4554780000000  0.4545490000000  0.5187750000000 1.0
C      1  0.5377350000000  0.5451790000000  0.5297570000000 1.0
C      1  0.5072840000000  0.5451790000000  0.4523650000000 1.0
C      1  0.4554870000000  0.5451790000000  0.5174330000000 1.0
C      1  0.5670510000000  0.4852290000000  0.5030870000000 1.0
C      1  0.4695290000000  0.4852290000000  0.4403110000000 1.0
C      1  0.4639250000000  0.4852290000000  0.5561560000000 1.0
C      1  0.5676700000000  0.5144990000000  0.5041670000000 1.0
C      1  0.4701550000000  0.5145000000000  0.4392350000000 1.0
C      1  0.4626800000000  0.5144990000000  0.5561520000000 1.0
C      1  0.5420570000000  0.4760110000000  0.4208060000000 1.0
C      1  0.4107690000000  0.4760120000000  0.5030980000000 1.0
C      1  0.5476800000000  0.4760110000000  0.5756500000000 1.0
C      1  0.5438740000000  0.5273370000000  0.4212620000000 1.0
C      1  0.4102560000000  0.5273380000000  0.5012960000000 1.0
C      1  0.5463770000000  0.5273370000000  0.5769960000000 1.0
C      1  0.5568860000000  0.5669430000000  0.4262840000000 1.0
C      1  0.4080990000000  0.5669430000000  0.4875170000000 1.0
C      1  0.5355210000000  0.5669420000000  0.5857540000000 1.0
C      1  0.5525660000000  0.4349430000000  0.4234470000000 1.0
C      1  0.4078020000000  0.4349430000000  0.4926760000000 1.0
C      1  0.5401380000000  0.4349420000000  0.5834310000000 1.0
C      1  0.4437200000000  0.4891970000000  0.5927600000000 1.0
C      1  0.6088550000000  0.4891970000000  0.5022830000000 1.0
C      1  0.4479310000000  0.4891980000000  0.4045110000000 1.0
C      1  0.4260540000000  0.5141770000000  0.5900550000000 1.0
C      1  0.6153450000000  0.5141760000000  0.5189350000000 1.0
C      1  0.4591070000000  0.5141770000000  0.3905640000000 1.0
C      1  0.4813410000000  0.4043800000000  0.5225720000000 1.0
C      1  0.5292590000000  0.4043800000000  0.5047960000000 1.0
C      1  0.4899050000000  0.4043810000000  0.4721860000000 1.0
C      1  0.4801040000000  0.5962500000000  0.5202590000000 1.0
C      1  0.5278750000000  0.5962500000000  0.5070250000000 1.0
C      1  0.4925280000000  0.5962500000000  0.4722710000000 1.0
C      1  0.5393610000000  0.5168500000000  0.3701930000000 1.0
C      1  0.3682850000000  0.5168500000000  0.5307390000000 1.0
C      1  0.5928610000000  0.5168490000000  0.5986220000000 1.0
C      1  0.5336280000000  0.4875710000000  0.3696900000000 1.0
C      1  0.3707160000000  0.4875710000000  0.5359550000000 1.0
C      1  0.5961620000000  0.4875700000000  0.5939090000000 1.0
C      1  0.5375100000000  0.5877790000000  0.4570830000000 1.0
C      1  0.4444590000000  0.5877800000000  0.4888980000000 1.0
C      1  0.5185370000000  0.5877790000000  0.5535750000000 1.0
C      1  0.5337220000000  0.4138040000000  0.4543550000000 1.0
C      1  0.4439910000000  0.4138040000000  0.4935410000000 1.0
C      1  0.5227930000000  0.4138030000000  0.5516570000000 1.0
C      1  0.3932720000000  0.5312950000000  0.4553950000000 1.0
C      1  0.5151170000000  0.5312940000000  0.6146550000000 1.0
C      1  0.5921170000000  0.5312950000000  0.4295040000000 1.0
C      1  0.3923230000000  0.4685190000000  0.4583150000000 1.0
C      1  0.5181200000000  0.4685180000000  0.6140160000000 1.0
C      1  0.5900630000000  0.4685190000000  0.4272220000000 1.0
C      1  0.4884900000000  0.5516050000000  0.4118230000000 1.0
C      1  0.4297740000000  0.5516050000000  0.5539800000000 1.0
C      1  0.5822430000000  0.5516040000000  0.5337510000000 1.0
C      1  0.4836100000000  0.4490550000000  0.4110880000000 1.0
C      1  0.4315760000000  0.4490540000000  0.5585730000000 1.0
C      1  0.5853190000000  0.4490540000000  0.5298930000000 1.0
C      1  0.4850750000000  0.5546660000000  0.5211810000000 1.0
C      1  0.5261870000000  0.5546660000000  0.5022590000000 1.0
C      1  0.4892440000000  0.5546660000000  0.4761150000000 1.0
C      1  0.4861610000000  0.4459470000000  0.5206710000000 1.0
C      1  0.5252030000000  0.4459470000000  0.5015720000000 1.0
C      1  0.4891420000000  0.4459470000000  0.4773100000000 1.0
C      1  0.5626420000000  0.5310730000000  0.5276880000000 1.0
C      1  0.4930390000000  0.5310740000000  0.4318300000000 1.0
C      1  0.4448250000000  0.5310740000000  0.5400370000000 1.0
C      1  0.5640620000000  0.4678780000000  0.5257820000000 1.0
C      1  0.4906790000000  0.4678790000000  0.4315520000000 1.0
C      1  0.4457650000000  0.4678790000000  0.5422190000000 1.0
C      1  0.3977830000000  0.4868680000000  0.4797550000000 1.0
C      1  0.5339570000000  0.4868670000000  0.5985680000000 1.0
C      1  0.5687650000000  0.4868680000000  0.4212310000000 1.0
C      1  0.3976530000000  0.5148530000000  0.4785620000000 1.0
C      1  0.5329900000000  0.5148520000000  0.5992770000000 1.0
C      1  0.5698640000000  0.5148530000000  0.4217150000000 1.0
C      1  0.3868500000000  0.4421050000000  0.5130650000000 1.0
C      1  0.5682720000000  0.4421040000000  0.5913810000000 1.0
C      1  0.5453840000000  0.4421050000000  0.3951070000000 1.0
C      1  0.3864750000000  0.5613610000000  0.5076680000000 1.0
C      1  0.5637850000000  0.5613600000000  0.5944050000000 1.0
C      1  0.5502470000000  0.5613610000000  0.3974820000000 1.0
C      1  0.4502170000000  0.5255150000000  0.4591220000000 1.0
C      1  0.4898720000000  0.5255140000000  0.5634760000000 1.0
C      1  0.5604170000000  0.5255140000000  0.4769570000000 1.0
C      1  0.4497040000000  0.4747530000000  0.4609390000000 1.0
C      1  0.4917010000000  0.4747520000000  0.5630110000000 1.0
C      1  0.5591000000000  0.4747520000000  0.4756040000000 1.0
C      1  0.5026680000000  0.5004500000000  0.5740740000000 1.0
C      1  0.5631980000000  0.5004500000000  0.4605750000000 1.0
C      1  0.4346400000000  0.5004500000000  0.4649050000000 1.0
C      1  0.5001690000000  0.5795100000000  0.4998520000000 1.0
C      1  0.5001680000000  0.4199560000000  0.4998510000000 1.0
END
