TITL C-862506-1665-438 -1.74641972174935e-06 125000 -307.549602382439 0 0 64 (C2) n - 1
REM
REM in /home/nfs/bkarasulu/CARBON/AIRSS/Generating-Clusters/TERSOFF/Higher-Symm/FIRE-HFTN
REM
REM
REM
REM
REM
REM ./C.cell (b20cbc046b6831c77cfcea5457e17084)
REM AIRSS Version 0.9.1 bugfix July 2018 build 013d7b7c2542+ Fri, 06 Jul 2018 19:26:36 +0100
REM compiler GCC version 9.2.1 20190827 (Red Hat 9.2.1-1)
REM options -cpp -mtune=generic -march=x86-64 -g -O0 -fpre-include=/usr/include/finclude/math-vector-fortran.h
REM seed -482117226 136175128 -394785548 -53708502 -1125910242 1199011428 -1347411217 -648909802 1989385239 280006658 577941420 1054044029 58855507 81946389 -1679455396 990105443 1598088553 1851352961 431308099 1304014437 74060428 681978145 1224488193 130413001 -1371737348 1133261786 1509642209 1381296114 -1487473751 -1155520994 2010208815 750609546 131068658
REM
CELL 1.54180   50.00000   50.00000   50.00000   90.00000   90.00000   90.00000
LATT -1
SFAC C  
C      1  0.4998650000000  0.4830890000000  0.4632410000000 1.0
C      1  0.5322920000000  0.4889380000000  0.4887060000000 1.0
C      1  0.5208590000000  0.4839990000000  0.5284530000000 1.0
C      1  0.4793250000000  0.4859850000000  0.5281010000000 1.0
C      1  0.4670160000000  0.4879470000000  0.4883420000000 1.0
C      1  0.4998540000000  0.5135430000000  0.4651870000000 1.0
C      1  0.4655590000000  0.5183170000000  0.4883380000000 1.0
C      1  0.4787080000000  0.5162290000000  0.5277310000000 1.0
C      1  0.5203300000000  0.5143720000000  0.5271720000000 1.0
C      1  0.5340640000000  0.5193990000000  0.4882000000000 1.0
C      1  0.4995190000000  0.5500460000000  0.5543290000000 1.0
C      1  0.4468890000000  0.5498340000000  0.5161420000000 1.0
C      1  0.4670030000000  0.5498080000000  0.4548780000000 1.0
C      1  0.5323320000000  0.5502730000000  0.4548910000000 1.0
C      1  0.5522570000000  0.5504810000000  0.5160050000000 1.0
C      1  0.5002470000000  0.4523410000000  0.5546800000000 1.0
C      1  0.5523210000000  0.4526260000000  0.5166520000000 1.0
C      1  0.5321600000000  0.4523240000000  0.4545100000000 1.0
C      1  0.4678810000000  0.4519570000000  0.4544040000000 1.0
C      1  0.4476900000000  0.4521290000000  0.5163920000000 1.0
C      1  0.4225940000000  0.5005620000000  0.5087330000000 1.0
C      1  0.4670100000000  0.5012100000000  0.4288270000000 1.0
C      1  0.5566940000000  0.5011760000000  0.4462750000000 1.0
C      1  0.5679480000000  0.5016910000000  0.5370060000000 1.0
C      1  0.4850250000000  0.5012730000000  0.5757280000000 1.0
C      1  0.5769780000000  0.5013130000000  0.5087760000000 1.0
C      1  0.5327200000000  0.5015110000000  0.4288470000000 1.0
C      1  0.4429430000000  0.5007130000000  0.4461220000000 1.0
C      1  0.4316840000000  0.5007930000000  0.5369460000000 1.0
C      1  0.5146660000000  0.5015780000000  0.5756740000000 1.0
C      1  0.4785850000000  0.5599600000000  0.5280320000000 1.0
C      1  0.4655530000000  0.5603020000000  0.4882140000000 1.0
C      1  0.4996290000000  0.5599290000000  0.4638340000000 1.0
C      1  0.5337050000000  0.5613590000000  0.4881770000000 1.0
C      1  0.5204860000000  0.5601890000000  0.5279210000000 1.0
C      1  0.5210830000000  0.4420150000000  0.5282760000000 1.0
C      1  0.5337640000000  0.4425560000000  0.4883430000000 1.0
C      1  0.5001010000000  0.4411280000000  0.4634320000000 1.0
C      1  0.4663690000000  0.4421290000000  0.4882680000000 1.0
C      1  0.4791860000000  0.4422530000000  0.5281610000000 1.0
C      1  0.4821660000000  0.4751060000000  0.4346730000000 1.0
C      1  0.5526580000000  0.4760880000000  0.4638990000000 1.0
C      1  0.5520490000000  0.4756130000000  0.5409540000000 1.0
C      1  0.4772600000000  0.4754150000000  0.5607650000000 1.0
C      1  0.4358680000000  0.4754100000000  0.4966470000000 1.0
C      1  0.5171380000000  0.5265290000000  0.4382070000000 1.0
C      1  0.4440260000000  0.5267380000000  0.4625530000000 1.0
C      1  0.4482470000000  0.5266830000000  0.5398070000000 1.0
C      1  0.5220050000000  0.5268040000000  0.5594050000000 1.0
C      1  0.5666790000000  0.5274350000000  0.4962520000000 1.0
C      1  0.5633880000000  0.4762140000000  0.4969280000000 1.0
C      1  0.5233000000000  0.4755190000000  0.5617960000000 1.0
C      1  0.4487180000000  0.4752230000000  0.5400410000000 1.0
C      1  0.4466870000000  0.4753910000000  0.4634860000000 1.0
C      1  0.5177380000000  0.4752860000000  0.4346720000000 1.0
C      1  0.4330670000000  0.5266900000000  0.4963290000000 1.0
C      1  0.4767630000000  0.5268740000000  0.5605660000000 1.0
C      1  0.5502130000000  0.5269630000000  0.5388870000000 1.0
C      1  0.5557090000000  0.5273440000000  0.4624130000000 1.0
C      1  0.4824100000000  0.5263160000000  0.4381860000000 1.0
C      1  0.4995460000000  0.5626530000000  0.4992820000000 1.0
C      1  0.5000760000000  0.4397100000000  0.4993460000000 1.0
C      1  0.4996880000000  0.5268150000000  0.4994520000000 1.0
C      1  0.4997810000000  0.4755480000000  0.4993860000000 1.0
END
