TITL C-862503-991-134 71.8473684337373 125000 -1097.27056919936 0 0 191 (C1) n - 1
REM
REM in /home/nfs/bkarasulu/CARBON/AIRSS/Generating-Clusters/TERSOFF/Higher-Symm/FIRE-HFTN
REM
REM
REM
REM
REM
REM ./C.cell (b20cbc046b6831c77cfcea5457e17084)
REM AIRSS Version 0.9.1 bugfix July 2018 build 013d7b7c2542+ Fri, 06 Jul 2018 19:26:36 +0100
REM compiler GCC version 9.2.1 20190827 (Red Hat 9.2.1-1)
REM options -cpp -mtune=generic -march=x86-64 -g -O0 -fpre-include=/usr/include/finclude/math-vector-fortran.h
REM seed -1890060861 -94192470 -203812492 2048193214 2078032934 -129262956 -613636085 1212074212 -300171187 1307903906 453412713 1955269416 57400926 1234503162 -880935215 1754825867 1271474554 -1308105239 165697903 986437713 1787221655 -427454817 473122054 228386613 -934636511 -1672658836 814273129 640561409 1131909572 -304901336 177907106 -1449514645 -145654471
REM
CELL 1.54180   50.00000   50.00000   50.00000   90.00000   90.00000   90.00000
LATT -1
SFAC C  
C      1  0.5173420000000  0.6414540000000  0.5320980000000 1.0
C      1  0.4081180000000  0.5250320000000  0.5600500000000 1.0
C      1  0.5166800000000  0.5240610000000  0.6145500000000 1.0
C      1  0.5474020000000  0.5015350000000  0.4921220000000 1.0
C      1  0.5443720000000  0.5194330000000  0.4418730000000 1.0
C      1  0.5119520000000  0.5564410000000  0.5450940000000 1.0
C      1  0.4697940000000  0.4667530000000  0.4606630000000 1.0
C      1  0.5498780000000  0.5478540000000  0.4720910000000 1.0
C      1  0.5589880000000  0.5451440000000  0.5388070000000 1.0
C      1  0.4650300000000  0.5564490000000  0.5422340000000 1.0
C      1  0.5210910000000  0.5094650000000  0.5282260000000 1.0
C      1  0.4465800000000  0.4801980000000  0.5197060000000 1.0
C      1  0.6162670000000  0.5149040000000  0.5014010000000 1.0
C      1  0.3990280000000  0.5466080000000  0.5780490000000 1.0
C      1  0.5053750000000  0.5294730000000  0.4948390000000 1.0
C      1  0.4368820000000  0.4426920000000  0.5855660000000 1.0
C      1  0.5586130000000  0.5760360000000  0.5680010000000 1.0
C      1  0.4777610000000  0.4631410000000  0.4053030000000 1.0
C      1  0.4838190000000  0.4000160000000  0.4881630000000 1.0
C      1  0.5233450000000  0.5192760000000  0.3993790000000 1.0
C      1  0.4594610000000  0.4423870000000  0.5396770000000 1.0
C      1  0.5149140000000  0.5034440000000  0.5692150000000 1.0
C      1  0.4928480000000  0.3888620000000  0.4631510000000 1.0
C      1  0.4658010000000  0.4664290000000  0.5607850000000 1.0
C      1  0.5191030000000  0.4895050000000  0.4570170000000 1.0
C      1  0.3816880000000  0.4796760000000  0.5057050000000 1.0
C      1  0.4290010000000  0.5850180000000  0.5658970000000 1.0
C      1  0.5454640000000  0.4019920000000  0.4891310000000 1.0
C      1  0.5160540000000  0.4838250000000  0.4300380000000 1.0
C      1  0.4749040000000  0.5786100000000  0.5251570000000 1.0
C      1  0.5312340000000  0.5685340000000  0.4785750000000 1.0
C      1  0.5379630000000  0.3833420000000  0.5138450000000 1.0
C      1  0.5131360000000  0.5819240000000  0.5922540000000 1.0
C      1  0.5644720000000  0.5763450000000  0.5362400000000 1.0
C      1  0.4188640000000  0.4184070000000  0.4726770000000 1.0
C      1  0.5510140000000  0.4613790000000  0.4612410000000 1.0
C      1  0.4857490000000  0.5046700000000  0.4915780000000 1.0
C      1  0.4770810000000  0.5108440000000  0.4035260000000 1.0
C      1  0.4582330000000  0.4216340000000  0.5855220000000 1.0
C      1  0.4266190000000  0.5401930000000  0.4392210000000 1.0
C      1  0.4912880000000  0.5214360000000  0.5724650000000 1.0
C      1  0.5262630000000  0.4448110000000  0.4657300000000 1.0
C      1  0.4707750000000  0.3845610000000  0.5085650000000 1.0
C      1  0.3661760000000  0.5302560000000  0.5216260000000 1.0
C      1  0.5745640000000  0.5296490000000  0.5598150000000 1.0
C      1  0.4641660000000  0.5093760000000  0.6136400000000 1.0
C      1  0.4315820000000  0.4427620000000  0.4264460000000 1.0
C      1  0.4094530000000  0.4385780000000  0.5146920000000 1.0
C      1  0.3643100000000  0.5243380000000  0.4907940000000 1.0
C      1  0.4689420000000  0.5946410000000  0.4488020000000 1.0
C      1  0.4955110000000  0.5447120000000  0.4383530000000 1.0
C      1  0.4643830000000  0.5125370000000  0.5819080000000 1.0
C      1  0.5542120000000  0.4895660000000  0.5612510000000 1.0
C      1  0.4320430000000  0.5358970000000  0.5010590000000 1.0
C      1  0.4529290000000  0.4809270000000  0.6083610000000 1.0
C      1  0.4470680000000  0.3989200000000  0.5201070000000 1.0
C      1  0.5155970000000  0.3644010000000  0.5112990000000 1.0
C      1  0.4456180000000  0.5533510000000  0.4581600000000 1.0
C      1  0.4030400000000  0.5750170000000  0.5731090000000 1.0
C      1  0.5309760000000  0.5378000000000  0.5334770000000 1.0
C      1  0.4707400000000  0.5271420000000  0.5362890000000 1.0
C      1  0.4521610000000  0.5375290000000  0.6133290000000 1.0
C      1  0.5411730000000  0.4548460000000  0.5175640000000 1.0
C      1  0.5702720000000  0.4212660000000  0.4191890000000 1.0
C      1  0.5997900000000  0.4513570000000  0.5438650000000 1.0
C      1  0.4374710000000  0.5083640000000  0.5635450000000 1.0
C      1  0.4211870000000  0.4713640000000  0.4782710000000 1.0
C      1  0.5743050000000  0.4517150000000  0.4747600000000 1.0
C      1  0.4797600000000  0.4217500000000  0.4120550000000 1.0
C      1  0.5743510000000  0.4935260000000  0.5385430000000 1.0
C      1  0.4790840000000  0.6230950000000  0.5111740000000 1.0
C      1  0.5011560000000  0.5014270000000  0.3897170000000 1.0
C      1  0.4526100000000  0.5392570000000  0.4818200000000 1.0
C      1  0.4397590000000  0.5459470000000  0.5882610000000 1.0
C      1  0.5399360000000  0.4868500000000  0.5154460000000 1.0
C      1  0.6165550000000  0.4541740000000  0.4822000000000 1.0
C      1  0.5770270000000  0.4052400000000  0.4716370000000 1.0
C      1  0.5183600000000  0.6148000000000  0.4797010000000 1.0
C      1  0.3891520000000  0.5168780000000  0.5377700000000 1.0
C      1  0.4631700000000  0.5602180000000  0.4018140000000 1.0
C      1  0.5624790000000  0.4158450000000  0.5450980000000 1.0
C      1  0.5846010000000  0.5534310000000  0.4949370000000 1.0
C      1  0.6136360000000  0.4789760000000  0.5383530000000 1.0
C      1  0.5409640000000  0.5876810000000  0.4313290000000 1.0
C      1  0.5427130000000  0.5942920000000  0.4860930000000 1.0
C      1  0.4008730000000  0.4598330000000  0.4967270000000 1.0
C      1  0.6044670000000  0.4769160000000  0.4599910000000 1.0
C      1  0.5229360000000  0.4435050000000  0.5606610000000 1.0
C      1  0.5257320000000  0.4436140000000  0.3938020000000 1.0
C      1  0.5160870000000  0.3951150000000  0.5606630000000 1.0
C      1  0.4993190000000  0.4742320000000  0.6022510000000 1.0
C      1  0.5662730000000  0.5320620000000  0.4218950000000 1.0
C      1  0.4855810000000  0.5782160000000  0.4970720000000 1.0
C      1  0.5434080000000  0.5438380000000  0.4013470000000 1.0
C      1  0.5385450000000  0.3967840000000  0.4571730000000 1.0
C      1  0.4883110000000  0.5889840000000  0.5782310000000 1.0
C      1  0.5046740000000  0.5591660000000  0.4875770000000 1.0
C      1  0.5063480000000  0.6314280000000  0.5571970000000 1.0
C      1  0.3858040000000  0.4858000000000  0.4608930000000 1.0
C      1  0.4840210000000  0.4764280000000  0.5383120000000 1.0
C      1  0.4517200000000  0.4509800000000  0.5098390000000 1.0
C      1  0.4351010000000  0.4943600000000  0.4186520000000 1.0
C      1  0.5026100000000  0.4610880000000  0.4239830000000 1.0
C      1  0.5409680000000  0.3943700000000  0.5427070000000 1.0
C      1  0.5531340000000  0.4453470000000  0.4108360000000 1.0
C      1  0.4066600000000  0.4410960000000  0.5437200000000 1.0
C      1  0.4582480000000  0.5033190000000  0.5041250000000 1.0
C      1  0.4756290000000  0.5367400000000  0.4171680000000 1.0
C      1  0.4869410000000  0.4254430000000  0.5924600000000 1.0
C      1  0.5100740000000  0.4211330000000  0.5738630000000 1.0
C      1  0.6245400000000  0.5344510000000  0.4766350000000 1.0
C      1  0.5658610000000  0.6004010000000  0.4686060000000 1.0
C      1  0.5340950000000  0.5635960000000  0.5819750000000 1.0
C      1  0.4143040000000  0.4981140000000  0.4666100000000 1.0
C      1  0.5341430000000  0.5337820000000  0.5909270000000 1.0
C      1  0.5497900000000  0.4918010000000  0.4641170000000 1.0
C      1  0.3877040000000  0.4570170000000  0.4517410000000 1.0
C      1  0.4109530000000  0.5174090000000  0.4925500000000 1.0
C      1  0.5816190000000  0.4857710000000  0.5106780000000 1.0
C      1  0.4854430000000  0.6112850000000  0.5591580000000 1.0
C      1  0.4245080000000  0.5588220000000  0.5176020000000 1.0
C      1  0.5066520000000  0.4356300000000  0.4428990000000 1.0
C      1  0.5283820000000  0.4271780000000  0.4886850000000 1.0
C      1  0.4134530000000  0.4405350000000  0.4508860000000 1.0
C      1  0.3901780000000  0.5349630000000  0.4783880000000 1.0
C      1  0.5796380000000  0.4588150000000  0.5014130000000 1.0
C      1  0.4463550000000  0.5818260000000  0.4606510000000 1.0
C      1  0.4288810000000  0.5870020000000  0.5102610000000 1.0
C      1  0.5301330000000  0.5702900000000  0.4082190000000 1.0
C      1  0.5945350000000  0.4321000000000  0.4632210000000 1.0
C      1  0.5357880000000  0.5265990000000  0.4892710000000 1.0
C      1  0.5121330000000  0.4037000000000  0.4469680000000 1.0
C      1  0.5182120000000  0.5956130000000  0.4492330000000 1.0
C      1  0.5197080000000  0.4790710000000  0.5827430000000 1.0
C      1  0.4320350000000  0.4222070000000  0.5020930000000 1.0
C      1  0.5045610000000  0.4708050000000  0.3832480000000 1.0
C      1  0.4477190000000  0.4671260000000  0.4172810000000 1.0
C      1  0.4286850000000  0.5094620000000  0.4436770000000 1.0
C      1  0.4712940000000  0.4378890000000  0.4391380000000 1.0
C      1  0.4502020000000  0.5648700000000  0.5673580000000 1.0
C      1  0.3977090000000  0.5442160000000  0.4506210000000 1.0
C      1  0.5554090000000  0.5158610000000  0.5787620000000 1.0
C      1  0.4971270000000  0.5491550000000  0.5682360000000 1.0
C      1  0.5875690000000  0.5199850000000  0.4396050000000 1.0
C      1  0.5463450000000  0.4605420000000  0.5733250000000 1.0
C      1  0.4951090000000  0.4807430000000  0.4751010000000 1.0
C      1  0.4586830000000  0.4263230000000  0.4621900000000 1.0
C      1  0.5676640000000  0.5844340000000  0.4438820000000 1.0
C      1  0.5952680000000  0.4306590000000  0.4334010000000 1.0
C      1  0.4252030000000  0.4557600000000  0.5610990000000 1.0
C      1  0.4537320000000  0.4142370000000  0.5445020000000 1.0
C      1  0.6164730000000  0.5267010000000  0.5302680000000 1.0
C      1  0.4479520000000  0.4627850000000  0.4811550000000 1.0
C      1  0.5077620000000  0.4199070000000  0.4008880000000 1.0
C      1  0.4939520000000  0.3775300000000  0.5528220000000 1.0
C      1  0.4357510000000  0.5149960000000  0.3973210000000 1.0
C      1  0.4692900000000  0.6071740000000  0.5344580000000 1.0
C      1  0.4298540000000  0.5951020000000  0.4814970000000 1.0
C      1  0.6032120000000  0.5561390000000  0.4691310000000 1.0
C      1  0.4956750000000  0.5742730000000  0.4085700000000 1.0
C      1  0.5637350000000  0.3996000000000  0.4405470000000 1.0
C      1  0.4937970000000  0.5807220000000  0.4408080000000 1.0
C      1  0.5896580000000  0.5670530000000  0.5202880000000 1.0
C      1  0.5784240000000  0.5094400000000  0.4649940000000 1.0
C      1  0.4397080000000  0.6051140000000  0.5307230000000 1.0
C      1  0.5650800000000  0.4703160000000  0.4226890000000 1.0
C      1  0.5479950000000  0.5970730000000  0.5180550000000 1.0
C      1  0.4755630000000  0.4271360000000  0.4849230000000 1.0
C      1  0.4898960000000  0.3692410000000  0.5250150000000 1.0
C      1  0.4906630000000  0.4526310000000  0.4942590000000 1.0
C      1  0.5725710000000  0.4412360000000  0.5607430000000 1.0
C      1  0.6146660000000  0.4828070000000  0.5045130000000 1.0
C      1  0.6006590000000  0.5093330000000  0.5497360000000 1.0
C      1  0.5191270000000  0.4467180000000  0.5328020000000 1.0
C      1  0.3989080000000  0.5016530000000  0.5152100000000 1.0
C      1  0.4949480000000  0.5023380000000  0.6150620000000 1.0
C      1  0.5569300000000  0.4286900000000  0.5194460000000 1.0
C      1  0.6123740000000  0.5552610000000  0.5335050000000 1.0
C      1  0.5939820000000  0.4725920000000  0.4318860000000 1.0
C      1  0.3657590000000  0.4936330000000  0.4834650000000 1.0
C      1  0.5310640000000  0.6250310000000  0.5120820000000 1.0
C      1  0.4398410000000  0.4817330000000  0.5500380000000 1.0
C      1  0.5747980000000  0.5571690000000  0.4543140000000 1.0
C      1  0.5183170000000  0.5256840000000  0.4296920000000 1.0
C      1  0.4918800000000  0.5042860000000  0.5341330000000 1.0
C      1  0.4954210000000  0.4557870000000  0.5226280000000 1.0
C      1  0.5869880000000  0.5223520000000  0.4909150000000 1.0
C      1  0.4351910000000  0.5434710000000  0.4081680000000 1.0
C      1  0.4906890000000  0.6071940000000  0.4898560000000 1.0
C      1  0.6016200000000  0.4413720000000  0.5133550000000 1.0
C      1  0.4718160000000  0.4653910000000  0.5908540000000 1.0
END
