TITL C-862127-1500-907 -0.0723482737259175 125000 -798.24965579936 0 0 140 (C1) n - 1
REM
REM in /home/nfs/bkarasulu/CARBON/AIRSS/Generating-Clusters/TERSOFF/Higher-Symm/FIRE-HFTN
REM
REM
REM
REM
REM
REM ./C.cell (b20cbc046b6831c77cfcea5457e17084)
REM AIRSS Version 0.9.1 bugfix July 2018 build 013d7b7c2542+ Fri, 06 Jul 2018 19:26:36 +0100
REM compiler GCC version 9.2.1 20190827 (Red Hat 9.2.1-1)
REM options -cpp -mtune=generic -march=x86-64 -g -O0 -fpre-include=/usr/include/finclude/math-vector-fortran.h
REM seed 1444404197 -530331490 774393511 782565787 -1291680918 387615466 -1424149327 -1169456047 458604276 -1925216212 -713215416 -2051210309 1783296402 -620737311 -1393515179 562466958 -1478314815 -283678130 -1752366903 -1671976353 845566819 -1507233861 494606463 -488919948 1326745516 32853376 -2074236807 -756786559 -1955636658 -93764970 1715862200 -856347040 1243606248
REM
CELL 1.54180   50.00000   50.00000   50.00000   90.00000   90.00000   90.00000
LATT -1
SFAC C  
C      1  0.4675960000000  0.5165090000000  0.4111270000000 1.0
C      1  0.4927390000000  0.5356070000000  0.4104980000000 1.0
C      1  0.5234710000000  0.5279070000000  0.4107590000000 1.0
C      1  0.5365660000000  0.4990010000000  0.4117330000000 1.0
C      1  0.5221370000000  0.4708910000000  0.4126590000000 1.0
C      1  0.4911730000000  0.4645020000000  0.4128380000000 1.0
C      1  0.4668230000000  0.4848720000000  0.4121050000000 1.0
C      1  0.5755330000000  0.4403170000000  0.4964990000000 1.0
C      1  0.5001370000000  0.4040080000000  0.4962560000000 1.0
C      1  0.4228470000000  0.4400290000000  0.4946060000000 1.0
C      1  0.4078430000000  0.5205320000000  0.4970430000000 1.0
C      1  0.4584230000000  0.5840060000000  0.4977120000000 1.0
C      1  0.5406150000000  0.5876340000000  0.4954640000000 1.0
C      1  0.5962670000000  0.5243570000000  0.4939970000000 1.0
C      1  0.5580790000000  0.4539770000000  0.5171650000000 1.0
C      1  0.4964330000000  0.4249760000000  0.5173740000000 1.0
C      1  0.4379190000000  0.4545480000000  0.5164230000000 1.0
C      1  0.4294650000000  0.5172810000000  0.5178410000000 1.0
C      1  0.4707110000000  0.5654850000000  0.5180240000000 1.0
C      1  0.5346160000000  0.5669020000000  0.5162520000000 1.0
C      1  0.5763630000000  0.5173480000000  0.5151860000000 1.0
C      1  0.5312070000000  0.6121550000000  0.5082860000000 1.0
C      1  0.6096280000000  0.5475840000000  0.5057470000000 1.0
C      1  0.6021640000000  0.4435080000000  0.5084380000000 1.0
C      1  0.5187160000000  0.3851590000000  0.5084070000000 1.0
C      1  0.4195380000000  0.4133450000000  0.5064660000000 1.0
C      1  0.3839980000000  0.5081840000000  0.5082450000000 1.0
C      1  0.4339120000000  0.5934130000000  0.5102570000000 1.0
C      1  0.5465680000000  0.5715360000000  0.5440800000000 1.0
C      1  0.5858450000000  0.5096860000000  0.5432090000000 1.0
C      1  0.5561600000000  0.4407260000000  0.5465900000000 1.0
C      1  0.4852930000000  0.4148380000000  0.5437110000000 1.0
C      1  0.4242840000000  0.4561520000000  0.5432810000000 1.0
C      1  0.4226140000000  0.5273650000000  0.5459600000000 1.0
C      1  0.4734850000000  0.5770930000000  0.5463450000000 1.0
C      1  0.5611540000000  0.5177910000000  0.5659350000000 1.0
C      1  0.5430280000000  0.4699140000000  0.5568970000000 1.0
C      1  0.4954510000000  0.4339900000000  0.5689040000000 1.0
C      1  0.4494730000000  0.4601520000000  0.5649310000000 1.0
C      1  0.4451850000000  0.5087350000000  0.5608620000000 1.0
C      1  0.4735870000000  0.5471650000000  0.5603870000000 1.0
C      1  0.5235570000000  0.5544570000000  0.5621460000000 1.0
C      1  0.5160760000000  0.5359790000000  0.5864980000000 1.0
C      1  0.5359430000000  0.5096430000000  0.5849810000000 1.0
C      1  0.5268340000000  0.4767780000000  0.5822970000000 1.0
C      1  0.4967780000000  0.4617760000000  0.5865650000000 1.0
C      1  0.4672960000000  0.4770620000000  0.5862280000000 1.0
C      1  0.4596390000000  0.5112050000000  0.5885810000000 1.0
C      1  0.4818650000000  0.5374710000000  0.5886630000000 1.0
C      1  0.4806280000000  0.5797450000000  0.4466250000000 1.0
C      1  0.5505700000000  0.5652480000000  0.4452420000000 1.0
C      1  0.5827620000000  0.5006010000000  0.4453770000000 1.0
C      1  0.5511600000000  0.4365170000000  0.4473620000000 1.0
C      1  0.4821140000000  0.4206950000000  0.4473310000000 1.0
C      1  0.4259090000000  0.4644890000000  0.4464560000000 1.0
C      1  0.4257950000000  0.5351360000000  0.4472140000000 1.0
C      1  0.5021680000000  0.4436580000000  0.4762070000000 1.0
C      1  0.4571800000000  0.4625780000000  0.4744190000000 1.0
C      1  0.4451040000000  0.5097510000000  0.4745280000000 1.0
C      1  0.4740340000000  0.5491190000000  0.4745720000000 1.0
C      1  0.5229290000000  0.5520560000000  0.4739430000000 1.0
C      1  0.5555790000000  0.5154540000000  0.4736940000000 1.0
C      1  0.5454480000000  0.4669320000000  0.4757450000000 1.0
C      1  0.5674520000000  0.4985750000000  0.4183260000000 1.0
C      1  0.5412250000000  0.4469650000000  0.4198790000000 1.0
C      1  0.4843840000000  0.4347210000000  0.4198460000000 1.0
C      1  0.4388320000000  0.4720180000000  0.4191220000000 1.0
C      1  0.4399520000000  0.5301320000000  0.4195130000000 1.0
C      1  0.4855650000000  0.5655530000000  0.4189100000000 1.0
C      1  0.5424400000000  0.5522340000000  0.4179630000000 1.0
C      1  0.4158220000000  0.5121480000000  0.4674160000000 1.0
C      1  0.4564830000000  0.5729890000000  0.4678010000000 1.0
C      1  0.5301220000000  0.5807870000000  0.4661200000000 1.0
C      1  0.5828850000000  0.5271630000000  0.4650910000000 1.0
C      1  0.5710410000000  0.4523760000000  0.4671110000000 1.0
C      1  0.5069710000000  0.4149760000000  0.4673940000000 1.0
C      1  0.4367730000000  0.4416590000000  0.4661910000000 1.0
C      1  0.4901630000000  0.6036770000000  0.5407470000000 1.0
C      1  0.5774730000000  0.5734450000000  0.5389770000000 1.0
C      1  0.6043790000000  0.4855370000000  0.5398120000000 1.0
C      1  0.5521120000000  0.4097720000000  0.5406120000000 1.0
C      1  0.4588070000000  0.4006010000000  0.5389560000000 1.0
C      1  0.3964720000000  0.4680620000000  0.5389020000000 1.0
C      1  0.4126010000000  0.5567990000000  0.5412730000000 1.0
C      1  0.4443490000000  0.3988390000000  0.5116160000000 1.0
C      1  0.3861970000000  0.4794640000000  0.5120830000000 1.0
C      1  0.4141010000000  0.5725680000000  0.5143400000000 1.0
C      1  0.5025210000000  0.6127240000000  0.5132510000000 1.0
C      1  0.5916820000000  0.5699280000000  0.5112070000000 1.0
C      1  0.6100870000000  0.4712530000000  0.5128600000000 1.0
C      1  0.5450540000000  0.3964380000000  0.5132850000000 1.0
C      1  0.4586580000000  0.3966490000000  0.4854040000000 1.0
C      1  0.3925760000000  0.4675590000000  0.4851320000000 1.0
C      1  0.4080630000000  0.5613260000000  0.4870660000000 1.0
C      1  0.4895950000000  0.6097420000000  0.4863290000000 1.0
C      1  0.5799060000000  0.5774710000000  0.4846690000000 1.0
C      1  0.6092190000000  0.4850520000000  0.4862050000000 1.0
C      1  0.5555320000000  0.4047740000000  0.4865070000000 1.0
C      1  0.5231590000000  0.4458850000000  0.5213000000000 1.0
C      1  0.4687720000000  0.4432060000000  0.5175280000000 1.0
C      1  0.4421140000000  0.4869830000000  0.5172470000000 1.0
C      1  0.4568120000000  0.5355760000000  0.5178460000000 1.0
C      1  0.5027380000000  0.5588110000000  0.5174570000000 1.0
C      1  0.5507770000000  0.5382410000000  0.5167950000000 1.0
C      1  0.5648480000000  0.4866550000000  0.5150540000000 1.0
C      1  0.4723600000000  0.4745520000000  0.4523220000000 1.0
C      1  0.4625800000000  0.5057740000000  0.4512740000000 1.0
C      1  0.4813520000000  0.5331960000000  0.4506930000000 1.0
C      1  0.5145480000000  0.5351580000000  0.4510100000000 1.0
C      1  0.5362660000000  0.5105860000000  0.4519810000000 1.0
C      1  0.5305570000000  0.4783590000000  0.4530080000000 1.0
C      1  0.5023440000000  0.4627030000000  0.4531830000000 1.0
C      1  0.5018100000000  0.5941450000000  0.4624760000000 1.0
C      1  0.5751180000000  0.5577840000000  0.4611960000000 1.0
C      1  0.5909640000000  0.4767600000000  0.4626080000000 1.0
C      1  0.5380320000000  0.4144480000000  0.4630560000000 1.0
C      1  0.4562600000000  0.4169060000000  0.4623700000000 1.0
C      1  0.4073290000000  0.4824320000000  0.4622840000000 1.0
C      1  0.4281570000000  0.5605000000000  0.4634110000000 1.0
C      1  0.4776280000000  0.5232190000000  0.5385080000000 1.0
C      1  0.5083340000000  0.5367450000000  0.5393100000000 1.0
C      1  0.5379940000000  0.5215590000000  0.5404030000000 1.0
C      1  0.5464340000000  0.4915000000000  0.5367350000000 1.0
C      1  0.5047140000000  0.4570270000000  0.5456910000000 1.0
C      1  0.4734510000000  0.4612070000000  0.5418180000000 1.0
C      1  0.4635330000000  0.4925310000000  0.5394050000000 1.0
C      1  0.5247570000000  0.4515100000000  0.4912350000000 1.0
C      1  0.4763590000000  0.4491280000000  0.4894690000000 1.0
C      1  0.4473540000000  0.4859170000000  0.4886710000000 1.0
C      1  0.4576060000000  0.5318180000000  0.4889350000000 1.0
C      1  0.4993830000000  0.5542250000000  0.4886250000000 1.0
C      1  0.5433700000000  0.5360860000000  0.4881380000000 1.0
C      1  0.5557460000000  0.4899300000000  0.4881230000000 1.0
C      1  0.5001460000000  0.4997850000000  0.4337500000000 1.0
C      1  0.4996750000000  0.5009860000000  0.4699830000000 1.0
C      1  0.5085260000000  0.4992960000000  0.5204380000000 1.0
C      1  0.4962860000000  0.5027990000000  0.5700800000000 1.0
C      1  0.4982980000000  0.5009830000000  0.6013620000000 1.0
C      1  0.5020140000000  0.4865510000000  0.4953740000000 1.0
C      1  0.5060150000000  0.4871390000000  0.5470410000000 1.0
END
