TITL C-862506-1665-949 887.162041502199 125000 -667.850936081578 0 0 115 (D5) n - 1
REM
REM in /home/nfs/bkarasulu/CARBON/AIRSS/Generating-Clusters/TERSOFF/Higher-Symm/FIRE-HFTN
REM
REM
REM
REM
REM
REM ./C.cell (b20cbc046b6831c77cfcea5457e17084)
REM AIRSS Version 0.9.1 bugfix July 2018 build 013d7b7c2542+ Fri, 06 Jul 2018 19:26:36 +0100
REM compiler GCC version 9.2.1 20190827 (Red Hat 9.2.1-1)
REM options -cpp -mtune=generic -march=x86-64 -g -O0 -fpre-include=/usr/include/finclude/math-vector-fortran.h
REM seed 1396122554 -779972561 -855842267 -4924353 -1699163242 -256907397 -1995110532 -1899780279 2061571953 1532207139 -2040887414 1021359233 -2062669840 -1162033343 1947826381 -388450090 324641124 -1101494303 708406252 -1797283800 73462279 -1930278344 -1470165404 626897745 1509978580 -1129414056 -1067459989 85960222 331960415 -1024425280 180658626 1619332936 -912767709
REM
CELL 1.54180   50.00000   50.00000   50.00000   90.00000   90.00000   90.00000
LATT -1
SFAC C  
C      1  0.4990490000000  0.5250880000000  0.5565190000000 1.0
C      1  0.5235720000000  0.5086520000000  0.5565180000000 1.0
C      1  0.5155190000000  0.4802510000000  0.5565140000000 1.0
C      1  0.4860190000000  0.4791330000000  0.5565130000000 1.0
C      1  0.4758400000000  0.5068440000000  0.5565160000000 1.0
C      1  0.4990510000000  0.4749120000000  0.4445730000000 1.0
C      1  0.5235740000000  0.4913470000000  0.4445760000000 1.0
C      1  0.5155210000000  0.5197490000000  0.4445790000000 1.0
C      1  0.4860200000000  0.5208670000000  0.4445790000000 1.0
C      1  0.4758410000000  0.4931560000000  0.4445750000000 1.0
C      1  0.5143840000000  0.4483660000000  0.4102530000000 1.0
C      1  0.4553300000000  0.4703710000000  0.4102580000000 1.0
C      1  0.4580090000000  0.5333350000000  0.4102680000000 1.0
C      1  0.5187190000000  0.5502430000000  0.4102690000000 1.0
C      1  0.5535610000000  0.4977300000000  0.4102590000000 1.0
C      1  0.5143820000000  0.5516340000000  0.5908400000000 1.0
C      1  0.4553270000000  0.5296300000000  0.5908320000000 1.0
C      1  0.4580060000000  0.4666660000000  0.5908240000000 1.0
C      1  0.5187160000000  0.4497570000000  0.5908250000000 1.0
C      1  0.5535580000000  0.5022700000000  0.5908360000000 1.0
C      1  0.5714830000000  0.5237840000000  0.5981570000000 1.0
C      1  0.5447170000000  0.4393560000000  0.5981440000000 1.0
C      1  0.4561490000000  0.4387230000000  0.5981400000000 1.0
C      1  0.4281790000000  0.5227600000000  0.5981500000000 1.0
C      1  0.4994590000000  0.5753300000000  0.5981600000000 1.0
C      1  0.5714850000000  0.4762160000000  0.4029380000000 1.0
C      1  0.5447190000000  0.5606450000000  0.4029510000000 1.0
C      1  0.4561510000000  0.5612770000000  0.4029520000000 1.0
C      1  0.4281820000000  0.4772400000000  0.4029400000000 1.0
C      1  0.4994610000000  0.4246710000000  0.4029320000000 1.0
C      1  0.5618160000000  0.4957950000000  0.5265080000000 1.0
C      1  0.5151060000000  0.4399080000000  0.5265010000000 1.0
C      1  0.4475210000000  0.4670620000000  0.5265030000000 1.0
C      1  0.4524600000000  0.5397310000000  0.5265110000000 1.0
C      1  0.5230980000000  0.5574890000000  0.5265150000000 1.0
C      1  0.5618170000000  0.5042040000000  0.4745860000000 1.0
C      1  0.5151070000000  0.5600910000000  0.4745920000000 1.0
C      1  0.4475210000000  0.5329380000000  0.4745880000000 1.0
C      1  0.4524610000000  0.4602690000000  0.4745800000000 1.0
C      1  0.5230990000000  0.4425110000000  0.4745790000000 1.0
C      1  0.4877450000000  0.5678590000000  0.4628190000000 1.0
C      1  0.5607470000000  0.5326290000000  0.4628160000000 1.0
C      1  0.5498010000000  0.4523130000000  0.4628070000000 1.0
C      1  0.4700330000000  0.4379040000000  0.4628040000000 1.0
C      1  0.4316800000000  0.5093160000000  0.4628110000000 1.0
C      1  0.4877430000000  0.4321410000000  0.5382730000000 1.0
C      1  0.5607460000000  0.4673710000000  0.5382790000000 1.0
C      1  0.5498000000000  0.5476870000000  0.5382880000000 1.0
C      1  0.4700320000000  0.5620960000000  0.5382880000000 1.0
C      1  0.4316790000000  0.4906840000000  0.5382790000000 1.0
C      1  0.5089080000000  0.5239160000000  0.4033130000000 1.0
C      1  0.5254890000000  0.4989260000000  0.4033090000000 1.0
C      1  0.5068450000000  0.4754340000000  0.4033050000000 1.0
C      1  0.4787420000000  0.4859060000000  0.4033080000000 1.0
C      1  0.4800170000000  0.5158690000000  0.4033120000000 1.0
C      1  0.5089050000000  0.4760840000000  0.5977800000000 1.0
C      1  0.5254860000000  0.5010750000000  0.5977850000000 1.0
C      1  0.5068430000000  0.5245660000000  0.5977870000000 1.0
C      1  0.4787390000000  0.5140950000000  0.5977840000000 1.0
C      1  0.4800140000000  0.4841310000000  0.5977800000000 1.0
C      1  0.4522880000000  0.4866430000000  0.4600840000000 1.0
C      1  0.4725490000000  0.5412540000000  0.4600900000000 1.0
C      1  0.5307480000000  0.5388600000000  0.4600910000000 1.0
C      1  0.5464560000000  0.4827690000000  0.4600850000000 1.0
C      1  0.4979650000000  0.4504970000000  0.4600800000000 1.0
C      1  0.4522860000000  0.5133570000000  0.5410070000000 1.0
C      1  0.4725480000000  0.4587460000000  0.5410010000000 1.0
C      1  0.5307470000000  0.4611400000000  0.5410030000000 1.0
C      1  0.5464550000000  0.5172310000000  0.5410100000000 1.0
C      1  0.4979630000000  0.5495030000000  0.5410130000000 1.0
C      1  0.5530290000000  0.5590610000000  0.5658070000000 1.0
C      1  0.5725640000000  0.4678110000000  0.5657970000000 1.0
C      1  0.4918170000000  0.4210350000000  0.5657900000000 1.0
C      1  0.4223780000000  0.4833750000000  0.5657960000000 1.0
C      1  0.4602090000000  0.5686800000000  0.5658060000000 1.0
C      1  0.5530310000000  0.4409380000000  0.4352880000000 1.0
C      1  0.5725660000000  0.5321880000000  0.4352980000000 1.0
C      1  0.4918190000000  0.5789640000000  0.4353020000000 1.0
C      1  0.4223800000000  0.5166250000000  0.4352940000000 1.0
C      1  0.4602100000000  0.4313200000000  0.4352850000000 1.0
C      1  0.5647330000000  0.5752930000000  0.4952570000000 1.0
C      1  0.5916110000000  0.4617020000000  0.4952450000000 1.0
C      1  0.4918860000000  0.4010390000000  0.4952370000000 1.0
C      1  0.4033750000000  0.4771370000000  0.4952440000000 1.0
C      1  0.4483970000000  0.5848320000000  0.4952570000000 1.0
C      1  0.5647330000000  0.4247070000000  0.5058370000000 1.0
C      1  0.5916110000000  0.5382970000000  0.5058510000000 1.0
C      1  0.4918860000000  0.5989610000000  0.5058560000000 1.0
C      1  0.4033750000000  0.5228630000000  0.5058460000000 1.0
C      1  0.4483970000000  0.4151680000000  0.5058340000000 1.0
C      1  0.5769130000000  0.4497250000000  0.5210320000000 1.0
C      1  0.4759560000000  0.4113140000000  0.5210260000000 1.0
C      1  0.4082270000000  0.4954600000000  0.5210340000000 1.0
C      1  0.4673250000000  0.5858770000000  0.5210450000000 1.0
C      1  0.5715800000000  0.5576110000000  0.5210440000000 1.0
C      1  0.5769140000000  0.5502740000000  0.4800630000000 1.0
C      1  0.4759570000000  0.5886860000000  0.4800660000000 1.0
C      1  0.4082270000000  0.5045400000000  0.4800550000000 1.0
C      1  0.4673260000000  0.4141230000000  0.4800460000000 1.0
C      1  0.5715800000000  0.4423880000000  0.4800510000000 1.0
C      1  0.4708260000000  0.4172950000000  0.5853640000000 1.0
C      1  0.4123350000000  0.5021810000000  0.5853730000000 1.0
C      1  0.4749920000000  0.5840410000000  0.5853830000000 1.0
C      1  0.5722080000000  0.5497460000000  0.5853810000000 1.0
C      1  0.5696320000000  0.4466910000000  0.5853700000000 1.0
C      1  0.4708280000000  0.5827050000000  0.4157270000000 1.0
C      1  0.4123370000000  0.4978190000000  0.4157170000000 1.0
C      1  0.4749940000000  0.4159590000000  0.4157090000000 1.0
C      1  0.5722110000000  0.4502540000000  0.4157140000000 1.0
C      1  0.5696340000000  0.5533090000000  0.4157250000000 1.0
C      1  0.4391260000000  0.4557720000000  0.5005400000000 1.0
C      1  0.4391260000000  0.5442280000000  0.5005500000000 1.0
C      1  0.5752450000000  0.5000000000000  0.5005470000000 1.0
C      1  0.5232520000000  0.4284380000000  0.5005390000000 1.0
C      1  0.5232520000000  0.5715620000000  0.5005550000000 1.0
END
