TITL C-862502-1143-995 30.4567720434375 125000 -699.607761724575 0 0 128 (C1) n - 1
REM
REM in /home/nfs/bkarasulu/CARBON/AIRSS/Generating-Clusters/TERSOFF/Higher-Symm/FIRE-HFTN
REM
REM
REM
REM
REM
REM ./C.cell (b20cbc046b6831c77cfcea5457e17084)
REM AIRSS Version 0.9.1 bugfix July 2018 build 013d7b7c2542+ Fri, 06 Jul 2018 19:26:36 +0100
REM compiler GCC version 9.2.1 20190827 (Red Hat 9.2.1-1)
REM options -cpp -mtune=generic -march=x86-64 -g -O0 -fpre-include=/usr/include/finclude/math-vector-fortran.h
REM seed 467229412 350715550 -1344938197 582294149 -1465742275 2039785595 373725147 1389700413 -1105865840 -1667852401 -601008413 -2122497813 1433665875 1692712552 1563455069 -1571129417 785312166 1838127561 489560396 2134032404 1924582174 -1648125617 -1018803070 -400528913 -427620047 2118346423 -795152508 -1273279805 -538169771 417604852 -411627665 -1193876036 -1030785350
REM
CELL 1.54180   50.00000   50.00000   50.00000   90.00000   90.00000   90.00000
LATT -1
SFAC C  
C      1  0.5533300000000  0.4192070000000  0.4995470000000 1.0
C      1  0.5498580000000  0.5372790000000  0.4315220000000 1.0
C      1  0.5466050000000  0.5417800000000  0.5698600000000 1.0
C      1  0.5252970000000  0.5686810000000  0.5317210000000 1.0
C      1  0.5264070000000  0.4356670000000  0.5382440000000 1.0
C      1  0.5291730000000  0.4920250000000  0.4251040000000 1.0
C      1  0.5404690000000  0.5002400000000  0.5977310000000 1.0
C      1  0.5386510000000  0.4105500000000  0.4552960000000 1.0
C      1  0.5349100000000  0.5850790000000  0.4501930000000 1.0
C      1  0.3875860000000  0.5048210000000  0.5488250000000 1.0
C      1  0.3894790000000  0.4573670000000  0.4788600000000 1.0
C      1  0.3874030000000  0.5406700000000  0.4761330000000 1.0
C      1  0.4894600000000  0.5592880000000  0.3949900000000 1.0
C      1  0.4917550000000  0.5674630000000  0.6091260000000 1.0
C      1  0.4889130000000  0.3798610000000  0.4949330000000 1.0
C      1  0.4607770000000  0.5787450000000  0.5295980000000 1.0
C      1  0.4583480000000  0.4347480000000  0.5520290000000 1.0
C      1  0.4627380000000  0.4853950000000  0.4197880000000 1.0
C      1  0.4869730000000  0.4916010000000  0.5246520000000 1.0
C      1  0.4848310000000  0.4783800000000  0.4794360000000 1.0
C      1  0.4978670000000  0.5267200000000  0.4833900000000 1.0
C      1  0.5842080000000  0.5257560000000  0.4871130000000 1.0
C      1  0.5919650000000  0.4992270000000  0.5314000000000 1.0
C      1  0.5868280000000  0.4741010000000  0.4850550000000 1.0
C      1  0.4096460000000  0.4795820000000  0.4802430000000 1.0
C      1  0.4087220000000  0.5288170000000  0.4936550000000 1.0
C      1  0.4069470000000  0.4925060000000  0.5295300000000 1.0
C      1  0.5808710000000  0.4992410000000  0.4406080000000 1.0
C      1  0.5781960000000  0.5523840000000  0.5301480000000 1.0
C      1  0.5776350000000  0.4486370000000  0.5322810000000 1.0
C      1  0.5536600000000  0.4309610000000  0.5264220000000 1.0
C      1  0.5558480000000  0.5078470000000  0.4258400000000 1.0
C      1  0.5508680000000  0.5570470000000  0.5443820000000 1.0
C      1  0.5002670000000  0.6070100000000  0.5174290000000 1.0
C      1  0.5024220000000  0.4346610000000  0.5766330000000 1.0
C      1  0.5029650000000  0.4602230000000  0.4036730000000 1.0
C      1  0.5112370000000  0.5655040000000  0.4129520000000 1.0
C      1  0.5163910000000  0.5515130000000  0.6104120000000 1.0
C      1  0.5123260000000  0.3924880000000  0.4830310000000 1.0
C      1  0.4669280000000  0.5165330000000  0.5518030000000 1.0
C      1  0.4598440000000  0.4450160000000  0.4843630000000 1.0
C      1  0.4624280000000  0.5424250000000  0.4663310000000 1.0
C      1  0.4897360000000  0.6017030000000  0.6047380000000 1.0
C      1  0.4889740000000  0.3604950000000  0.5236400000000 1.0
C      1  0.4928080000000  0.5418180000000  0.3648060000000 1.0
C      1  0.5166150000000  0.5999320000000  0.4936800000000 1.0
C      1  0.5207560000000  0.4576240000000  0.5769050000000 1.0
C      1  0.5192900000000  0.4467420000000  0.4243270000000 1.0
C      1  0.4863100000000  0.5615930000000  0.4630450000000 1.0
C      1  0.4914150000000  0.5023840000000  0.5649800000000 1.0
C      1  0.4866100000000  0.4376610000000  0.4693650000000 1.0
C      1  0.4635420000000  0.5263170000000  0.5226830000000 1.0
C      1  0.4569450000000  0.4654440000000  0.5079190000000 1.0
C      1  0.4618220000000  0.5116180000000  0.4680850000000 1.0
C      1  0.5133470000000  0.4925840000000  0.6085440000000 1.0
C      1  0.5120940000000  0.4042640000000  0.4414610000000 1.0
C      1  0.5095120000000  0.6016750000000  0.4508160000000 1.0
C      1  0.5109280000000  0.4534280000000  0.4531150000000 1.0
C      1  0.5093340000000  0.5715780000000  0.4843530000000 1.0
C      1  0.5141460000000  0.4814360000000  0.5579350000000 1.0
C      1  0.4474950000000  0.5525320000000  0.5210940000000 1.0
C      1  0.4417260000000  0.4536590000000  0.5335070000000 1.0
C      1  0.4475410000000  0.4936070000000  0.4456510000000 1.0
C      1  0.5130820000000  0.4606720000000  0.5357270000000 1.0
C      1  0.5134070000000  0.4828640000000  0.4489850000000 1.0
C      1  0.5107990000000  0.5575310000000  0.5088140000000 1.0
C      1  0.5101740000000  0.4899780000000  0.4014670000000 1.0
C      1  0.5082140000000  0.5908140000000  0.5426960000000 1.0
C      1  0.5077210000000  0.4163310000000  0.5527020000000 1.0
C      1  0.4749150000000  0.5275420000000  0.3913310000000 1.0
C      1  0.4739170000000  0.5812460000000  0.5808570000000 1.0
C      1  0.4716180000000  0.3910990000000  0.5244490000000 1.0
C      1  0.5591060000000  0.4306540000000  0.4452070000000 1.0
C      1  0.5525380000000  0.5796560000000  0.4741340000000 1.0
C      1  0.5570520000000  0.4831860000000  0.5792590000000 1.0
C      1  0.4894350000000  0.5369240000000  0.5095290000000 1.0
C      1  0.4823880000000  0.4627780000000  0.5288420000000 1.0
C      1  0.4882660000000  0.4966620000000  0.4561300000000 1.0
C      1  0.5685840000000  0.5220190000000  0.5681810000000 1.0
C      1  0.5788030000000  0.4247250000000  0.4847180000000 1.0
C      1  0.5696270000000  0.5485210000000  0.4510110000000 1.0
C      1  0.4039620000000  0.4633660000000  0.5683940000000 1.0
C      1  0.4064560000000  0.4631680000000  0.4343360000000 1.0
C      1  0.4048740000000  0.5766240000000  0.5026490000000 1.0
C      1  0.5059950000000  0.4649800000000  0.4946080000000 1.0
C      1  0.5164430000000  0.5048890000000  0.4870560000000 1.0
C      1  0.5112690000000  0.5016320000000  0.5158060000000 1.0
C      1  0.4814210000000  0.5804350000000  0.5526910000000 1.0
C      1  0.4792660000000  0.4138230000000  0.5408790000000 1.0
C      1  0.4829880000000  0.5037080000000  0.4058420000000 1.0
C      1  0.4881770000000  0.4915930000000  0.5923800000000 1.0
C      1  0.4860840000000  0.4189420000000  0.4463480000000 1.0
C      1  0.4823360000000  0.5911550000000  0.4588540000000 1.0
C      1  0.5423390000000  0.5020730000000  0.4725750000000 1.0
C      1  0.5239460000000  0.5233270000000  0.5291830000000 1.0
C      1  0.5359680000000  0.4707390000000  0.5017380000000 1.0
C      1  0.5377640000000  0.5541480000000  0.4112610000000 1.0
C      1  0.5402230000000  0.5560490000000  0.5944190000000 1.0
C      1  0.5385220000000  0.3943020000000  0.4955430000000 1.0
C      1  0.5623990000000  0.5490790000000  0.4815400000000 1.0
C      1  0.5667210000000  0.4959560000000  0.5510800000000 1.0
C      1  0.5778740000000  0.4492090000000  0.4661870000000 1.0
C      1  0.4204980000000  0.5520780000000  0.5100370000000 1.0
C      1  0.4170710000000  0.4665770000000  0.5415940000000 1.0
C      1  0.4211140000000  0.4827350000000  0.4517570000000 1.0
C      1  0.4717250000000  0.6007510000000  0.5098230000000 1.0
C      1  0.4738590000000  0.4435280000000  0.5781890000000 1.0
C      1  0.4741680000000  0.4565500000000  0.4117590000000 1.0
C      1  0.5847990000000  0.5001580000000  0.4710020000000 1.0
C      1  0.5895950000000  0.5260330000000  0.5165470000000 1.0
C      1  0.5881460000000  0.4727210000000  0.5155340000000 1.0
C      1  0.5416920000000  0.4442670000000  0.4868540000000 1.0
C      1  0.5338510000000  0.5271010000000  0.4559570000000 1.0
C      1  0.5245590000000  0.5269690000000  0.5573080000000 1.0
C      1  0.4655540000000  0.6030820000000  0.4807000000000 1.0
C      1  0.4695650000000  0.4684320000000  0.5934980000000 1.0
C      1  0.4690570000000  0.4301990000000  0.4245700000000 1.0
C      1  0.5526600000000  0.4950760000000  0.5175770000000 1.0
C      1  0.5530020000000  0.4746880000000  0.4602050000000 1.0
C      1  0.5485200000000  0.5297710000000  0.5088520000000 1.0
C      1  0.5462640000000  0.5997070000000  0.4948460000000 1.0
C      1  0.5494880000000  0.4549980000000  0.5811520000000 1.0
C      1  0.5476750000000  0.4422630000000  0.4212340000000 1.0
C      1  0.3872620000000  0.4474310000000  0.4508450000000 1.0
C      1  0.3847650000000  0.5698320000000  0.4817170000000 1.0
C      1  0.3858250000000  0.4868460000000  0.5727760000000 1.0
C      1  0.4549890000000  0.5004570000000  0.4990680000000 1.0
C      1  0.4099340000000  0.5003780000000  0.5012190000000 1.0
END
