TITL C-862133-5440-218 0.038904897393069 125000 -988.522560077003 0 0 183 (C1) n - 1
REM
REM in /home/nfs/bkarasulu/CARBON/AIRSS/Generating-Clusters/TERSOFF/Higher-Symm/FIRE-HFTN
REM
REM
REM
REM
REM
REM ./C.cell (b20cbc046b6831c77cfcea5457e17084)
REM AIRSS Version 0.9.1 bugfix July 2018 build 013d7b7c2542+ Fri, 06 Jul 2018 19:26:36 +0100
REM compiler GCC version 9.2.1 20190827 (Red Hat 9.2.1-1)
REM options -cpp -mtune=generic -march=x86-64 -g -O0 -fpre-include=/usr/include/finclude/math-vector-fortran.h
REM seed -1656635381 2047996554 -1891307611 1330246489 1138187614 289390854 808937328 -674299656 418624512 -732763604 -351337464 1897822674 -159198638 -969068266 1958461227 370198691 716280300 378091433 1474211040 -616083191 1199087865 -807521134 -1456870689 264277228 -1530722752 -1572074707 -801413804 20025675 -965402023 1131302709 -363360714 -1338171790 416189797
REM
CELL 1.54180   50.00000   50.00000   50.00000   90.00000   90.00000   90.00000
LATT -1
SFAC C  
C      1  0.4461790000000  0.5173120000000  0.4612950000000 1.0
C      1  0.5347360000000  0.5147440000000  0.4421780000000 1.0
C      1  0.5724580000000  0.5142720000000  0.5382110000000 1.0
C      1  0.4589950000000  0.5167880000000  0.5581180000000 1.0
C      1  0.4456450000000  0.4875020000000  0.4625180000000 1.0
C      1  0.5361710000000  0.4829490000000  0.4434370000000 1.0
C      1  0.5616420000000  0.4859610000000  0.5385310000000 1.0
C      1  0.4583060000000  0.4873920000000  0.5666040000000 1.0
C      1  0.5561540000000  0.5781180000000  0.4370250000000 1.0
C      1  0.5626140000000  0.5755690000000  0.5573940000000 1.0
C      1  0.4419890000000  0.5778230000000  0.5625530000000 1.0
C      1  0.4391270000000  0.5784990000000  0.4447330000000 1.0
C      1  0.5585660000000  0.4221010000000  0.4355850000000 1.0
C      1  0.5613050000000  0.4204420000000  0.5542470000000 1.0
C      1  0.4427060000000  0.4293130000000  0.5594320000000 1.0
C      1  0.4402120000000  0.4183270000000  0.4442320000000 1.0
C      1  0.4992430000000  0.4173830000000  0.4161860000000 1.0
C      1  0.5884930000000  0.4190150000000  0.4959660000000 1.0
C      1  0.5000190000000  0.4197390000000  0.5780190000000 1.0
C      1  0.4140590000000  0.4195130000000  0.5021010000000 1.0
C      1  0.4984320000000  0.5819910000000  0.4163670000000 1.0
C      1  0.5854910000000  0.5815600000000  0.4977080000000 1.0
C      1  0.5023800000000  0.5791010000000  0.5835530000000 1.0
C      1  0.4143870000000  0.5800900000000  0.5010020000000 1.0
C      1  0.5503580000000  0.4656930000000  0.6225180000000 1.0
C      1  0.3700340000000  0.4606480000000  0.5756060000000 1.0
C      1  0.4295790000000  0.4567290000000  0.3750430000000 1.0
C      1  0.6256140000000  0.4677570000000  0.4336500000000 1.0
C      1  0.5612580000000  0.5321020000000  0.6269930000000 1.0
C      1  0.3719460000000  0.5340990000000  0.5605500000000 1.0
C      1  0.4399700000000  0.5353620000000  0.3746230000000 1.0
C      1  0.6229910000000  0.5313930000000  0.4396170000000 1.0
C      1  0.4425460000000  0.5291990000000  0.5804050000000 1.0
C      1  0.4232600000000  0.5273200000000  0.4441420000000 1.0
C      1  0.5524620000000  0.5266350000000  0.4200290000000 1.0
C      1  0.5906820000000  0.5247690000000  0.5581490000000 1.0
C      1  0.4416690000000  0.4768520000000  0.5878690000000 1.0
C      1  0.4279400000000  0.4722200000000  0.4463600000000 1.0
C      1  0.5533940000000  0.4725550000000  0.4204120000000 1.0
C      1  0.5804870000000  0.4711560000000  0.5570460000000 1.0
C      1  0.4131230000000  0.5549100000000  0.4511730000000 1.0
C      1  0.5462630000000  0.5549500000000  0.4112620000000 1.0
C      1  0.5896250000000  0.5544820000000  0.5469390000000 1.0
C      1  0.4511950000000  0.5564280000000  0.5900420000000 1.0
C      1  0.4212260000000  0.4445350000000  0.4546970000000 1.0
C      1  0.5471300000000  0.4447030000000  0.4109520000000 1.0
C      1  0.5885930000000  0.4431530000000  0.5480440000000 1.0
C      1  0.4526910000000  0.4475740000000  0.5862440000000 1.0
C      1  0.4377990000000  0.5397760000000  0.4815020000000 1.0
C      1  0.5155630000000  0.5396070000000  0.4352970000000 1.0
C      1  0.5622570000000  0.5349700000000  0.5217630000000 1.0
C      1  0.4802360000000  0.5395090000000  0.5650070000000 1.0
C      1  0.4468990000000  0.4451650000000  0.5014060000000 1.0
C      1  0.5169660000000  0.4590450000000  0.4363130000000 1.0
C      1  0.5683660000000  0.4636390000000  0.5175770000000 1.0
C      1  0.4761900000000  0.4675330000000  0.5574760000000 1.0
C      1  0.5258110000000  0.4506010000000  0.5522730000000 1.0
C      1  0.4294580000000  0.4702940000000  0.5392760000000 1.0
C      1  0.4684810000000  0.4493490000000  0.4432730000000 1.0
C      1  0.5611200000000  0.4525580000000  0.4708860000000 1.0
C      1  0.5320040000000  0.5445680000000  0.5593670000000 1.0
C      1  0.4395170000000  0.5474920000000  0.5272870000000 1.0
C      1  0.4701550000000  0.5487100000000  0.4474110000000 1.0
C      1  0.5534480000000  0.5479570000000  0.4716370000000 1.0
C      1  0.4750550000000  0.4079310000000  0.4419320000000 1.0
C      1  0.5643840000000  0.4101060000000  0.4697130000000 1.0
C      1  0.5264230000000  0.4087600000000  0.5552300000000 1.0
C      1  0.4391360000000  0.4130570000000  0.5272800000000 1.0
C      1  0.4738320000000  0.5901730000000  0.4422260000000 1.0
C      1  0.5608190000000  0.5892710000000  0.4717470000000 1.0
C      1  0.5276160000000  0.5863030000000  0.5580800000000 1.0
C      1  0.4375990000000  0.5894160000000  0.5280200000000 1.0
C      1  0.5372550000000  0.4130310000000  0.5104100000000 1.0
C      1  0.4871930000000  0.4201140000000  0.5270000000000 1.0
C      1  0.4644510000000  0.4108950000000  0.4846720000000 1.0
C      1  0.5164600000000  0.4153250000000  0.4663270000000 1.0
C      1  0.5358310000000  0.5771210000000  0.5161450000000 1.0
C      1  0.4849820000000  0.5806950000000  0.5328860000000 1.0
C      1  0.4664110000000  0.5848830000000  0.4881320000000 1.0
C      1  0.5138820000000  0.5824330000000  0.4655350000000 1.0
C      1  0.4714320000000  0.4242570000000  0.4034160000000 1.0
C      1  0.6012800000000  0.4300260000000  0.4689530000000 1.0
C      1  0.5259780000000  0.4282760000000  0.5923770000000 1.0
C      1  0.4002020000000  0.4313310000000  0.5298050000000 1.0
C      1  0.4713690000000  0.5726390000000  0.4041580000000 1.0
C      1  0.5973790000000  0.5687130000000  0.4713530000000 1.0
C      1  0.5296240000000  0.5705830000000  0.5969650000000 1.0
C      1  0.4000670000000  0.5706880000000  0.5275170000000 1.0
C      1  0.5462020000000  0.4421730000000  0.5755780000000 1.0
C      1  0.4150470000000  0.4474210000000  0.5512900000000 1.0
C      1  0.4506320000000  0.4382180000000  0.4192600000000 1.0
C      1  0.5823570000000  0.4430950000000  0.4495250000000 1.0
C      1  0.5499460000000  0.5550160000000  0.5816920000000 1.0
C      1  0.4171590000000  0.5572250000000  0.5482510000000 1.0
C      1  0.4517910000000  0.5578070000000  0.4205400000000 1.0
C      1  0.5784410000000  0.5561800000000  0.4515980000000 1.0
C      1  0.4613930000000  0.4844550000000  0.5044690000000 1.0
C      1  0.4927050000000  0.4828220000000  0.4609440000000 1.0
C      1  0.5414350000000  0.4863100000000  0.4947180000000 1.0
C      1  0.5050600000000  0.4877680000000  0.5347210000000 1.0
C      1  0.4588220000000  0.5121070000000  0.5050070000000 1.0
C      1  0.4922300000000  0.5113870000000  0.4557190000000 1.0
C      1  0.5410340000000  0.5137290000000  0.4925500000000 1.0
C      1  0.5017660000000  0.5157810000000  0.5378990000000 1.0
C      1  0.4678400000000  0.4746730000000  0.4767290000000 1.0
C      1  0.5225570000000  0.4745330000000  0.4746680000000 1.0
C      1  0.5301050000000  0.4795790000000  0.5223370000000 1.0
C      1  0.4853980000000  0.4725490000000  0.5168660000000 1.0
C      1  0.4758850000000  0.5228240000000  0.4799440000000 1.0
C      1  0.5202040000000  0.5206950000000  0.4721410000000 1.0
C      1  0.5204560000000  0.5267130000000  0.5158780000000 1.0
C      1  0.4735920000000  0.5230370000000  0.5272770000000 1.0
C      1  0.4109720000000  0.4719270000000  0.4945040000000 1.0
C      1  0.4979530000000  0.4716980000000  0.4011320000000 1.0
C      1  0.6037720000000  0.4744130000000  0.4979620000000 1.0
C      1  0.4995020000000  0.4722480000000  0.5920770000000 1.0
C      1  0.4016110000000  0.5249750000000  0.4967260000000 1.0
C      1  0.4974570000000  0.5269820000000  0.3996540000000 1.0
C      1  0.5975020000000  0.5286390000000  0.4998440000000 1.0
C      1  0.5008060000000  0.5255040000000  0.5986990000000 1.0
C      1  0.4395690000000  0.5838270000000  0.4769580000000 1.0
C      1  0.5232490000000  0.5848060000000  0.4384380000000 1.0
C      1  0.5635780000000  0.5854150000000  0.5244410000000 1.0
C      1  0.4763400000000  0.5810220000000  0.5606950000000 1.0
C      1  0.4358800000000  0.4079040000000  0.4757530000000 1.0
C      1  0.5247170000000  0.4161590000000  0.4383420000000 1.0
C      1  0.5642270000000  0.4129060000000  0.5218950000000 1.0
C      1  0.4778670000000  0.4253440000000  0.5544240000000 1.0
C      1  0.5806020000000  0.4820240000000  0.5844830000000 1.0
C      1  0.4138240000000  0.4862480000000  0.5864400000000 1.0
C      1  0.4223370000000  0.4821570000000  0.4194300000000 1.0
C      1  0.5797840000000  0.4844130000000  0.4183480000000 1.0
C      1  0.5827850000000  0.5142530000000  0.5843740000000 1.0
C      1  0.4151120000000  0.5183400000000  0.5830420000000 1.0
C      1  0.4206850000000  0.5144950000000  0.4176570000000 1.0
C      1  0.5792610000000  0.5154080000000  0.4188900000000 1.0
C      1  0.4654140000000  0.4027770000000  0.5141660000000 1.0
C      1  0.4900480000000  0.3993960000000  0.4701710000000 1.0
C      1  0.5388000000000  0.4037530000000  0.4826470000000 1.0
C      1  0.5144080000000  0.4007950000000  0.5265270000000 1.0
C      1  0.4641940000000  0.5943230000000  0.5160450000000 1.0
C      1  0.4875180000000  0.5993760000000  0.4715590000000 1.0
C      1  0.5348050000000  0.5898340000000  0.4867620000000 1.0
C      1  0.5122540000000  0.5925450000000  0.5291580000000 1.0
C      1  0.4306680000000  0.5274190000000  0.5078280000000 1.0
C      1  0.4875540000000  0.5287870000000  0.4306660000000 1.0
C      1  0.5665350000000  0.5295110000000  0.4919790000000 1.0
C      1  0.5087790000000  0.5288880000000  0.5664850000000 1.0
C      1  0.4357340000000  0.4711170000000  0.5117380000000 1.0
C      1  0.4889050000000  0.4678480000000  0.4334690000000 1.0
C      1  0.5711260000000  0.4727870000000  0.4893970000000 1.0
C      1  0.5060470000000  0.4710390000000  0.5606140000000 1.0
C      1  0.4085430000000  0.4447380000000  0.4816780000000 1.0
C      1  0.5172780000000  0.4416650000000  0.3983880000000 1.0
C      1  0.6045880000000  0.4431330000000  0.5160790000000 1.0
C      1  0.4827110000000  0.4454460000000  0.5925990000000 1.0
C      1  0.3990530000000  0.5553630000000  0.4801380000000 1.0
C      1  0.5164870000000  0.5575430000000  0.3977080000000 1.0
C      1  0.5981710000000  0.5560660000000  0.5166270000000 1.0
C      1  0.4826830000000  0.5564250000000  0.6029370000000 1.0
C      1  0.5173910000000  0.5527370000000  0.4751060000000 1.0
C      1  0.5374890000000  0.5487270000000  0.5292420000000 1.0
C      1  0.4738510000000  0.5535500000000  0.5173920000000 1.0
C      1  0.4816060000000  0.5543430000000  0.4818150000000 1.0
C      1  0.5286200000000  0.4443550000000  0.4802040000000 1.0
C      1  0.5264690000000  0.4447090000000  0.5162770000000 1.0
C      1  0.4923110000000  0.4447180000000  0.5078310000000 1.0
C      1  0.4700990000000  0.4423950000000  0.4788830000000 1.0
C      1  0.4373480000000  0.5356090000000  0.4035710000000 1.0
C      1  0.5942200000000  0.5338670000000  0.4364490000000 1.0
C      1  0.5648530000000  0.5334600000000  0.5981790000000 1.0
C      1  0.4006920000000  0.5362070000000  0.5641260000000 1.0
C      1  0.4339090000000  0.4591590000000  0.4036400000000 1.0
C      1  0.5966720000000  0.4654780000000  0.4335940000000 1.0
C      1  0.5592020000000  0.4637390000000  0.5948940000000 1.0
C      1  0.3984410000000  0.4648440000000  0.5715070000000 1.0
C      1  0.3948970000000  0.4969230000000  0.4874630000000 1.0
C      1  0.5049720000000  0.4991590000000  0.3883020000000 1.0
C      1  0.6127250000000  0.5026850000000  0.5063520000000 1.0
C      1  0.4930030000000  0.4976440000000  0.6073930000000 1.0
C      1  0.4922970000000  0.3857270000000  0.5034840000000 1.0
C      1  0.5106480000000  0.6095530000000  0.4974180000000 1.0
C      1  0.4997380000000  0.5084960000000  0.4967010000000 1.0
END
