TITL C-862127-1500-507 0.2792822296373 125000 -936.652370998601 0 0 176 (C4) n - 1
REM
REM in /home/nfs/bkarasulu/CARBON/AIRSS/Generating-Clusters/TERSOFF/Higher-Symm/FIRE-HFTN
REM
REM
REM
REM
REM
REM ./C.cell (b20cbc046b6831c77cfcea5457e17084)
REM AIRSS Version 0.9.1 bugfix July 2018 build 013d7b7c2542+ Fri, 06 Jul 2018 19:26:36 +0100
REM compiler GCC version 9.2.1 20190827 (Red Hat 9.2.1-1)
REM options -cpp -mtune=generic -march=x86-64 -g -O0 -fpre-include=/usr/include/finclude/math-vector-fortran.h
REM seed 972750732 -672581245 917864756 2537987 -1242781655 -1738328226 -1609654604 1481287301 96747018 -2119050125 1226593290 817508958 -2014672702 -2004434080 991962047 1259576253 2045309905 -1910123008 -976014756 638662928 -959798641 -910957038 -1708038886 -173869202 539475823 1925158929 -447159390 -1126572431 364120271 515806535 -1556144883 737793804 1918447002
REM
CELL 1.54180   50.00000   50.00000   50.00000   90.00000   90.00000   90.00000
LATT -1
SFAC C  
C      1  0.4940880000000  0.5373270000000  0.5780730000000 1.0
C      1  0.5373270000000  0.5059120000000  0.5780730000000 1.0
C      1  0.5059120000000  0.4626730000000  0.5780730000000 1.0
C      1  0.4626730000000  0.4940880000000  0.5780730000000 1.0
C      1  0.4940880000000  0.4626730000000  0.4219270000000 1.0
C      1  0.5373270000000  0.4940880000000  0.4219270000000 1.0
C      1  0.5059120000000  0.5373270000000  0.4219270000000 1.0
C      1  0.4626730000000  0.5059120000000  0.4219270000000 1.0
C      1  0.4766210000000  0.6113640000000  0.4340240000000 1.0
C      1  0.6113640000000  0.5233790000000  0.4340240000000 1.0
C      1  0.5233790000000  0.3886360000000  0.4340240000000 1.0
C      1  0.3886360000000  0.4766210000000  0.4340240000000 1.0
C      1  0.4766210000000  0.3886360000000  0.5659760000000 1.0
C      1  0.6113640000000  0.4766210000000  0.5659760000000 1.0
C      1  0.5233790000000  0.6113640000000  0.5659760000000 1.0
C      1  0.3886360000000  0.5233790000000  0.5659760000000 1.0
C      1  0.5012310000000  0.5504910000000  0.5152360000000 1.0
C      1  0.5504910000000  0.4987690000000  0.5152360000000 1.0
C      1  0.4987690000000  0.4495090000000  0.5152360000000 1.0
C      1  0.4495090000000  0.5012310000000  0.5152360000000 1.0
C      1  0.5012310000000  0.4495090000000  0.4847640000000 1.0
C      1  0.5504910000000  0.5012310000000  0.4847640000000 1.0
C      1  0.4987690000000  0.5504910000000  0.4847640000000 1.0
C      1  0.4495090000000  0.4987690000000  0.4847640000000 1.0
C      1  0.3883430000000  0.5235720000000  0.4663210000000 1.0
C      1  0.5235720000000  0.6116570000000  0.4663210000000 1.0
C      1  0.6116570000000  0.4764280000000  0.4663210000000 1.0
C      1  0.4764280000000  0.3883430000000  0.4663210000000 1.0
C      1  0.3883430000000  0.4764280000000  0.5336790000000 1.0
C      1  0.5235720000000  0.3883430000000  0.5336790000000 1.0
C      1  0.6116570000000  0.5235720000000  0.5336790000000 1.0
C      1  0.4764280000000  0.6116570000000  0.5336790000000 1.0
C      1  0.4380020000000  0.5377590000000  0.4491740000000 1.0
C      1  0.5377590000000  0.5619980000000  0.4491740000000 1.0
C      1  0.5619980000000  0.4622410000000  0.4491740000000 1.0
C      1  0.4622410000000  0.4380020000000  0.4491740000000 1.0
C      1  0.4380020000000  0.4622410000000  0.5508260000000 1.0
C      1  0.5377590000000  0.4380020000000  0.5508260000000 1.0
C      1  0.5619980000000  0.5377590000000  0.5508260000000 1.0
C      1  0.4622410000000  0.5619980000000  0.5508260000000 1.0
C      1  0.5272190000000  0.4810820000000  0.5622820000000 1.0
C      1  0.4810820000000  0.4727810000000  0.5622820000000 1.0
C      1  0.4727810000000  0.5189180000000  0.5622820000000 1.0
C      1  0.5189180000000  0.5272190000000  0.5622820000000 1.0
C      1  0.5272190000000  0.5189180000000  0.4377180000000 1.0
C      1  0.4810820000000  0.5272190000000  0.4377180000000 1.0
C      1  0.4727810000000  0.4810820000000  0.4377180000000 1.0
C      1  0.5189180000000  0.4727810000000  0.4377180000000 1.0
C      1  0.5522960000000  0.4555900000000  0.5937910000000 1.0
C      1  0.4555900000000  0.4477040000000  0.5937910000000 1.0
C      1  0.4477040000000  0.5444100000000  0.5937910000000 1.0
C      1  0.5444100000000  0.5522960000000  0.5937910000000 1.0
C      1  0.5522960000000  0.5444100000000  0.4062090000000 1.0
C      1  0.4555900000000  0.5522960000000  0.4062090000000 1.0
C      1  0.4477040000000  0.4555900000000  0.4062090000000 1.0
C      1  0.5444100000000  0.4477040000000  0.4062090000000 1.0
C      1  0.4711950000000  0.5600810000000  0.5797720000000 1.0
C      1  0.5600810000000  0.5288050000000  0.5797720000000 1.0
C      1  0.5288050000000  0.4399190000000  0.5797720000000 1.0
C      1  0.4399190000000  0.4711950000000  0.5797720000000 1.0
C      1  0.4711950000000  0.4399190000000  0.4202280000000 1.0
C      1  0.5600810000000  0.4711950000000  0.4202280000000 1.0
C      1  0.5288050000000  0.5600810000000  0.4202280000000 1.0
C      1  0.4399190000000  0.5288050000000  0.4202280000000 1.0
C      1  0.4838960000000  0.5442390000000  0.3994270000000 1.0
C      1  0.5442390000000  0.5161040000000  0.3994270000000 1.0
C      1  0.5161040000000  0.4557610000000  0.3994270000000 1.0
C      1  0.4557610000000  0.4838960000000  0.3994270000000 1.0
C      1  0.4838960000000  0.4557610000000  0.6005730000000 1.0
C      1  0.5442390000000  0.4838960000000  0.6005730000000 1.0
C      1  0.5161040000000  0.5442390000000  0.6005730000000 1.0
C      1  0.4557610000000  0.5161040000000  0.6005730000000 1.0
C      1  0.5453250000000  0.4657700000000  0.5427970000000 1.0
C      1  0.4657700000000  0.4546750000000  0.5427970000000 1.0
C      1  0.4546750000000  0.5342300000000  0.5427970000000 1.0
C      1  0.5342300000000  0.5453250000000  0.5427970000000 1.0
C      1  0.5453250000000  0.5342300000000  0.4572030000000 1.0
C      1  0.4657700000000  0.5453250000000  0.4572030000000 1.0
C      1  0.4546750000000  0.4657700000000  0.4572030000000 1.0
C      1  0.5342300000000  0.4546750000000  0.4572030000000 1.0
C      1  0.5365560000000  0.5737770000000  0.5494680000000 1.0
C      1  0.5737770000000  0.4634440000000  0.5494680000000 1.0
C      1  0.4634440000000  0.4262230000000  0.5494680000000 1.0
C      1  0.4262230000000  0.5365560000000  0.5494680000000 1.0
C      1  0.5365560000000  0.4262230000000  0.4505320000000 1.0
C      1  0.5737770000000  0.5365560000000  0.4505320000000 1.0
C      1  0.4634440000000  0.5737770000000  0.4505320000000 1.0
C      1  0.4262230000000  0.4634440000000  0.4505320000000 1.0
C      1  0.5645490000000  0.4055070000000  0.4845730000000 1.0
C      1  0.4055070000000  0.4354510000000  0.4845730000000 1.0
C      1  0.4354510000000  0.5944930000000  0.4845730000000 1.0
C      1  0.5944930000000  0.5645490000000  0.4845730000000 1.0
C      1  0.5645490000000  0.5944930000000  0.5154270000000 1.0
C      1  0.4055070000000  0.5645490000000  0.5154270000000 1.0
C      1  0.4354510000000  0.4055070000000  0.5154270000000 1.0
C      1  0.5944930000000  0.4354510000000  0.5154270000000 1.0
C      1  0.5444190000000  0.5875010000000  0.4642940000000 1.0
C      1  0.5875010000000  0.4555810000000  0.4642940000000 1.0
C      1  0.4555810000000  0.4124990000000  0.4642940000000 1.0
C      1  0.4124990000000  0.5444190000000  0.4642940000000 1.0
C      1  0.5444190000000  0.4124990000000  0.5357060000000 1.0
C      1  0.5875010000000  0.5444190000000  0.5357060000000 1.0
C      1  0.4555810000000  0.5875010000000  0.5357060000000 1.0
C      1  0.4124990000000  0.4555810000000  0.5357060000000 1.0
C      1  0.5565720000000  0.5396360000000  0.5077070000000 1.0
C      1  0.5396360000000  0.4434280000000  0.5077070000000 1.0
C      1  0.4434280000000  0.4603640000000  0.5077070000000 1.0
C      1  0.4603640000000  0.5565720000000  0.5077070000000 1.0
C      1  0.5565720000000  0.4603640000000  0.4922930000000 1.0
C      1  0.5396360000000  0.5565720000000  0.4922930000000 1.0
C      1  0.4434280000000  0.5396360000000  0.4922930000000 1.0
C      1  0.4603640000000  0.4434280000000  0.4922930000000 1.0
C      1  0.4142550000000  0.5160900000000  0.4161310000000 1.0
C      1  0.5160900000000  0.5857450000000  0.4161310000000 1.0
C      1  0.5857450000000  0.4839100000000  0.4161310000000 1.0
C      1  0.4839100000000  0.4142550000000  0.4161310000000 1.0
C      1  0.4142550000000  0.4839100000000  0.5838690000000 1.0
C      1  0.5160900000000  0.4142550000000  0.5838690000000 1.0
C      1  0.5857450000000  0.5160900000000  0.5838690000000 1.0
C      1  0.4839100000000  0.5857450000000  0.5838690000000 1.0
C      1  0.4226340000000  0.5452690000000  0.5773220000000 1.0
C      1  0.5452690000000  0.5773660000000  0.5773220000000 1.0
C      1  0.5773660000000  0.4547310000000  0.5773220000000 1.0
C      1  0.4547310000000  0.4226340000000  0.5773220000000 1.0
C      1  0.4226340000000  0.4547310000000  0.4226780000000 1.0
C      1  0.5452690000000  0.4226340000000  0.4226780000000 1.0
C      1  0.5773660000000  0.5452690000000  0.4226780000000 1.0
C      1  0.4547310000000  0.5773660000000  0.4226780000000 1.0
C      1  0.4128270000000  0.4317610000000  0.5161760000000 1.0
C      1  0.4317610000000  0.5871730000000  0.5161760000000 1.0
C      1  0.5871730000000  0.5682390000000  0.5161760000000 1.0
C      1  0.5682390000000  0.4128270000000  0.5161760000000 1.0
C      1  0.4128270000000  0.5682390000000  0.4838240000000 1.0
C      1  0.4317610000000  0.4128270000000  0.4838240000000 1.0
C      1  0.5871730000000  0.4317610000000  0.4838240000000 1.0
C      1  0.5682390000000  0.5871730000000  0.4838240000000 1.0
C      1  0.5272260000000  0.4192990000000  0.4980060000000 1.0
C      1  0.4192990000000  0.4727740000000  0.4980060000000 1.0
C      1  0.4727740000000  0.5807010000000  0.4980060000000 1.0
C      1  0.5807010000000  0.5272260000000  0.4980060000000 1.0
C      1  0.5272260000000  0.5807010000000  0.5019940000000 1.0
C      1  0.4192990000000  0.5272260000000  0.5019940000000 1.0
C      1  0.4727740000000  0.4192990000000  0.5019940000000 1.0
C      1  0.5807010000000  0.4727740000000  0.5019940000000 1.0
C      1  0.5946160000000  0.4651660000000  0.5279380000000 1.0
C      1  0.4651660000000  0.4053840000000  0.5279380000000 1.0
C      1  0.4053840000000  0.5348340000000  0.5279380000000 1.0
C      1  0.5348340000000  0.5946160000000  0.5279380000000 1.0
C      1  0.5946160000000  0.5348340000000  0.4720620000000 1.0
C      1  0.4651660000000  0.5946160000000  0.4720620000000 1.0
C      1  0.4053840000000  0.4651660000000  0.4720620000000 1.0
C      1  0.5348340000000  0.4053840000000  0.4720620000000 1.0
C      1  0.5012250000000  0.4072330000000  0.4382310000000 1.0
C      1  0.4072330000000  0.4987750000000  0.4382310000000 1.0
C      1  0.4987750000000  0.5927670000000  0.4382310000000 1.0
C      1  0.5927670000000  0.5012250000000  0.4382310000000 1.0
C      1  0.5012250000000  0.5927670000000  0.5617690000000 1.0
C      1  0.4072330000000  0.5012250000000  0.5617690000000 1.0
C      1  0.4987750000000  0.4072330000000  0.5617690000000 1.0
C      1  0.5927670000000  0.4987750000000  0.5617690000000 1.0
C      1  0.5082550000000  0.6157500000000  0.5270440000000 1.0
C      1  0.6157500000000  0.4917450000000  0.5270440000000 1.0
C      1  0.4917450000000  0.3842500000000  0.5270440000000 1.0
C      1  0.3842500000000  0.5082550000000  0.5270440000000 1.0
C      1  0.5082550000000  0.3842500000000  0.4729560000000 1.0
C      1  0.6157500000000  0.5082550000000  0.4729560000000 1.0
C      1  0.4917450000000  0.6157500000000  0.4729560000000 1.0
C      1  0.3842500000000  0.4917450000000  0.4729560000000 1.0
C      1  0.5755860000000  0.5021400000000  0.5333040000000 1.0
C      1  0.5021400000000  0.4244140000000  0.5333040000000 1.0
C      1  0.4244140000000  0.4978600000000  0.5333040000000 1.0
C      1  0.4978600000000  0.5755860000000  0.5333040000000 1.0
C      1  0.5755860000000  0.4978600000000  0.4666960000000 1.0
C      1  0.5021400000000  0.5755860000000  0.4666960000000 1.0
C      1  0.4244140000000  0.5021400000000  0.4666960000000 1.0
C      1  0.4978600000000  0.4244140000000  0.4666960000000 1.0
END
