TITL C-862501-1041-702 -0.00697210376165213 125000 -146.160688765276 0 0 29 (C1) n - 1
REM
REM in /home/nfs/bkarasulu/CARBON/AIRSS/Generating-Clusters/TERSOFF/Higher-Symm/FIRE-HFTN
REM
REM
REM
REM
REM
REM ./C.cell (b20cbc046b6831c77cfcea5457e17084)
REM AIRSS Version 0.9.1 bugfix July 2018 build 013d7b7c2542+ Fri, 06 Jul 2018 19:26:36 +0100
REM compiler GCC version 9.2.1 20190827 (Red Hat 9.2.1-1)
REM options -cpp -mtune=generic -march=x86-64 -g -O0 -fpre-include=/usr/include/finclude/math-vector-fortran.h
REM seed -1711280833 -1186419455 -2123118162 -383921263 -974374346 1009070966 -625939299 87129583 498134316 1671523990 785598317 1531664400 -1797233371 -922385511 1567133581 129605364 1815896538 -1841425561 -1750435507 2008711794 1687696069 1810317172 1707045955 508628082 -1038846545 -111739668 2611194 -2021926969 1091515560 -897908118 864112114 -1968636637 -2143798271
REM
CELL 1.54180   50.00000   50.00000   50.00000   90.00000   90.00000   90.00000
LATT -1
SFAC C  
C      1  0.4463270000000  0.4939150000000  0.4801240000000 1.0
C      1  0.5158140000000  0.4868880000000  0.5166270000000 1.0
C      1  0.5297990000000  0.4783750000000  0.5437710000000 1.0
C      1  0.4816350000000  0.5270440000000  0.4550410000000 1.0
C      1  0.5328990000000  0.5353250000000  0.5379240000000 1.0
C      1  0.5588630000000  0.5264830000000  0.4773250000000 1.0
C      1  0.5457230000000  0.4837220000000  0.5033120000000 1.0
C      1  0.4682930000000  0.5075130000000  0.4296150000000 1.0
C      1  0.5434400000000  0.5458010000000  0.4925610000000 1.0
C      1  0.5514990000000  0.5500690000000  0.5208530000000 1.0
C      1  0.4893860000000  0.4668520000000  0.4768240000000 1.0
C      1  0.5106910000000  0.5221080000000  0.5220560000000 1.0
C      1  0.4654870000000  0.5042390000000  0.5270280000000 1.0
C      1  0.4933690000000  0.5619620000000  0.4974860000000 1.0
C      1  0.4735640000000  0.5545770000000  0.5177480000000 1.0
C      1  0.5181940000000  0.4305910000000  0.5040870000000 1.0
C      1  0.4814900000000  0.5287640000000  0.5297000000000 1.0
C      1  0.5040010000000  0.4557770000000  0.5026610000000 1.0
C      1  0.5035800000000  0.5198710000000  0.4729850000000 1.0
C      1  0.5551590000000  0.4977320000000  0.4793410000000 1.0
C      1  0.4433720000000  0.5026160000000  0.5079560000000 1.0
C      1  0.5074050000000  0.4924800000000  0.4826500000000 1.0
C      1  0.4526110000000  0.4418600000000  0.5351870000000 1.0
C      1  0.4605730000000  0.4690420000000  0.4752860000000 1.0
C      1  0.5134350000000  0.5397810000000  0.4928800000000 1.0
C      1  0.4768490000000  0.4564820000000  0.5412260000000 1.0
C      1  0.5421710000000  0.4242770000000  0.4891530000000 1.0
C      1  0.4843760000000  0.4817670000000  0.5291450000000 1.0
C      1  0.4499940000000  0.5140850000000  0.4594470000000 1.0
END
