TITL C-862502-1143-1050 0.0074965534872541 125000 -593.362818469781 0 0 115 (Cs) n - 1
REM
REM in /home/nfs/bkarasulu/CARBON/AIRSS/Generating-Clusters/TERSOFF/Higher-Symm/FIRE-HFTN
REM
REM
REM
REM
REM
REM ./C.cell (b20cbc046b6831c77cfcea5457e17084)
REM AIRSS Version 0.9.1 bugfix July 2018 build 013d7b7c2542+ Fri, 06 Jul 2018 19:26:36 +0100
REM compiler GCC version 9.2.1 20190827 (Red Hat 9.2.1-1)
REM options -cpp -mtune=generic -march=x86-64 -g -O0 -fpre-include=/usr/include/finclude/math-vector-fortran.h
REM seed -124600994 2128417935 -2032895853 1027785866 1206263499 179882877 1922585612 -1079718013 -1987300070 -1753736030 -269213131 -905192049 357596804 -1226268761 -832995663 -355352575 2076751226 -1199176954 -330993318 315441480 1765772414 -1280600623 -1625546541 2147323540 847615193 1193467512 -1068985542 -764967319 -908758474 -130680949 -933488698 1218716945 -1094889196
REM
CELL 1.54180   50.00000   50.00000   50.00000   90.00000   90.00000   90.00000
LATT -1
SFAC C  
C      1  0.4364940000000  0.4409660000000  0.5251740000000 1.0
C      1  0.5345350000000  0.4208710000000  0.5249960000000 1.0
C      1  0.5869170000000  0.5118660000000  0.5251080000000 1.0
C      1  0.5183420000000  0.5845990000000  0.5250360000000 1.0
C      1  0.4231130000000  0.5407980000000  0.5250440000000 1.0
C      1  0.4364940000000  0.4409660000000  0.4763590000000 1.0
C      1  0.5345350000000  0.4208710000000  0.4765380000000 1.0
C      1  0.5869170000000  0.5118660000000  0.4764250000000 1.0
C      1  0.5183420000000  0.5845990000000  0.4764980000000 1.0
C      1  0.4231130000000  0.5407980000000  0.4764900000000 1.0
C      1  0.5713980000000  0.4982850000000  0.5718460000000 1.0
C      1  0.5237120000000  0.5671690000000  0.5707770000000 1.0
C      1  0.4432050000000  0.5433320000000  0.5716870000000 1.0
C      1  0.4414580000000  0.4592490000000  0.5715450000000 1.0
C      1  0.5199930000000  0.4319500000000  0.5706680000000 1.0
C      1  0.5713980000000  0.4982850000000  0.4296880000000 1.0
C      1  0.5237120000000  0.5671690000000  0.4307560000000 1.0
C      1  0.4432050000000  0.5433320000000  0.4298460000000 1.0
C      1  0.4414590000000  0.4592490000000  0.4299890000000 1.0
C      1  0.5199930000000  0.4319490000000  0.4308660000000 1.0
C      1  0.4754430000000  0.5764810000000  0.4671660000000 1.0
C      1  0.4176860000000  0.5013720000000  0.4633360000000 1.0
C      1  0.4715670000000  0.4221690000000  0.4631300000000 1.0
C      1  0.5648430000000  0.4524920000000  0.4670770000000 1.0
C      1  0.5689720000000  0.5471210000000  0.4626840000000 1.0
C      1  0.4754430000000  0.5764810000000  0.5343670000000 1.0
C      1  0.4176860000000  0.5013720000000  0.5381980000000 1.0
C      1  0.4715670000000  0.4221690000000  0.5384040000000 1.0
C      1  0.5648430000000  0.4524920000000  0.5344570000000 1.0
C      1  0.5689720000000  0.5471210000000  0.5388500000000 1.0
C      1  0.4263360000000  0.4981370000000  0.4345550000000 1.0
C      1  0.4782440000000  0.4292290000000  0.4343970000000 1.0
C      1  0.5606730000000  0.4583320000000  0.4369070000000 1.0
C      1  0.5590720000000  0.5447740000000  0.4340910000000 1.0
C      1  0.4753580000000  0.5693850000000  0.4369890000000 1.0
C      1  0.4263360000000  0.4981370000000  0.5669780000000 1.0
C      1  0.4782440000000  0.4292290000000  0.5671370000000 1.0
C      1  0.5606730000000  0.4583320000000  0.5646270000000 1.0
C      1  0.5590720000000  0.5447740000000  0.5674430000000 1.0
C      1  0.4753580000000  0.5693850000000  0.5645450000000 1.0
C      1  0.5343650000000  0.4555260000000  0.5793800000000 1.0
C      1  0.5531500000000  0.5188490000000  0.5814370000000 1.0
C      1  0.4982840000000  0.5562940000000  0.5793390000000 1.0
C      1  0.4460590000000  0.5159250000000  0.5810690000000 1.0
C      1  0.4680730000000  0.4534730000000  0.5815440000000 1.0
C      1  0.5343650000000  0.4555260000000  0.4221540000000 1.0
C      1  0.5531500000000  0.5188490000000  0.4200970000000 1.0
C      1  0.4982840000000  0.5562940000000  0.4221950000000 1.0
C      1  0.4460590000000  0.5159250000000  0.4204650000000 1.0
C      1  0.4680730000000  0.4534730000000  0.4199890000000 1.0
C      1  0.5079990000000  0.4701900000000  0.5487250000000 1.0
C      1  0.5311760000000  0.4982610000000  0.5485620000000 1.0
C      1  0.5115780000000  0.5288870000000  0.5485890000000 1.0
C      1  0.4762670000000  0.5199120000000  0.5485780000000 1.0
C      1  0.4742450000000  0.4836320000000  0.5488300000000 1.0
C      1  0.5080000000000  0.4701900000000  0.4528090000000 1.0
C      1  0.5311760000000  0.4982600000000  0.4529720000000 1.0
C      1  0.5115780000000  0.5288870000000  0.4529450000000 1.0
C      1  0.4762670000000  0.5199120000000  0.4529560000000 1.0
C      1  0.4742450000000  0.4836320000000  0.4527040000000 1.0
C      1  0.5293000000000  0.5601230000000  0.5421070000000 1.0
C      1  0.4498410000000  0.5443640000000  0.5424940000000 1.0
C      1  0.4421340000000  0.4676250000000  0.5426010000000 1.0
C      1  0.5114440000000  0.4344910000000  0.5419610000000 1.0
C      1  0.5668890000000  0.4935210000000  0.5425720000000 1.0
C      1  0.5293000000000  0.5601230000000  0.4594270000000 1.0
C      1  0.4498410000000  0.5443640000000  0.4590400000000 1.0
C      1  0.4421340000000  0.4676250000000  0.4589330000000 1.0
C      1  0.5114440000000  0.4344910000000  0.4595730000000 1.0
C      1  0.5668900000000  0.4935210000000  0.4589610000000 1.0
C      1  0.5175080000000  0.4743360000000  0.4844140000000 1.0
C      1  0.5298160000000  0.5084550000000  0.4844610000000 1.0
C      1  0.5014130000000  0.5309780000000  0.4844570000000 1.0
C      1  0.4713860000000  0.5106610000000  0.4844160000000 1.0
C      1  0.4813140000000  0.4758620000000  0.4843960000000 1.0
C      1  0.5175080000000  0.4743360000000  0.5171200000000 1.0
C      1  0.5298160000000  0.5084550000000  0.5170720000000 1.0
C      1  0.5014130000000  0.5309780000000  0.5170770000000 1.0
C      1  0.4713860000000  0.5106610000000  0.5171170000000 1.0
C      1  0.4813140000000  0.4758620000000  0.5171380000000 1.0
C      1  0.5557920000000  0.5673230000000  0.5177520000000 1.0
C      1  0.4506240000000  0.5714680000000  0.5175100000000 1.0
C      1  0.4169990000000  0.4772360000000  0.5176460000000 1.0
C      1  0.4939620000000  0.4135880000000  0.5175300000000 1.0
C      1  0.5820620000000  0.4709730000000  0.5175250000000 1.0
C      1  0.5557920000000  0.5673230000000  0.4837810000000 1.0
C      1  0.4506240000000  0.5714680000000  0.4840230000000 1.0
C      1  0.4169990000000  0.4772360000000  0.4838880000000 1.0
C      1  0.4939620000000  0.4135880000000  0.4840040000000 1.0
C      1  0.5820620000000  0.4709730000000  0.4840090000000 1.0
C      1  0.4743790000000  0.5073470000000  0.5886070000000 1.0
C      1  0.4852250000000  0.4778360000000  0.5889470000000 1.0
C      1  0.5168160000000  0.4789940000000  0.5888180000000 1.0
C      1  0.5250230000000  0.5092850000000  0.5886170000000 1.0
C      1  0.4988100000000  0.5269420000000  0.5885390000000 1.0
C      1  0.4743790000000  0.5073470000000  0.4129260000000 1.0
C      1  0.4852250000000  0.4778360000000  0.4125860000000 1.0
C      1  0.5168160000000  0.4789940000000  0.4127160000000 1.0
C      1  0.5250240000000  0.5092850000000  0.4129160000000 1.0
C      1  0.4988100000000  0.5269420000000  0.4129940000000 1.0
C      1  0.4660370000000  0.4449010000000  0.5166880000000 1.0
C      1  0.5417790000000  0.4487790000000  0.5167790000000 1.0
C      1  0.5601490000000  0.5256280000000  0.5165550000000 1.0
C      1  0.4963890000000  0.5659290000000  0.5167700000000 1.0
C      1  0.4368360000000  0.5142070000000  0.5165020000000 1.0
C      1  0.4660370000000  0.4449010000000  0.4848450000000 1.0
C      1  0.5417790000000  0.4487790000000  0.4847540000000 1.0
C      1  0.5601490000000  0.5256280000000  0.4849790000000 1.0
C      1  0.4963890000000  0.5659290000000  0.4847640000000 1.0
C      1  0.4368360000000  0.5142070000000  0.4850320000000 1.0
C      1  0.5314200000000  0.4047270000000  0.5007670000000 1.0
C      1  0.4156790000000  0.5552930000000  0.5007670000000 1.0
C      1  0.4204530000000  0.4389410000000  0.5007670000000 1.0
C      1  0.6012690000000  0.5043420000000  0.5007670000000 1.0
C      1  0.5302010000000  0.5959450000000  0.5007670000000 1.0
END
