TITL C-862500-986-602 0.000267161032902564 125000 -666.467329467653 0 0 117 (C1) n - 1
REM
REM in /home/nfs/bkarasulu/CARBON/AIRSS/Generating-Clusters/TERSOFF/Higher-Symm/FIRE-HFTN
REM
REM
REM
REM
REM
REM ./C.cell (b20cbc046b6831c77cfcea5457e17084)
REM AIRSS Version 0.9.1 bugfix July 2018 build 013d7b7c2542+ Fri, 06 Jul 2018 19:26:36 +0100
REM compiler GCC version 9.2.1 20190827 (Red Hat 9.2.1-1)
REM options -cpp -mtune=generic -march=x86-64 -g -O0 -fpre-include=/usr/include/finclude/math-vector-fortran.h
REM seed -324356883 1764354727 645793629 1861635156 -403422275 1641723133 1709008527 76977641 -1566216680 339372588 350602370 1182297201 -717905200 1897438622 -845404147 2011330204 -2116429359 -488545230 775789056 640721369 -1658098020 -958107781 121851042 1979746743 -227195473 622893350 1181695610 1581775999 -512448189 -1429919123 -1708474804 1551805191 -718800492
REM
CELL 1.54180   50.00000   50.00000   50.00000   90.00000   90.00000   90.00000
LATT -1
SFAC C  
C      1  0.5755910000000  0.5143380000000  0.4603270000000 1.0
C      1  0.4236700000000  0.4855300000000  0.5398610000000 1.0
C      1  0.4387480000000  0.4675470000000  0.4566190000000 1.0
C      1  0.5606650000000  0.5325780000000  0.5438000000000 1.0
C      1  0.4467360000000  0.5619160000000  0.5137890000000 1.0
C      1  0.5496690000000  0.4392890000000  0.4865120000000 1.0
C      1  0.4162260000000  0.5037070000000  0.4573560000000 1.0
C      1  0.5843250000000  0.4959160000000  0.5430010000000 1.0
C      1  0.4305770000000  0.4643880000000  0.5206470000000 1.0
C      1  0.5689090000000  0.5356350000000  0.4797070000000 1.0
C      1  0.4394690000000  0.4939700000000  0.4155130000000 1.0
C      1  0.5608790000000  0.5058990000000  0.5842250000000 1.0
C      1  0.4216270000000  0.4348690000000  0.4835770000000 1.0
C      1  0.5781840000000  0.5649520000000  0.5169470000000 1.0
C      1  0.5083280000000  0.4740650000000  0.5304960000000 1.0
C      1  0.4933680000000  0.5236640000000  0.4721270000000 1.0
C      1  0.5397510000000  0.5318530000000  0.4893020000000 1.0
C      1  0.4585800000000  0.4690130000000  0.5097540000000 1.0
C      1  0.4879640000000  0.5509420000000  0.5413960000000 1.0
C      1  0.5116530000000  0.4474790000000  0.4560380000000 1.0
C      1  0.4598410000000  0.5378780000000  0.5003970000000 1.0
C      1  0.5362450000000  0.4638000000000  0.4988120000000 1.0
C      1  0.5604630000000  0.4214810000000  0.5066870000000 1.0
C      1  0.4374720000000  0.5802430000000  0.4928850000000 1.0
C      1  0.5044630000000  0.5369060000000  0.5814650000000 1.0
C      1  0.4960890000000  0.4633050000000  0.4168790000000 1.0
C      1  0.5095360000000  0.5859940000000  0.4811610000000 1.0
C      1  0.4896120000000  0.4148310000000  0.5196860000000 1.0
C      1  0.5147320000000  0.4942940000000  0.6039030000000 1.0
C      1  0.4855650000000  0.5066620000000  0.3961810000000 1.0
C      1  0.4517780000000  0.4583520000000  0.5743760000000 1.0
C      1  0.5480880000000  0.5420670000000  0.4262380000000 1.0
C      1  0.4809070000000  0.4703920000000  0.5784200000000 1.0
C      1  0.5194650000000  0.5292370000000  0.4226690000000 1.0
C      1  0.4129100000000  0.4626280000000  0.4954540000000 1.0
C      1  0.5864250000000  0.5369560000000  0.5049510000000 1.0
C      1  0.5395510000000  0.4296520000000  0.5512310000000 1.0
C      1  0.4612120000000  0.5694570000000  0.4499380000000 1.0
C      1  0.5503360000000  0.4903550000000  0.4975000000000 1.0
C      1  0.4467870000000  0.5105420000000  0.5015050000000 1.0
C      1  0.4502490000000  0.5344870000000  0.5557200000000 1.0
C      1  0.5506160000000  0.4638160000000  0.4428880000000 1.0
C      1  0.4444060000000  0.5026830000000  0.5841530000000 1.0
C      1  0.5564690000000  0.4981990000000  0.4147950000000 1.0
C      1  0.4760760000000  0.5707600000000  0.5250910000000 1.0
C      1  0.5234620000000  0.4282400000000  0.4727670000000 1.0
C      1  0.5149450000000  0.5577640000000  0.4949080000000 1.0
C      1  0.4829940000000  0.4428060000000  0.5055580000000 1.0
C      1  0.4617870000000  0.4412290000000  0.5504040000000 1.0
C      1  0.5388300000000  0.5591090000000  0.4504210000000 1.0
C      1  0.4936150000000  0.5954410000000  0.5227500000000 1.0
C      1  0.5056810000000  0.4045090000000  0.4775630000000 1.0
C      1  0.4572800000000  0.4828890000000  0.4799150000000 1.0
C      1  0.5415340000000  0.5174660000000  0.5203370000000 1.0
C      1  0.5954340000000  0.5078430000000  0.5172100000000 1.0
C      1  0.4040780000000  0.4915810000000  0.4827480000000 1.0
C      1  0.5765680000000  0.5161980000000  0.5625500000000 1.0
C      1  0.4233890000000  0.4837210000000  0.4370090000000 1.0
C      1  0.5336450000000  0.4896570000000  0.5359940000000 1.0
C      1  0.4671200000000  0.5091460000000  0.4648180000000 1.0
C      1  0.5635510000000  0.5618360000000  0.5424250000000 1.0
C      1  0.4363440000000  0.4381680000000  0.4580790000000 1.0
C      1  0.4572710000000  0.5544990000000  0.5765280000000 1.0
C      1  0.5432890000000  0.4433230000000  0.4227930000000 1.0
C      1  0.4946360000000  0.4571630000000  0.5524080000000 1.0
C      1  0.5067760000000  0.5416180000000  0.4499690000000 1.0
C      1  0.5238110000000  0.5950890000000  0.5260830000000 1.0
C      1  0.4757210000000  0.4053420000000  0.4742960000000 1.0
C      1  0.5186040000000  0.5217030000000  0.5584920000000 1.0
C      1  0.4822250000000  0.4784210000000  0.4405030000000 1.0
C      1  0.3999960000000  0.5105360000000  0.5044370000000 1.0
C      1  0.5981930000000  0.4887670000000  0.4955490000000 1.0
C      1  0.5136010000000  0.4426050000000  0.4269510000000 1.0
C      1  0.4863380000000  0.5558830000000  0.5702930000000 1.0
C      1  0.4994960000000  0.5324260000000  0.4005340000000 1.0
C      1  0.5005200000000  0.4684340000000  0.6010830000000 1.0
C      1  0.4570650000000  0.5879010000000  0.4726400000000 1.0
C      1  0.5423650000000  0.4124850000000  0.5274350000000 1.0
C      1  0.4988020000000  0.5189230000000  0.5281950000000 1.0
C      1  0.5046070000000  0.4796760000000  0.4689450000000 1.0
C      1  0.5350550000000  0.5722920000000  0.5425620000000 1.0
C      1  0.4651290000000  0.4286980000000  0.4583830000000 1.0
C      1  0.5420860000000  0.6004180000000  0.5034110000000 1.0
C      1  0.4577030000000  0.3997370000000  0.4969500000000 1.0
C      1  0.4746190000000  0.4513320000000  0.4753540000000 1.0
C      1  0.5262720000000  0.5501640000000  0.5244080000000 1.0
C      1  0.4318250000000  0.5404170000000  0.5339950000000 1.0
C      1  0.5668450000000  0.4584890000000  0.4664020000000 1.0
C      1  0.5606050000000  0.5632470000000  0.4708110000000 1.0
C      1  0.4398850000000  0.4371290000000  0.5296770000000 1.0
C      1  0.4678060000000  0.4974010000000  0.4191180000000 1.0
C      1  0.5325840000000  0.5026490000000  0.5805570000000 1.0
C      1  0.4411240000000  0.5227500000000  0.4578050000000 1.0
C      1  0.5596690000000  0.4767070000000  0.5430900000000 1.0
C      1  0.4896630000000  0.5663580000000  0.4412050000000 1.0
C      1  0.5114140000000  0.4325190000000  0.5609070000000 1.0
C      1  0.4229430000000  0.5121330000000  0.5228920000000 1.0
C      1  0.5751740000000  0.4874070000000  0.4772980000000 1.0
C      1  0.5078960000000  0.5873230000000  0.4511500000000 1.0
C      1  0.4924730000000  0.4127040000000  0.5497330000000 1.0
C      1  0.5172150000000  0.4007540000000  0.5177380000000 1.0
C      1  0.4819090000000  0.5999230000000  0.4827010000000 1.0
C      1  0.4891430000000  0.5396940000000  0.5000600000000 1.0
C      1  0.5059710000000  0.4631230000000  0.5016930000000 1.0
C      1  0.4314950000000  0.4810930000000  0.5686850000000 1.0
C      1  0.5685600000000  0.5195060000000  0.4313640000000 1.0
C      1  0.4743260000000  0.5006910000000  0.5791860000000 1.0
C      1  0.5264830000000  0.4990850000000  0.4199170000000 1.0
C      1  0.5632360000000  0.5814340000000  0.4952650000000 1.0
C      1  0.4367690000000  0.4186790000000  0.5053410000000 1.0
C      1  0.4716600000000  0.5135440000000  0.5512870000000 1.0
C      1  0.5295500000000  0.4841610000000  0.4461510000000 1.0
C      1  0.5073100000000  0.4854370000000  0.4006060000000 1.0
C      1  0.4932780000000  0.5151760000000  0.5979350000000 1.0
C      1  0.5596120000000  0.4505430000000  0.5560540000000 1.0
C      1  0.4414430000000  0.5486910000000  0.4447890000000 1.0
C      1  0.5095870000000  0.5038050000000  0.4962170000000 1.0
END
