TITL C-862506-1665-1187 -1.68612173684417e-06 125000 -430.771227173908 0 0 68 (D2h) n - 1
REM
REM in /home/nfs/bkarasulu/CARBON/AIRSS/Generating-Clusters/TERSOFF/Higher-Symm/FIRE-HFTN
REM
REM
REM
REM
REM
REM ./C.cell (b20cbc046b6831c77cfcea5457e17084)
REM AIRSS Version 0.9.1 bugfix July 2018 build 013d7b7c2542+ Fri, 06 Jul 2018 19:26:36 +0100
REM compiler GCC version 9.2.1 20190827 (Red Hat 9.2.1-1)
REM options -cpp -mtune=generic -march=x86-64 -g -O0 -fpre-include=/usr/include/finclude/math-vector-fortran.h
REM seed 1575024815 1471522410 -1177131754 -1945584735 -507580768 1298247245 -710972838 -2034760109 -1096931439 -1685314080 -451058183 -1511158654 -959818650 -1836343884 412064944 815745859 718992245 -1622649495 1811550284 -1217234561 -328550285 1461880960 1592364851 -290055507 -679745538 -1442751557 1777402875 -95635125 -865371658 -1359685565 -510519796 1921759027 1630246281
REM
CELL 1.54180   50.00000   50.00000   50.00000   90.00000   90.00000   90.00000
LATT -1
SFAC C  
C      1  0.5469630000000  0.5151780000000  0.4484380000000 1.0
C      1  0.4530370000000  0.4848220000000  0.4484380000000 1.0
C      1  0.5469630000000  0.5151780000000  0.5515620000000 1.0
C      1  0.4530370000000  0.4848220000000  0.5515620000000 1.0
C      1  0.5469630000000  0.4848220000000  0.4484380000000 1.0
C      1  0.4530370000000  0.5151780000000  0.4484380000000 1.0
C      1  0.5469630000000  0.4848220000000  0.5515620000000 1.0
C      1  0.4530370000000  0.5151780000000  0.5515620000000 1.0
C      1  0.5164620000000  0.5619520000000  0.5315850000000 1.0
C      1  0.4835380000000  0.4380480000000  0.5315850000000 1.0
C      1  0.5164620000000  0.5619520000000  0.4684150000000 1.0
C      1  0.4835380000000  0.4380480000000  0.4684150000000 1.0
C      1  0.5164620000000  0.4380480000000  0.5315850000000 1.0
C      1  0.4835380000000  0.5619520000000  0.5315850000000 1.0
C      1  0.5164620000000  0.4380480000000  0.4684150000000 1.0
C      1  0.4835380000000  0.5619520000000  0.4684150000000 1.0
C      1  0.5307220000000  0.5294260000000  0.5715820000000 1.0
C      1  0.4692780000000  0.4705740000000  0.5715820000000 1.0
C      1  0.5307220000000  0.5294260000000  0.4284180000000 1.0
C      1  0.4692780000000  0.4705740000000  0.4284180000000 1.0
C      1  0.5307220000000  0.4705740000000  0.5715820000000 1.0
C      1  0.4692780000000  0.5294260000000  0.5715820000000 1.0
C      1  0.5307220000000  0.4705740000000  0.4284180000000 1.0
C      1  0.4692780000000  0.5294260000000  0.4284180000000 1.0
C      1  0.4444140000000  0.4694020000000  0.5280350000000 1.0
C      1  0.5555860000000  0.5305980000000  0.5280350000000 1.0
C      1  0.4444140000000  0.4694020000000  0.4719650000000 1.0
C      1  0.5555860000000  0.5305980000000  0.4719650000000 1.0
C      1  0.4444140000000  0.5305980000000  0.5280350000000 1.0
C      1  0.5555860000000  0.4694020000000  0.5280350000000 1.0
C      1  0.4444140000000  0.5305980000000  0.4719650000000 1.0
C      1  0.5555860000000  0.4694020000000  0.4719650000000 1.0
C      1  0.5155550000000  0.5528740000000  0.5625710000000 1.0
C      1  0.4844450000000  0.4471260000000  0.5625710000000 1.0
C      1  0.5155550000000  0.5528740000000  0.4374290000000 1.0
C      1  0.4844450000000  0.4471260000000  0.4374290000000 1.0
C      1  0.5155550000000  0.4471260000000  0.5625710000000 1.0
C      1  0.4844450000000  0.5528740000000  0.5625710000000 1.0
C      1  0.5155550000000  0.4471260000000  0.4374290000000 1.0
C      1  0.4844450000000  0.5528740000000  0.4374290000000 1.0
C      1  0.5225770000000  0.4856000000000  0.4049230000000 1.0
C      1  0.4774230000000  0.5144000000000  0.4049230000000 1.0
C      1  0.5225770000000  0.4856000000000  0.5950770000000 1.0
C      1  0.4774230000000  0.5144000000000  0.5950770000000 1.0
C      1  0.5225770000000  0.5144000000000  0.4049230000000 1.0
C      1  0.4774230000000  0.4856000000000  0.4049230000000 1.0
C      1  0.5225770000000  0.5144000000000  0.5950770000000 1.0
C      1  0.4774230000000  0.4856000000000  0.5950770000000 1.0
C      1  0.5359730000000  0.5477530000000  0.4853450000000 1.0
C      1  0.4640270000000  0.4522470000000  0.4853450000000 1.0
C      1  0.5359730000000  0.5477530000000  0.5146550000000 1.0
C      1  0.4640270000000  0.4522470000000  0.5146550000000 1.0
C      1  0.5359730000000  0.4522470000000  0.4853450000000 1.0
C      1  0.4640270000000  0.5477530000000  0.4853450000000 1.0
C      1  0.5359730000000  0.4522470000000  0.5146550000000 1.0
C      1  0.4640270000000  0.5477530000000  0.5146550000000 1.0
C      1  0.4189170000000  0.4755500000000  0.4850350000000 1.0
C      1  0.5810830000000  0.5244500000000  0.4850350000000 1.0
C      1  0.4189170000000  0.4755500000000  0.5149650000000 1.0
C      1  0.5810830000000  0.5244500000000  0.5149650000000 1.0
C      1  0.4189170000000  0.5244500000000  0.4850350000000 1.0
C      1  0.5810830000000  0.4755500000000  0.4850350000000 1.0
C      1  0.4189170000000  0.5244500000000  0.5149650000000 1.0
C      1  0.5810830000000  0.4755500000000  0.5149650000000 1.0
C      1  0.4064580000000  0.5000000000000  0.5250110000000 1.0
C      1  0.5935420000000  0.5000000000000  0.4749890000000 1.0
C      1  0.5935420000000  0.5000000000000  0.5250110000000 1.0
C      1  0.4064580000000  0.5000000000000  0.4749890000000 1.0
END
