TITL C-862502-1143-812 -0.0198116125107253 125000 -511.874174717117 0 0 93 (C2v) n - 1
REM
REM in /home/nfs/bkarasulu/CARBON/AIRSS/Generating-Clusters/TERSOFF/Higher-Symm/FIRE-HFTN
REM
REM
REM
REM
REM
REM ./C.cell (b20cbc046b6831c77cfcea5457e17084)
REM AIRSS Version 0.9.1 bugfix July 2018 build 013d7b7c2542+ Fri, 06 Jul 2018 19:26:36 +0100
REM compiler GCC version 9.2.1 20190827 (Red Hat 9.2.1-1)
REM options -cpp -mtune=generic -march=x86-64 -g -O0 -fpre-include=/usr/include/finclude/math-vector-fortran.h
REM seed -1588342265 -369430924 850124859 545080333 1911200769 -2014273468 1895425875 -1974820571 -1446106144 1015274391 -1191505276 -2049122798 -1868456934 2022524778 -1868631333 -1989472851 754491344 707540048 -1902482764 -1060762340 386947348 1121765361 -1378636766 1743720036 -599030154 -1560334295 141266164 537469164 -1749306877 1482535480 -2091610642 1394831885 -1329729229
REM
CELL 1.54180   50.00000   50.00000   50.00000   90.00000   90.00000   90.00000
LATT -1
SFAC C  
C      1  0.4428850000000  0.5244270000000  0.4738100000000 1.0
C      1  0.4428850000000  0.4759190000000  0.5257420000000 1.0
C      1  0.4428850000000  0.4759190000000  0.4738100000000 1.0
C      1  0.4428850000000  0.5244270000000  0.5257420000000 1.0
C      1  0.4544670000000  0.4832880000000  0.5552850000000 1.0
C      1  0.4544680000000  0.5170580000000  0.4442680000000 1.0
C      1  0.4544670000000  0.5170570000000  0.5552850000000 1.0
C      1  0.4544680000000  0.4832890000000  0.4442670000000 1.0
C      1  0.5253480000000  0.5873660000000  0.4846740000000 1.0
C      1  0.5253480000000  0.4129800000000  0.5148800000000 1.0
C      1  0.5253480000000  0.4129800000000  0.4846730000000 1.0
C      1  0.5253480000000  0.5873650000000  0.5148810000000 1.0
C      1  0.5032600000000  0.4292670000000  0.5275310000000 1.0
C      1  0.5032610000000  0.5710790000000  0.4720220000000 1.0
C      1  0.5032610000000  0.5710790000000  0.5275320000000 1.0
C      1  0.5032610000000  0.4292670000000  0.4720210000000 1.0
C      1  0.4140160000000  0.5155830000000  0.5159140000000 1.0
C      1  0.4140160000000  0.4847640000000  0.4836380000000 1.0
C      1  0.4140160000000  0.4847640000000  0.5159130000000 1.0
C      1  0.4140160000000  0.5155830000000  0.4836380000000 1.0
C      1  0.5552850000000  0.5787100000000  0.4826420000000 1.0
C      1  0.5552840000000  0.4216360000000  0.5169120000000 1.0
C      1  0.5552840000000  0.4216360000000  0.4826410000000 1.0
C      1  0.5552840000000  0.5787090000000  0.5169130000000 1.0
C      1  0.5366030000000  0.4785710000000  0.5141140000000 1.0
C      1  0.5366030000000  0.5217750000000  0.4854400000000 1.0
C      1  0.5366030000000  0.5217740000000  0.5141140000000 1.0
C      1  0.5366030000000  0.4785710000000  0.4854400000000 1.0
C      1  0.5552980000000  0.4417770000000  0.4611490000000 1.0
C      1  0.5552970000000  0.5585690000000  0.5384050000000 1.0
C      1  0.5552980000000  0.5585700000000  0.4611500000000 1.0
C      1  0.5552970000000  0.4417760000000  0.5384050000000 1.0
C      1  0.5037010000000  0.5682050000000  0.5598120000000 1.0
C      1  0.5037020000000  0.4321410000000  0.4397410000000 1.0
C      1  0.5037010000000  0.4321400000000  0.5598110000000 1.0
C      1  0.5037020000000  0.5682060000000  0.4397420000000 1.0
C      1  0.4682010000000  0.4322130000000  0.4411310000000 1.0
C      1  0.4682000000000  0.5681330000000  0.5584220000000 1.0
C      1  0.4682020000000  0.5681340000000  0.4411320000000 1.0
C      1  0.4682000000000  0.4322130000000  0.5584210000000 1.0
C      1  0.4787010000000  0.4161910000000  0.4848310000000 1.0
C      1  0.4787010000000  0.5841550000000  0.5147220000000 1.0
C      1  0.4787010000000  0.5841550000000  0.4848320000000 1.0
C      1  0.4787010000000  0.4161910000000  0.5147210000000 1.0
C      1  0.4573010000000  0.5744590000000  0.5317030000000 1.0
C      1  0.4573010000000  0.4258870000000  0.4678490000000 1.0
C      1  0.4573010000000  0.4258860000000  0.5317020000000 1.0
C      1  0.4573010000000  0.5744600000000  0.4678500000000 1.0
C      1  0.5367110000000  0.4353890000000  0.5618650000000 1.0
C      1  0.5367130000000  0.5649570000000  0.4376890000000 1.0
C      1  0.5367120000000  0.5649560000000  0.5618660000000 1.0
C      1  0.5367120000000  0.4353890000000  0.4376880000000 1.0
C      1  0.4399520000000  0.4461730000000  0.4787800000000 1.0
C      1  0.4399520000000  0.5541730000000  0.5207720000000 1.0
C      1  0.4399520000000  0.5541740000000  0.4787810000000 1.0
C      1  0.4399510000000  0.4461730000000  0.5207710000000 1.0
C      1  0.5833830000000  0.5165360000000  0.5163610000000 1.0
C      1  0.5833830000000  0.4838100000000  0.4831940000000 1.0
C      1  0.5833830000000  0.4838100000000  0.5163610000000 1.0
C      1  0.5833830000000  0.5165360000000  0.4831940000000 1.0
C      1  0.5492010000000  0.5154980000000  0.4426920000000 1.0
C      1  0.5492000000000  0.4848470000000  0.5568620000000 1.0
C      1  0.5492010000000  0.4848480000000  0.4426920000000 1.0
C      1  0.5492000000000  0.5154980000000  0.5568620000000 1.0
C      1  0.5160770000000  0.4836550000000  0.5577470000000 1.0
C      1  0.5160780000000  0.5166910000000  0.4418070000000 1.0
C      1  0.5160770000000  0.5166900000000  0.5577470000000 1.0
C      1  0.5160780000000  0.4836550000000  0.4418060000000 1.0
C      1  0.5101790000000  0.4827280000000  0.5271910000000 1.0
C      1  0.5101800000000  0.5176180000000  0.4723630000000 1.0
C      1  0.5101800000000  0.5176180000000  0.5271910000000 1.0
C      1  0.5101800000000  0.4827280000000  0.4723630000000 1.0
C      1  0.4864200000000  0.5172160000000  0.5719780000000 1.0
C      1  0.4864210000000  0.4831300000000  0.4275750000000 1.0
C      1  0.4864200000000  0.4831290000000  0.5719780000000 1.0
C      1  0.4864210000000  0.5172170000000  0.4275750000000 1.0
C      1  0.4990110000000  0.5431100000000  0.5143080000000 1.0
C      1  0.4990110000000  0.4572360000000  0.4852460000000 1.0
C      1  0.4990100000000  0.4572360000000  0.5143070000000 1.0
C      1  0.4990110000000  0.5431100000000  0.4852460000000 1.0
C      1  0.4956070000000  0.4549960000000  0.4189320000000 1.0
C      1  0.4956050000000  0.5453500000000  0.5806210000000 1.0
C      1  0.4956070000000  0.5453510000000  0.4189320000000 1.0
C      1  0.4956050000000  0.4549950000000  0.5806210000000 1.0
C      1  0.5598570000000  0.5293360000000  0.5313720000000 1.0
C      1  0.5598580000000  0.4710100000000  0.4681820000000 1.0
C      1  0.5598570000000  0.4710090000000  0.5313720000000 1.0
C      1  0.5598580000000  0.5293360000000  0.4681830000000 1.0
C      1  0.4548720000000  0.4554760000000  0.4291490000000 1.0
C      1  0.4548710000000  0.5448700000000  0.5704040000000 1.0
C      1  0.4548720000000  0.5448710000000  0.4291490000000 1.0
C      1  0.4548700000000  0.4554750000000  0.5704030000000 1.0
C      1  0.4514030000000  0.5001730000000  0.4997760000000 1.0
END
