TITL C-862134-6730-1089 6.48394999707461e-06 125000 -188.106610042321 0 0 37 (C3) n - 1
REM
REM in /home/nfs/bkarasulu/CARBON/AIRSS/Generating-Clusters/TERSOFF/Higher-Symm/FIRE-HFTN
REM
REM
REM
REM
REM
REM ./C.cell (b20cbc046b6831c77cfcea5457e17084)
REM AIRSS Version 0.9.1 bugfix July 2018 build 013d7b7c2542+ Fri, 06 Jul 2018 19:26:36 +0100
REM compiler GCC version 9.2.1 20190827 (Red Hat 9.2.1-1)
REM options -cpp -mtune=generic -march=x86-64 -g -O0 -fpre-include=/usr/include/finclude/math-vector-fortran.h
REM seed -456483433 1575617969 1468847661 -1811244704 -118049201 1998557431 -946171859 -1108453110 -1989853636 125325720 1589982001 -1546963757 1294504901 461290987 -1299067168 2126354919 1378107042 -1181322926 -810246220 954480753 -811418644 366429405 561281759 700519610 -1788675254 -2037389231 -687499740 248695222 673414771 1957403288 1306787536 -536104104 1324082805
REM
CELL 1.54180   50.00000   50.00000   50.00000   90.00000   90.00000   90.00000
LATT -1
SFAC C  
C      1  0.4312750000000  0.4647890000000  0.5415850000000 1.0
C      1  0.4312330000000  0.5540710000000  0.5084970000000 1.0
C      1  0.4312420000000  0.4807750000000  0.4477210000000 1.0
C      1  0.5654260000000  0.4695470000000  0.5318260000000 1.0
C      1  0.5653920000000  0.5433470000000  0.5092400000000 1.0
C      1  0.5653980000000  0.4868880000000  0.4566210000000 1.0
C      1  0.4312440000000  0.5371260000000  0.5348000000000 1.0
C      1  0.4312700000000  0.4504830000000  0.5137590000000 1.0
C      1  0.4312290000000  0.5120270000000  0.4492450000000 1.0
C      1  0.5667440000000  0.5288730000000  0.5345700000000 1.0
C      1  0.5667630000000  0.4548490000000  0.5066250000000 1.0
C      1  0.5667260000000  0.5160620000000  0.4564900000000 1.0
C      1  0.5175920000000  0.5189030000000  0.4548020000000 1.0
C      1  0.5176310000000  0.4519270000000  0.5050150000000 1.0
C      1  0.5176130000000  0.5289000000000  0.5379110000000 1.0
C      1  0.4863170000000  0.5183200000000  0.4689600000000 1.0
C      1  0.4863460000000  0.4644540000000  0.4984440000000 1.0
C      1  0.4863360000000  0.5169210000000  0.5303510000000 1.0
C      1  0.5181990000000  0.4910950000000  0.4703330000000 1.0
C      1  0.5181950000000  0.5293540000000  0.5060630000000 1.0
C      1  0.5182180000000  0.4792820000000  0.5213320000000 1.0
C      1  0.4869520000000  0.4819850000000  0.4698210000000 1.0
C      1  0.4869420000000  0.5343430000000  0.4984530000000 1.0
C      1  0.4869690000000  0.4833680000000  0.5294810000000 1.0
C      1  0.5433310000000  0.4531100000000  0.4886840000000 1.0
C      1  0.5433250000000  0.5141870000000  0.5450490000000 1.0
C      1  0.5432950000000  0.5324620000000  0.4639730000000 1.0
C      1  0.4531560000000  0.4671140000000  0.4979850000000 1.0
C      1  0.4531470000000  0.5151670000000  0.5282820000000 1.0
C      1  0.4531300000000  0.5173790000000  0.4715180000000 1.0
C      1  0.5414640000000  0.5419810000000  0.4921740000000 1.0
C      1  0.5414980000000  0.4850030000000  0.5391940000000 1.0
C      1  0.5414810000000  0.4727710000000  0.4663400000000 1.0
C      1  0.4529230000000  0.5322010000000  0.4991740000000 1.0
C      1  0.4529490000000  0.4838050000000  0.5272910000000 1.0
C      1  0.4529330000000  0.4836530000000  0.4713200000000 1.0
C      1  0.5193530000000  0.4999110000000  0.4992420000000 1.0
END
