TITL C-862506-1665-1267 0.0332356732996533 125000 -1059.80195603439 0 0 182 (C3) n - 1
REM
REM in /home/nfs/bkarasulu/CARBON/AIRSS/Generating-Clusters/TERSOFF/Higher-Symm/FIRE-HFTN
REM
REM
REM
REM
REM
REM ./C.cell (b20cbc046b6831c77cfcea5457e17084)
REM AIRSS Version 0.9.1 bugfix July 2018 build 013d7b7c2542+ Fri, 06 Jul 2018 19:26:36 +0100
REM compiler GCC version 9.2.1 20190827 (Red Hat 9.2.1-1)
REM options -cpp -mtune=generic -march=x86-64 -g -O0 -fpre-include=/usr/include/finclude/math-vector-fortran.h
REM seed 407268598 255023701 -1978098224 1016892397 591650670 785394502 880452147 -1688787427 -1971259408 1605431571 527205111 -1982778910 -1902245077 -377172208 742887111 -1535825740 -1551289499 -1459819490 -1796248162 782002968 -2007804375 635510669 469495801 224774848 -469511235 -467235459 -1126041862 2070548164 -202607934 -1629843735 639060677 -447877264 599569003
REM
CELL 1.54180   50.00000   50.00000   50.00000   90.00000   90.00000   90.00000
LATT -1
SFAC C  
C      1  0.4508170000000  0.4620200000000  0.4032030000000 1.0
C      1  0.4508150000000  0.4353150000000  0.5816650000000 1.0
C      1  0.4508180000000  0.6032210000000  0.5155610000000 1.0
C      1  0.5382480000000  0.5657600000000  0.4474850000000 1.0
C      1  0.5382460000000  0.4217930000000  0.4696830000000 1.0
C      1  0.5382460000000  0.5130000000000  0.5832630000000 1.0
C      1  0.5369330000000  0.4419500000000  0.5563170000000 1.0
C      1  0.5369360000000  0.5779490000000  0.5224890000000 1.0
C      1  0.5369350000000  0.4806540000000  0.4216250000000 1.0
C      1  0.5866280000000  0.4991730000000  0.5311010000000 1.0
C      1  0.5866280000000  0.5274990000000  0.4855400000000 1.0
C      1  0.5866280000000  0.4738790000000  0.4837900000000 1.0
C      1  0.5847310000000  0.4704780000000  0.5444200000000 1.0
C      1  0.5847320000000  0.5533810000000  0.5037320000000 1.0
C      1  0.5847310000000  0.4766920000000  0.4522800000000 1.0
C      1  0.5738040000000  0.5023200000000  0.4412450000000 1.0
C      1  0.5738030000000  0.4481080000000  0.5277440000000 1.0
C      1  0.5738040000000  0.5501240000000  0.5314430000000 1.0
C      1  0.4807820000000  0.4963430000000  0.5282540000000 1.0
C      1  0.4807820000000  0.5264510000000  0.4894150000000 1.0
C      1  0.4807820000000  0.4777620000000  0.4827610000000 1.0
C      1  0.5007880000000  0.6044010000000  0.5266150000000 1.0
C      1  0.5007870000000  0.4710020000000  0.3966540000000 1.0
C      1  0.5007850000000  0.4251520000000  0.5771610000000 1.0
C      1  0.4823300000000  0.4529850000000  0.6173880000000 1.0
C      1  0.4823340000000  0.6253220000000  0.4823970000000 1.0
C      1  0.4823310000000  0.4222480000000  0.4006440000000 1.0
C      1  0.5278960000000  0.4971470000000  0.6082050000000 1.0
C      1  0.5278990000000  0.5952870000000  0.4487430000000 1.0
C      1  0.5278960000000  0.4081190000000  0.4434830000000 1.0
C      1  0.6021140000000  0.5210200000000  0.5498680000000 1.0
C      1  0.6021150000000  0.5328280000000  0.4572370000000 1.0
C      1  0.6021140000000  0.4467030000000  0.4933270000000 1.0
C      1  0.4947280000000  0.4442450000000  0.3850940000000 1.0
C      1  0.4947260000000  0.4285200000000  0.6061140000000 1.0
C      1  0.4947300000000  0.6277910000000  0.5092220000000 1.0
C      1  0.4445730000000  0.4018900000000  0.4569890000000 1.0
C      1  0.4445730000000  0.5119610000000  0.6068470000000 1.0
C      1  0.4445760000000  0.5867060000000  0.4365930000000 1.0
C      1  0.4641410000000  0.5241800000000  0.4245430000000 1.0
C      1  0.4641390000000  0.4227170000000  0.5171630000000 1.0
C      1  0.4641400000000  0.5536600000000  0.5587230000000 1.0
C      1  0.4347170000000  0.4456510000000  0.4253370000000 1.0
C      1  0.4347160000000  0.4626700000000  0.5847740000000 1.0
C      1  0.4347180000000  0.5922370000000  0.4903170000000 1.0
C      1  0.5038190000000  0.4736650000000  0.5815180000000 1.0
C      1  0.5038220000000  0.5839170000000  0.4824230000000 1.0
C      1  0.5038200000000  0.4429720000000  0.4364890000000 1.0
C      1  0.4049240000000  0.4429360000000  0.5469850000000 1.0
C      1  0.4049260000000  0.5693780000000  0.5263020000000 1.0
C      1  0.4049260000000  0.4882450000000  0.4271410000000 1.0
C      1  0.5273020000000  0.5482280000000  0.5224720000000 1.0
C      1  0.5273020000000  0.4955000000000  0.4473720000000 1.0
C      1  0.5273000000000  0.4568250000000  0.5305860000000 1.0
C      1  0.4272720000000  0.5321970000000  0.4974490000000 1.0
C      1  0.4272710000000  0.4818480000000  0.4737680000000 1.0
C      1  0.4272710000000  0.4865140000000  0.5292120000000 1.0
C      1  0.4974490000000  0.5208950000000  0.3979220000000 1.0
C      1  0.4974460000000  0.4013040000000  0.5333190000000 1.0
C      1  0.4974480000000  0.5783560000000  0.5691890000000 1.0
C      1  0.4464470000000  0.5433840000000  0.4085610000000 1.0
C      1  0.4464440000000  0.3992740000000  0.5085230000000 1.0
C      1  0.4464460000000  0.5578990000000  0.5833450000000 1.0
C      1  0.6290320000000  0.4414600000000  0.4835400000000 1.0
C      1  0.6290320000000  0.5151650000000  0.5593020000000 1.0
C      1  0.6290330000000  0.5439250000000  0.4575910000000 1.0
C      1  0.5646480000000  0.4332880000000  0.4651000000000 1.0
C      1  0.5646480000000  0.5032830000000  0.5756000000000 1.0
C      1  0.5646500000000  0.5639810000000  0.4597320000000 1.0
C      1  0.4872820000000  0.4954300000000  0.3862640000000 1.0
C      1  0.4872790000000  0.4039410000000  0.5612010000000 1.0
C      1  0.4872820000000  0.6011850000000  0.5529640000000 1.0
C      1  0.4143570000000  0.5275570000000  0.5542850000000 1.0
C      1  0.4143570000000  0.5333900000000  0.4493670000000 1.0
C      1  0.4143560000000  0.4396120000000  0.4967760000000 1.0
C      1  0.4845720000000  0.4730370000000  0.5112280000000 1.0
C      1  0.4845730000000  0.5233580000000  0.5181120000000 1.0
C      1  0.4845730000000  0.5041600000000  0.4710900000000 1.0
C      1  0.5621240000000  0.4283680000000  0.5870490000000 1.0
C      1  0.5621270000000  0.6113550000000  0.5188860000000 1.0
C      1  0.5621260000000  0.4608300000000  0.3944960000000 1.0
C      1  0.5113210000000  0.4397690000000  0.4655390000000 1.0
C      1  0.5113210000000  0.5004240000000  0.5697680000000 1.0
C      1  0.5113230000000  0.5603610000000  0.4651240000000 1.0
C      1  0.5004780000000  0.5075380000000  0.4471010000000 1.0
C      1  0.5004770000000  0.4505720000000  0.5202960000000 1.0
C      1  0.5004780000000  0.5424440000000  0.5330330000000 1.0
C      1  0.4095760000000  0.5779320000000  0.4979330000000 1.0
C      1  0.4095750000000  0.4594000000000  0.4339180000000 1.0
C      1  0.4095740000000  0.4632280000000  0.5685770000000 1.0
C      1  0.5118410000000  0.5594440000000  0.4063240000000 1.0
C      1  0.5118370000000  0.3893050000000  0.4957330000000 1.0
C      1  0.5118390000000  0.5518050000000  0.5983730000000 1.0
C      1  0.4882160000000  0.5176150000000  0.5646100000000 1.0
C      1  0.4882170000000  0.5473000000000  0.4528150000000 1.0
C      1  0.4882150000000  0.4356400000000  0.4830050000000 1.0
C      1  0.4598050000000  0.5377330000000  0.6047810000000 1.0
C      1  0.4598060000000  0.5720310000000  0.4153070000000 1.0
C      1  0.4598030000000  0.3907930000000  0.4803410000000 1.0
C      1  0.5636540000000  0.5561090000000  0.5835370000000 1.0
C      1  0.5636550000000  0.5444420000000  0.4100140000000 1.0
C      1  0.5636520000000  0.4000000000000  0.5068800000000 1.0
C      1  0.5216060000000  0.4866160000000  0.5267040000000 1.0
C      1  0.5216070000000  0.5299710000000  0.4986140000000 1.0
C      1  0.5216070000000  0.4839670000000  0.4751120000000 1.0
C      1  0.4528580000000  0.5840280000000  0.4659140000000 1.0
C      1  0.4528560000000  0.4286220000000  0.4446480000000 1.0
C      1  0.4528560000000  0.4879080000000  0.5898670000000 1.0
C      1  0.5374490000000  0.5415380000000  0.5863550000000 1.0
C      1  0.5374500000000  0.5541690000000  0.4212250000000 1.0
C      1  0.5374480000000  0.4048470000000  0.4928510000000 1.0
C      1  0.4368290000000  0.5880190000000  0.5674190000000 1.0
C      1  0.4368290000000  0.5145320000000  0.3904390000000 1.0
C      1  0.4368270000000  0.3980070000000  0.5425710000000 1.0
C      1  0.5504890000000  0.5119600000000  0.4531640000000 1.0
C      1  0.5504880000000  0.4536110000000  0.5134360000000 1.0
C      1  0.5504890000000  0.5349820000000  0.5338310000000 1.0
C      1  0.4807670000000  0.5990850000000  0.4665270000000 1.0
C      1  0.4807650000000  0.4216230000000  0.4313020000000 1.0
C      1  0.4807650000000  0.4798480000000  0.6026010000000 1.0
C      1  0.4987330000000  0.4002740000000  0.4471390000000 1.0
C      1  0.4987340000000  0.5042370000000  0.6131710000000 1.0
C      1  0.4987360000000  0.5960430000000  0.4401200000000 1.0
C      1  0.4377510000000  0.4581920000000  0.4878470000000 1.0
C      1  0.4377510000000  0.5105350000000  0.5426590000000 1.0
C      1  0.4377520000000  0.5318310000000  0.4699220000000 1.0
C      1  0.4900810000000  0.3904100000000  0.4745580000000 1.0
C      1  0.4900820000000  0.5329150000000  0.6080040000000 1.0
C      1  0.4900840000000  0.5772300000000  0.4178680000000 1.0
C      1  0.5575090000000  0.5074160000000  0.5329150000000 1.0
C      1  0.5575090000000  0.5249490000000  0.4774950000000 1.0
C      1  0.5575080000000  0.4681870000000  0.4900210000000 1.0
C      1  0.4301340000000  0.4993440000000  0.4166870000000 1.0
C      1  0.4301320000000  0.4283320000000  0.5426010000000 1.0
C      1  0.4301340000000  0.5728830000000  0.5411410000000 1.0
C      1  0.4435510000000  0.5028790000000  0.4623670000000 1.0
C      1  0.4435500000000  0.4661240000000  0.5166980000000 1.0
C      1  0.4435510000000  0.5315540000000  0.5213630000000 1.0
C      1  0.5708150000000  0.5733280000000  0.4860190000000 1.0
C      1  0.5708140000000  0.4513800000000  0.4438620000000 1.0
C      1  0.5708130000000  0.4758440000000  0.5705510000000 1.0
C      1  0.4665810000000  0.5764370000000  0.5141230000000 1.0
C      1  0.4665800000000  0.4741670000000  0.4271170000000 1.0
C      1  0.4665790000000  0.4499520000000  0.5591890000000 1.0
C      1  0.4599870000000  0.5048470000000  0.5644250000000 1.0
C      1  0.4599890000000  0.5535250000000  0.4639650000000 1.0
C      1  0.4599870000000  0.4421850000000  0.4720380000000 1.0
C      1  0.4530630000000  0.5567280000000  0.5319070000000 1.0
C      1  0.4530630000000  0.4994230000000  0.4352940000000 1.0
C      1  0.4530620000000  0.4444060000000  0.5332290000000 1.0
C      1  0.5292950000000  0.6015570000000  0.4791510000000 1.0
C      1  0.5292930000000  0.4313180000000  0.4228480000000 1.0
C      1  0.5292920000000  0.4676780000000  0.5984310000000 1.0
C      1  0.5509900000000  0.5924390000000  0.4972840000000 1.0
C      1  0.5509890000000  0.4515800000000  0.4216790000000 1.0
C      1  0.5509880000000  0.4565340000000  0.5814690000000 1.0
C      1  0.5597380000000  0.4918920000000  0.3961160000000 1.0
C      1  0.5597360000000  0.4142390000000  0.5593390000000 1.0
C      1  0.5597390000000  0.5944210000000  0.5449770000000 1.0
C      1  0.4926800000000  0.5287720000000  0.4276660000000 1.0
C      1  0.4926780000000  0.4231250000000  0.5116250000000 1.0
C      1  0.4926790000000  0.5486590000000  0.5611390000000 1.0
C      1  0.5833660000000  0.4100060000000  0.5425870000000 1.0
C      1  0.5833680000000  0.5820290000000  0.5570180000000 1.0
C      1  0.5833680000000  0.5085160000000  0.4008260000000 1.0
C      1  0.4571990000000  0.6040890000000  0.5486860000000 1.0
C      1  0.4571990000000  0.4902730000000  0.3858890000000 1.0
C      1  0.4571960000000  0.4061950000000  0.5658550000000 1.0
C      1  0.4205930000000  0.5418020000000  0.5790270000000 1.0
C      1  0.4205940000000  0.5476940000000  0.4246600000000 1.0
C      1  0.4205920000000  0.4110630000000  0.4967410000000 1.0
C      1  0.4957050000000  0.4691660000000  0.4260210000000 1.0
C      1  0.4957040000000  0.4515020000000  0.5640670000000 1.0
C      1  0.4957070000000  0.5798860000000  0.5103420000000 1.0
C      1  0.3970110000000  0.4492150000000  0.5189980000000 1.0
C      1  0.3970130000000  0.5420020000000  0.5348570000000 1.0
C      1  0.3970130000000  0.5093420000000  0.4465720000000 1.0
C      1  0.5875540000000  0.5257130000000  0.4269950000000 1.0
C      1  0.5875520000000  0.4240700000000  0.5146100000000 1.0
C      1  0.5875540000000  0.5507680000000  0.5588280000000 1.0
C      1  0.5927930000000  0.5001840000000  0.5001440000000 1.0
C      1  0.5209660000000  0.5001850000000  0.5001430000000 1.0
END
