TITL C-862503-991-1041 0.000329096256902696 125000 -631.18046143584 0 0 121 (C1) n - 1
REM
REM in /home/nfs/bkarasulu/CARBON/AIRSS/Generating-Clusters/TERSOFF/Higher-Symm/FIRE-HFTN
REM
REM
REM
REM
REM
REM ./C.cell (b20cbc046b6831c77cfcea5457e17084)
REM AIRSS Version 0.9.1 bugfix July 2018 build 013d7b7c2542+ Fri, 06 Jul 2018 19:26:36 +0100
REM compiler GCC version 9.2.1 20190827 (Red Hat 9.2.1-1)
REM options -cpp -mtune=generic -march=x86-64 -g -O0 -fpre-include=/usr/include/finclude/math-vector-fortran.h
REM seed 659735028 -128757605 1829374449 255905408 -1330248186 -249962435 578235966 1407541126 -1935207453 -953151812 -1648609429 1424310941 156565561 -1585405446 1157508722 -2000116430 -1923883034 -1021988031 -1307410120 1735706263 -2106947829 1823318289 -439830081 -290411725 1435608987 -894888714 -1935839438 60370600 -399661892 -161733271 698283091 -2114039618 -1012572299
REM
CELL 1.54180   50.00000   50.00000   50.00000   90.00000   90.00000   90.00000
LATT -1
SFAC C  
C      1  0.4741500000000  0.5911170000000  0.4557960000000 1.0
C      1  0.4746420000000  0.5911430000000  0.5449630000000 1.0
C      1  0.5512020000000  0.5911040000000  0.5000650000000 1.0
C      1  0.4741100000000  0.4091070000000  0.4560070000000 1.0
C      1  0.4743800000000  0.4090740000000  0.5446310000000 1.0
C      1  0.5514260000000  0.4091060000000  0.4999370000000 1.0
C      1  0.4264410000000  0.4843280000000  0.5072340000000 1.0
C      1  0.5431630000000  0.4835930000000  0.5603740000000 1.0
C      1  0.5316760000000  0.4844860000000  0.4292890000000 1.0
C      1  0.4229370000000  0.5161870000000  0.5084520000000 1.0
C      1  0.5451710000000  0.5155180000000  0.5628840000000 1.0
C      1  0.5303240000000  0.5162940000000  0.4331930000000 1.0
C      1  0.4190310000000  0.4542380000000  0.5404380000000 1.0
C      1  0.5754460000000  0.4538800000000  0.5504690000000 1.0
C      1  0.5057010000000  0.4530350000000  0.4106410000000 1.0
C      1  0.4192600000000  0.5472710000000  0.5401410000000 1.0
C      1  0.5746670000000  0.5469320000000  0.5500110000000 1.0
C      1  0.5057250000000  0.5460550000000  0.4098090000000 1.0
C      1  0.4737730000000  0.5208830000000  0.4975400000000 1.0
C      1  0.5104260000000  0.5203330000000  0.5244380000000 1.0
C      1  0.5141230000000  0.5217040000000  0.4795930000000 1.0
C      1  0.4747970000000  0.4789360000000  0.4979760000000 1.0
C      1  0.5108560000000  0.4783950000000  0.5230440000000 1.0
C      1  0.5157890000000  0.4797800000000  0.4789540000000 1.0
C      1  0.5145900000000  0.4825720000000  0.5781550000000 1.0
C      1  0.5638680000000  0.4832780000000  0.4454750000000 1.0
C      1  0.4251910000000  0.4828900000000  0.4735170000000 1.0
C      1  0.5150740000000  0.5168230000000  0.5826550000000 1.0
C      1  0.5599220000000  0.5173750000000  0.4490680000000 1.0
C      1  0.4209590000000  0.5171560000000  0.4725060000000 1.0
C      1  0.4561730000000  0.5693980000000  0.5142920000000 1.0
C      1  0.5337240000000  0.5694260000000  0.5313630000000 1.0
C      1  0.5098560000000  0.5692240000000  0.4550300000000 1.0
C      1  0.4559210000000  0.4308530000000  0.5139720000000 1.0
C      1  0.5342020000000  0.4308780000000  0.5313050000000 1.0
C      1  0.5099640000000  0.4307650000000  0.4554440000000 1.0
C      1  0.5516150000000  0.5582230000000  0.4664860000000 1.0
C      1  0.4448870000000  0.5581130000000  0.4726960000000 1.0
C      1  0.5036070000000  0.5578360000000  0.5616750000000 1.0
C      1  0.5513780000000  0.4422800000000  0.4662990000000 1.0
C      1  0.4448870000000  0.4420430000000  0.4724800000000 1.0
C      1  0.5034690000000  0.4417380000000  0.5618940000000 1.0
C      1  0.4192910000000  0.5470100000000  0.4802910000000 1.0
C      1  0.5229530000000  0.5466290000000  0.5800390000000 1.0
C      1  0.5580690000000  0.5469680000000  0.4400220000000 1.0
C      1  0.4187620000000  0.4532590000000  0.4801660000000 1.0
C      1  0.5231260000000  0.4528940000000  0.5807100000000 1.0
C      1  0.5575410000000  0.4534360000000  0.4403760000000 1.0
C      1  0.4941240000000  0.6021340000000  0.4799350000000 1.0
C      1  0.4856960000000  0.6019020000000  0.5156230000000 1.0
C      1  0.5208110000000  0.6029350000000  0.5051850000000 1.0
C      1  0.4937910000000  0.3976250000000  0.4799180000000 1.0
C      1  0.4852070000000  0.3973530000000  0.5155910000000 1.0
C      1  0.5204000000000  0.3983580000000  0.5050890000000 1.0
C      1  0.4707360000000  0.5418290000000  0.4751360000000 1.0
C      1  0.4927150000000  0.5415740000000  0.5378770000000 1.0
C      1  0.5357340000000  0.5421900000000  0.4878520000000 1.0
C      1  0.4713400000000  0.4581950000000  0.4753980000000 1.0
C      1  0.4928790000000  0.4578980000000  0.5376950000000 1.0
C      1  0.5363660000000  0.4585640000000  0.4875500000000 1.0
C      1  0.5538300000000  0.5871850000000  0.4708650000000 1.0
C      1  0.4476720000000  0.5870500000000  0.4683460000000 1.0
C      1  0.4984960000000  0.5868260000000  0.5617840000000 1.0
C      1  0.5539630000000  0.4133080000000  0.4707960000000 1.0
C      1  0.4474760000000  0.4130550000000  0.4681800000000 1.0
C      1  0.4984760000000  0.4128020000000  0.5614500000000 1.0
C      1  0.4431410000000  0.4849190000000  0.5660330000000 1.0
C      1  0.5854200000000  0.4852020000000  0.5173140000000 1.0
C      1  0.4723850000000  0.4848780000000  0.4180000000000 1.0
C      1  0.4421560000000  0.5151010000000  0.5651240000000 1.0
C      1  0.5850040000000  0.5153950000000  0.5171970000000 1.0
C      1  0.4717440000000  0.5150660000000  0.4178150000000 1.0
C      1  0.4093550000000  0.4570300000000  0.5116000000000 1.0
C      1  0.5551460000000  0.4561410000000  0.5733010000000 1.0
C      1  0.5358690000000  0.4542460000000  0.4162100000000 1.0
C      1  0.4091040000000  0.5462950000000  0.5111170000000 1.0
C      1  0.5547500000000  0.5454690000000  0.5733080000000 1.0
C      1  0.5355700000000  0.5434590000000  0.4160750000000 1.0
C      1  0.5634700000000  0.5645660000000  0.5217720000000 1.0
C      1  0.4866600000000  0.5649210000000  0.4338230000000 1.0
C      1  0.4492560000000  0.5650710000000  0.5449120000000 1.0
C      1  0.5642210000000  0.4351500000000  0.5219150000000 1.0
C      1  0.4867980000000  0.4355200000000  0.4344050000000 1.0
C      1  0.4494310000000  0.4356150000000  0.5446250000000 1.0
C      1  0.5290610000000  0.4086370000000  0.4547660000000 1.0
C      1  0.4458450000000  0.4085980000000  0.4978430000000 1.0
C      1  0.5248360000000  0.4084960000000  0.5477090000000 1.0
C      1  0.5288550000000  0.5915020000000  0.4547640000000 1.0
C      1  0.4464570000000  0.5916220000000  0.4979460000000 1.0
C      1  0.5248900000000  0.5914960000000  0.5483730000000 1.0
C      1  0.5684090000000  0.4843080000000  0.4789770000000 1.0
C      1  0.4488810000000  0.4854860000000  0.4527500000000 1.0
C      1  0.4850410000000  0.4860040000000  0.5678710000000 1.0
C      1  0.5661350000000  0.5144070000000  0.4797360000000 1.0
C      1  0.4474490000000  0.5156380000000  0.4520110000000 1.0
C      1  0.4838130000000  0.5160650000000  0.5700200000000 1.0
C      1  0.4777370000000  0.4688470000000  0.4450370000000 1.0
C      1  0.4635350000000  0.4687960000000  0.5474590000000 1.0
C      1  0.5599590000000  0.4682430000000  0.5081740000000 1.0
C      1  0.4768300000000  0.5318700000000  0.4445050000000 1.0
C      1  0.4630080000000  0.5318440000000  0.5477750000000 1.0
C      1  0.5587040000000  0.5312470000000  0.5085780000000 1.0
C      1  0.4540030000000  0.5167290000000  0.5200960000000 1.0
C      1  0.5397330000000  0.5161340000000  0.5302330000000 1.0
C      1  0.5048350000000  0.5172620000000  0.4516700000000 1.0
C      1  0.4553260000000  0.4834280000000  0.5199550000000 1.0
C      1  0.5397450000000  0.4828450000000  0.5289400000000 1.0
C      1  0.5060740000000  0.4839780000000  0.4506150000000 1.0
C      1  0.4937300000000  0.5181740000000  0.3965640000000 1.0
C      1  0.4129440000000  0.5188830000000  0.5567100000000 1.0
C      1  0.5923820000000  0.5188820000000  0.5468650000000 1.0
C      1  0.4943150000000  0.4812040000000  0.3968170000000 1.0
C      1  0.4136350000000  0.4819390000000  0.5576410000000 1.0
C      1  0.5928390000000  0.4819060000000  0.5469000000000 1.0
C      1  0.4849230000000  0.5599940000000  0.5131730000000 1.0
C      1  0.5183720000000  0.5610730000000  0.5066280000000 1.0
C      1  0.4961430000000  0.5602110000000  0.4805710000000 1.0
C      1  0.4850690000000  0.4392370000000  0.5131760000000 1.0
C      1  0.5189210000000  0.4402790000000  0.5068570000000 1.0
C      1  0.4963860000000  0.4394980000000  0.4810260000000 1.0
C      1  0.4999750000000  0.5000980000000  0.5002540000000 1.0
END
