TITL C-862506-1665-988 0.00097842217683596 125000 -172.080449117674 0 0 34 (D3) n - 1
REM
REM in /home/nfs/bkarasulu/CARBON/AIRSS/Generating-Clusters/TERSOFF/Higher-Symm/FIRE-HFTN
REM
REM
REM
REM
REM
REM ./C.cell (b20cbc046b6831c77cfcea5457e17084)
REM AIRSS Version 0.9.1 bugfix July 2018 build 013d7b7c2542+ Fri, 06 Jul 2018 19:26:36 +0100
REM compiler GCC version 9.2.1 20190827 (Red Hat 9.2.1-1)
REM options -cpp -mtune=generic -march=x86-64 -g -O0 -fpre-include=/usr/include/finclude/math-vector-fortran.h
REM seed 812461473 -1141000583 1391217630 1033824922 503611111 -867592951 1398065672 -1512301454 -1521536957 -466820446 -1033277278 1758426644 1355873709 -1115284506 525290151 -1815287553 -2120774729 1720050106 529757050 848521084 -1201162468 -355375242 -126089309 607807482 -822281447 1328986722 19692464 -1843430598 181677899 -1172191242 -1252946768 -1528553371 -1397754848
REM
CELL 1.54180   50.00000   50.00000   50.00000   90.00000   90.00000   90.00000
LATT -1
SFAC C  
C      1  0.4762530000000  0.5516750000000  0.5159680000000 1.0
C      1  0.5265300000000  0.5516670000000  0.5131130000000 1.0
C      1  0.4989190000000  0.5516780000000  0.4709990000000 1.0
C      1  0.4762380000000  0.4470200000000  0.4840670000000 1.0
C      1  0.5265150000000  0.4470120000000  0.4869260000000 1.0
C      1  0.4989000000000  0.4470090000000  0.5290380000000 1.0
C      1  0.5387730000000  0.5242650000000  0.5171710000000 1.0
C      1  0.4963090000000  0.5242810000000  0.4583570000000 1.0
C      1  0.4666070000000  0.5242750000000  0.5245390000000 1.0
C      1  0.5387670000000  0.4744100000000  0.4828690000000 1.0
C      1  0.4962980000000  0.4744080000000  0.5416800000000 1.0
C      1  0.4666010000000  0.4744230000000  0.4754960000000 1.0
C      1  0.4700850000000  0.5161590000000  0.4724120000000 1.0
C      1  0.4918890000000  0.5161450000000  0.5402190000000 1.0
C      1  0.5397100000000  0.5161460000000  0.4874330000000 1.0
C      1  0.4700780000000  0.4825380000000  0.5276230000000 1.0
C      1  0.4918870000000  0.4825450000000  0.4598170000000 1.0
C      1  0.5397040000000  0.4825290000000  0.5126070000000 1.0
C      1  0.4755430000000  0.5583880000000  0.4875310000000 1.0
C      1  0.5022590000000  0.5583780000000  0.5279490000000 1.0
C      1  0.5239040000000  0.5583810000000  0.4846040000000 1.0
C      1  0.4755240000000  0.4403070000000  0.5125040000000 1.0
C      1  0.5022420000000  0.4403090000000  0.4720890000000 1.0
C      1  0.5238840000000  0.4402990000000  0.5154350000000 1.0
C      1  0.5643210000000  0.4746840000000  0.4682740000000 1.0
C      1  0.4411840000000  0.4747050000000  0.4606620000000 1.0
C      1  0.4961610000000  0.4746790000000  0.5711080000000 1.0
C      1  0.5643270000000  0.5239830000000  0.5317680000000 1.0
C      1  0.4411890000000  0.5240010000000  0.5393710000000 1.0
C      1  0.4961730000000  0.5240100000000  0.4289290000000 1.0
C      1  0.5163230000000  0.4993370000000  0.5273240000000 1.0
C      1  0.5163250000000  0.4993450000000  0.4727140000000 1.0
C      1  0.4690300000000  0.4993490000000  0.5000170000000 1.0
C      1  0.5005590000000  0.4993440000000  0.5000190000000 1.0
END
