TITL C-862501-1041-1043 -0.125923859016641 125000 -15.9241981945543 0 0 5 (D(inf)h) n - 1
REM
REM in /home/nfs/bkarasulu/CARBON/AIRSS/Generating-Clusters/TERSOFF/Higher-Symm/FIRE-HFTN
REM
REM
REM
REM
REM
REM ./C.cell (b20cbc046b6831c77cfcea5457e17084)
REM AIRSS Version 0.9.1 bugfix July 2018 build 013d7b7c2542+ Fri, 06 Jul 2018 19:26:36 +0100
REM compiler GCC version 9.2.1 20190827 (Red Hat 9.2.1-1)
REM options -cpp -mtune=generic -march=x86-64 -g -O0 -fpre-include=/usr/include/finclude/math-vector-fortran.h
REM seed 1192039396 -1282443813 537344266 1377084173 -251130283 782857778 16548843 -2082223653 1873623148 -1686258909 811624707 -39769559 1496282292 -1447611897 -844229283 1039510005 -966647878 952093607 115338933 1622294838 -877221165 -927569172 -53900775 -1523738459 78108752 158429117 -1109206768 2042537452 2011640269 1635024159 250906064 -18934827 -17522159
REM
CELL 1.54180   50.00000   50.00000   50.00000   90.00000   90.00000   90.00000
LATT -1
SFAC C  
C      1  0.5008010000000  0.5022490000000  0.4690110000000 1.0
C      1  0.5008010000000  0.5022490000000  0.4390780000000 1.0
C      1  0.5008010000000  0.5022490000000  0.5309890000000 1.0
C      1  0.5008010000000  0.5022490000000  0.5000000000000 1.0
C      1  0.5008010000000  0.5022490000000  0.5609220000000 1.0
END
