TITL C-862507-1800-450 0.00221635637500478 125000 -926.342403165487 0 0 158 (C2) n - 1
REM
REM in /home/nfs/bkarasulu/CARBON/AIRSS/Generating-Clusters/TERSOFF/Higher-Symm/FIRE-HFTN
REM
REM
REM
REM
REM
REM ./C.cell (b20cbc046b6831c77cfcea5457e17084)
REM AIRSS Version 0.9.1 bugfix July 2018 build 013d7b7c2542+ Fri, 06 Jul 2018 19:26:36 +0100
REM compiler GCC version 9.2.1 20190827 (Red Hat 9.2.1-1)
REM options -cpp -mtune=generic -march=x86-64 -g -O0 -fpre-include=/usr/include/finclude/math-vector-fortran.h
REM seed -731338773 996284580 -295786853 5950216 -1419591521 1611602841 2082926419 -546823074 -832932666 541959505 -1247484679 931891001 -448849656 -606290704 148795886 41861509 -1612923405 -1617153804 -529649738 -727450341 -1097545164 235757964 1615717014 -512391292 966306694 -1347123944 -363740932 1460330880 -1837245493 -2022867629 -1567716681 -1236400113 1223553070
REM
CELL 1.54180   50.00000   50.00000   50.00000   90.00000   90.00000   90.00000
LATT -1
SFAC C  
C      1  0.5631230000000  0.5241410000000  0.4384140000000 1.0
C      1  0.4368770000000  0.4758590000000  0.4384140000000 1.0
C      1  0.5657960000000  0.5234540000000  0.5570510000000 1.0
C      1  0.4342040000000  0.4765460000000  0.5570510000000 1.0
C      1  0.4366080000000  0.5177370000000  0.4412440000000 1.0
C      1  0.5633920000000  0.4822630000000  0.4412440000000 1.0
C      1  0.4369450000000  0.5182000000000  0.5614250000000 1.0
C      1  0.5630550000000  0.4818010000000  0.5614260000000 1.0
C      1  0.4798610000000  0.5705320000000  0.5295630000000 1.0
C      1  0.5201390000000  0.4294690000000  0.5295630000000 1.0
C      1  0.4775560000000  0.5701520000000  0.4731990000000 1.0
C      1  0.5224440000000  0.4298480000000  0.4731990000000 1.0
C      1  0.5282630000000  0.5759000000000  0.5277740000000 1.0
C      1  0.4717370000000  0.4241000000000  0.5277740000000 1.0
C      1  0.5257810000000  0.5768020000000  0.4708740000000 1.0
C      1  0.4742190000000  0.4231980000000  0.4708740000000 1.0
C      1  0.6052250000000  0.5372620000000  0.5536950000000 1.0
C      1  0.3947750000000  0.4627380000000  0.5536950000000 1.0
C      1  0.6015160000000  0.5409260000000  0.4376000000000 1.0
C      1  0.3984850000000  0.4590730000000  0.4376000000000 1.0
C      1  0.4010210000000  0.5396760000000  0.5589700000000 1.0
C      1  0.5989790000000  0.4603240000000  0.5589700000000 1.0
C      1  0.3980280000000  0.5322260000000  0.4488350000000 1.0
C      1  0.6019720000000  0.4677740000000  0.4488350000000 1.0
C      1  0.4854530000000  0.5214780000000  0.4507390000000 1.0
C      1  0.5145470000000  0.4785220000000  0.4507390000000 1.0
C      1  0.4862090000000  0.5217850000000  0.5518970000000 1.0
C      1  0.5137910000000  0.4782150000000  0.5518970000000 1.0
C      1  0.5167870000000  0.5125040000000  0.4482820000000 1.0
C      1  0.4832130000000  0.4874950000000  0.4482820000000 1.0
C      1  0.5172690000000  0.5118670000000  0.5524720000000 1.0
C      1  0.4827310000000  0.4881330000000  0.5524720000000 1.0
C      1  0.4271710000000  0.4835300000000  0.5282080000000 1.0
C      1  0.5728290000000  0.5164700000000  0.5282080000000 1.0
C      1  0.4286470000000  0.4808410000000  0.4666590000000 1.0
C      1  0.5713530000000  0.5191590000000  0.4666590000000 1.0
C      1  0.5683530000000  0.4857520000000  0.5321470000000 1.0
C      1  0.4316470000000  0.5142480000000  0.5321470000000 1.0
C      1  0.5685880000000  0.4881910000000  0.4707880000000 1.0
C      1  0.4314120000000  0.5118080000000  0.4707880000000 1.0
C      1  0.5356300000000  0.5239270000000  0.4297560000000 1.0
C      1  0.4643700000000  0.4760730000000  0.4297560000000 1.0
C      1  0.5384120000000  0.5245710000000  0.5674280000000 1.0
C      1  0.4615880000000  0.4754290000000  0.5674280000000 1.0
C      1  0.4627940000000  0.5234260000000  0.4305200000000 1.0
C      1  0.5372060000000  0.4765740000000  0.4305200000000 1.0
C      1  0.4634740000000  0.5222200000000  0.5727390000000 1.0
C      1  0.5365260000000  0.4777800000000  0.5727390000000 1.0
C      1  0.4345450000000  0.4752950000000  0.3946330000000 1.0
C      1  0.5654550000000  0.5247050000000  0.3946330000000 1.0
C      1  0.4296210000000  0.4718950000000  0.6003950000000 1.0
C      1  0.5703790000000  0.5281050000000  0.6003950000000 1.0
C      1  0.5676690000000  0.4763250000000  0.3987030000000 1.0
C      1  0.4323310000000  0.5236750000000  0.3987030000000 1.0
C      1  0.5680140000000  0.4799520000000  0.6047540000000 1.0
C      1  0.4319860000000  0.5200490000000  0.6047540000000 1.0
C      1  0.5880520000000  0.4862980000000  0.4211770000000 1.0
C      1  0.4119480000000  0.5137020000000  0.4211770000000 1.0
C      1  0.5880740000000  0.4848740000000  0.5808770000000 1.0
C      1  0.4119250000000  0.5151270000000  0.5808770000000 1.0
C      1  0.4134490000000  0.4807350000000  0.4170130000000 1.0
C      1  0.5865510000000  0.5192650000000  0.4170130000000 1.0
C      1  0.4099060000000  0.4817500000000  0.5780140000000 1.0
C      1  0.5900940000000  0.5182500000000  0.5780140000000 1.0
C      1  0.5789960000000  0.4445670000000  0.4511560000000 1.0
C      1  0.4210040000000  0.5554330000000  0.4511560000000 1.0
C      1  0.5731440000000  0.4413600000000  0.5562900000000 1.0
C      1  0.4268560000000  0.5586400000000  0.5562900000000 1.0
C      1  0.4206580000000  0.4365680000000  0.4426990000000 1.0
C      1  0.5793420000000  0.5634320000000  0.4426990000000 1.0
C      1  0.4161640000000  0.4386870000000  0.5511440000000 1.0
C      1  0.5838360000000  0.5613130000000  0.5511440000000 1.0
C      1  0.5249450000000  0.4319110000000  0.5803150000000 1.0
C      1  0.4750550000000  0.5680890000000  0.5803150000000 1.0
C      1  0.5321500000000  0.4329330000000  0.4233910000000 1.0
C      1  0.4678500000000  0.5670660000000  0.4233910000000 1.0
C      1  0.4630420000000  0.4293920000000  0.5778750000000 1.0
C      1  0.5369580000000  0.5706080000000  0.5778740000000 1.0
C      1  0.4701710000000  0.4286720000000  0.4202870000000 1.0
C      1  0.5298290000000  0.5713280000000  0.4202860000000 1.0
C      1  0.5701190000000  0.5657990000000  0.4713860000000 1.0
C      1  0.4298810000000  0.4342010000000  0.4713860000000 1.0
C      1  0.5719990000000  0.5642950000000  0.5237550000000 1.0
C      1  0.4280010000000  0.4357060000000  0.5237560000000 1.0
C      1  0.4343990000000  0.5572340000000  0.4775260000000 1.0
C      1  0.5656010000000  0.4427660000000  0.4775260000000 1.0
C      1  0.4384320000000  0.5586670000000  0.5288430000000 1.0
C      1  0.5615680000000  0.4413330000000  0.5288430000000 1.0
C      1  0.4797580000000  0.4191600000000  0.5562000000000 1.0
C      1  0.5202420000000  0.5808400000000  0.5562000000000 1.0
C      1  0.4850670000000  0.4185890000000  0.4432140000000 1.0
C      1  0.5149330000000  0.5814110000000  0.4432140000000 1.0
C      1  0.5108130000000  0.4217360000000  0.5569720000000 1.0
C      1  0.4891870000000  0.5782640000000  0.5569720000000 1.0
C      1  0.5160620000000  0.4220340000000  0.4451890000000 1.0
C      1  0.4839380000000  0.5779660000000  0.4451890000000 1.0
C      1  0.4493490000000  0.5318550000000  0.5165060000000 1.0
C      1  0.5506510000000  0.4681450000000  0.5165060000000 1.0
C      1  0.4480830000000  0.5314030000000  0.4869840000000 1.0
C      1  0.5519170000000  0.4685970000000  0.4869840000000 1.0
C      1  0.5597030000000  0.5380970000000  0.5127400000000 1.0
C      1  0.4402970000000  0.4619030000000  0.5127400000000 1.0
C      1  0.5590150000000  0.5392690000000  0.4833270000000 1.0
C      1  0.4409850000000  0.4607310000000  0.4833270000000 1.0
C      1  0.5628570000000  0.4363770000000  0.4258450000000 1.0
C      1  0.4371430000000  0.5636230000000  0.4258450000000 1.0
C      1  0.5553710000000  0.4350750000000  0.5804860000000 1.0
C      1  0.4446290000000  0.5649260000000  0.5804850000000 1.0
C      1  0.4395770000000  0.4285250000000  0.4197870000000 1.0
C      1  0.5604230000000  0.5714750000000  0.4197870000000 1.0
C      1  0.4325370000000  0.4302040000000  0.5756750000000 1.0
C      1  0.5674630000000  0.5697960000000  0.5756750000000 1.0
C      1  0.3965500000000  0.4772610000000  0.4647420000000 1.0
C      1  0.6034500000000  0.5227390000000  0.4647420000000 1.0
C      1  0.3956720000000  0.4798940000000  0.5248860000000 1.0
C      1  0.6043280000000  0.5201060000000  0.5248860000000 1.0
C      1  0.6035190000000  0.4905260000000  0.4767520000000 1.0
C      1  0.3964810000000  0.5094740000000  0.4767520000000 1.0
C      1  0.5965280000000  0.4730120000000  0.5290710000000 1.0
C      1  0.4034720000000  0.5269880000000  0.5290700000000 1.0
C      1  0.4587590000000  0.4801790000000  0.5973370000000 1.0
C      1  0.5412410000000  0.5198210000000  0.5973370000000 1.0
C      1  0.4628890000000  0.4850110000000  0.4004620000000 1.0
C      1  0.5371110000000  0.5149890000000  0.4004620000000 1.0
C      1  0.5387290000000  0.4896070000000  0.6012140000000 1.0
C      1  0.4612710000000  0.5103940000000  0.6012140000000 1.0
C      1  0.5376540000000  0.4844920000000  0.4010500000000 1.0
C      1  0.4623460000000  0.5155080000000  0.4010500000000 1.0
C      1  0.5539220000000  0.5876460000000  0.5141440000000 1.0
C      1  0.4460780000000  0.4123540000000  0.5141440000000 1.0
C      1  0.5525450000000  0.5884390000000  0.4828280000000 1.0
C      1  0.4474550000000  0.4115610000000  0.4828280000000 1.0
C      1  0.4534130000000  0.5818690000000  0.5172010000000 1.0
C      1  0.5465870000000  0.4181310000000  0.5172010000000 1.0
C      1  0.4517440000000  0.5803430000000  0.4865510000000 1.0
C      1  0.5482560000000  0.4196570000000  0.4865510000000 1.0
C      1  0.4751060000000  0.5387390000000  0.4738930000000 1.0
C      1  0.5248940000000  0.4612610000000  0.4738930000000 1.0
C      1  0.4763850000000  0.5392380000000  0.5291340000000 1.0
C      1  0.5236150000000  0.4607620000000  0.5291350000000 1.0
C      1  0.5322890000000  0.5476450000000  0.4731910000000 1.0
C      1  0.4677110000000  0.4523550000000  0.4731920000000 1.0
C      1  0.5338600000000  0.5466930000000  0.5246050000000 1.0
C      1  0.4661400000000  0.4533070000000  0.5246060000000 1.0
C      1  0.4779430000000  0.4400150000000  0.6010930000000 1.0
C      1  0.5220570000000  0.5599850000000  0.6010930000000 1.0
C      1  0.4868250000000  0.4401410000000  0.3986450000000 1.0
C      1  0.5131750000000  0.5598590000000  0.3986450000000 1.0
C      1  0.5075090000000  0.4409580000000  0.6023750000000 1.0
C      1  0.4924910000000  0.5590420000000  0.6023750000000 1.0
C      1  0.5164290000000  0.4419410000000  0.4000060000000 1.0
C      1  0.4835710000000  0.5580590000000  0.4000050000000 1.0
C      1  0.4983690000000  0.4205070000000  0.4866230000000 1.0
C      1  0.5016310000000  0.5794930000000  0.4866230000000 1.0
C      1  0.4970990000000  0.4207370000000  0.5142150000000 1.0
C      1  0.5029010000000  0.5792630000000  0.5142150000000 1.0
C      1  0.3889180000000  0.5078310000000  0.5095440000000 1.0
C      1  0.6110820000000  0.4921690000000  0.5095440000000 1.0
END
