TITL C-862502-1143-1251 6.3956590960038e-05 125000 -509.096938471022 0 0 95 (D3) n - 1
REM
REM in /home/nfs/bkarasulu/CARBON/AIRSS/Generating-Clusters/TERSOFF/Higher-Symm/FIRE-HFTN
REM
REM
REM
REM
REM
REM ./C.cell (b20cbc046b6831c77cfcea5457e17084)
REM AIRSS Version 0.9.1 bugfix July 2018 build 013d7b7c2542+ Fri, 06 Jul 2018 19:26:36 +0100
REM compiler GCC version 9.2.1 20190827 (Red Hat 9.2.1-1)
REM options -cpp -mtune=generic -march=x86-64 -g -O0 -fpre-include=/usr/include/finclude/math-vector-fortran.h
REM seed 1655042592 -1054214624 127997199 1710471685 280416070 -2025637346 2087055674 1233969915 1629996890 200437652 171736557 -786673201 696170513 -1840750353 -33156462 -1829447906 222933581 519380895 1600143477 2027869247 932829574 -1930074736 -1734761258 415597217 -1751590573 2137749648 -1175316897 -426159468 -1181570718 -399932563 -107096913 -722175050 1598152718
REM
CELL 1.54180   50.00000   50.00000   50.00000   90.00000   90.00000   90.00000
LATT -1
SFAC C  
C      1  0.4915280000000  0.5733840000000  0.5349210000000 1.0
C      1  0.4405420000000  0.4554690000000  0.5349210000000 1.0
C      1  0.5681530000000  0.4702710000000  0.5349210000000 1.0
C      1  0.5086200000000  0.5733840000000  0.4672320000000 1.0
C      1  0.5596080000000  0.4554690000000  0.4672320000000 1.0
C      1  0.4319960000000  0.4702700000000  0.4672320000000 1.0
C      1  0.4495230000000  0.5108360000000  0.4949780000000 1.0
C      1  0.5157130000000  0.4503650000000  0.4949780000000 1.0
C      1  0.5349870000000  0.5379230000000  0.4949780000000 1.0
C      1  0.5506260000000  0.5108360000000  0.5071740000000 1.0
C      1  0.4844370000000  0.4503650000000  0.5071740000000 1.0
C      1  0.4651620000000  0.5379220000000  0.5071740000000 1.0
C      1  0.5054810000000  0.4224810000000  0.5303360000000 1.0
C      1  0.5642520000000  0.5430040000000  0.5303360000000 1.0
C      1  0.4304910000000  0.5336400000000  0.5303360000000 1.0
C      1  0.4946690000000  0.4224810000000  0.4718170000000 1.0
C      1  0.4358960000000  0.5430030000000  0.4718160000000 1.0
C      1  0.5696580000000  0.5336400000000  0.4718170000000 1.0
C      1  0.4773160000000  0.4824580000000  0.4589010000000 1.0
C      1  0.5263930000000  0.4886240000000  0.4589010000000 1.0
C      1  0.4965150000000  0.5280430000000  0.4589010000000 1.0
C      1  0.5228330000000  0.4824580000000  0.5432520000000 1.0
C      1  0.4737560000000  0.4886230000000  0.5432520000000 1.0
C      1  0.5036340000000  0.5280430000000  0.5432520000000 1.0
C      1  0.4882970000000  0.4462860000000  0.4294020000000 1.0
C      1  0.5522290000000  0.5162190000000  0.4294020000000 1.0
C      1  0.4596990000000  0.5366190000000  0.4294020000000 1.0
C      1  0.5118530000000  0.4462860000000  0.5727510000000 1.0
C      1  0.4479210000000  0.5162190000000  0.5727510000000 1.0
C      1  0.5404500000000  0.5366190000000  0.5727510000000 1.0
C      1  0.5340220000000  0.5473610000000  0.5437670000000 1.0
C      1  0.4418330000000  0.5052810000000  0.5437670000000 1.0
C      1  0.5243690000000  0.4464820000000  0.5437670000000 1.0
C      1  0.4661270000000  0.5473600000000  0.4583860000000 1.0
C      1  0.5583170000000  0.5052820000000  0.4583860000000 1.0
C      1  0.4757810000000  0.4464820000000  0.4583860000000 1.0
C      1  0.5244080000000  0.4666730000000  0.5900150000000 1.0
C      1  0.5165170000000  0.5372990000000  0.5900150000000 1.0
C      1  0.4592990000000  0.4951520000000  0.5900150000000 1.0
C      1  0.4757420000000  0.4666730000000  0.4121380000000 1.0
C      1  0.4836320000000  0.5372980000000  0.4121380000000 1.0
C      1  0.5408500000000  0.4951530000000  0.4121380000000 1.0
C      1  0.4683840000000  0.5983470000000  0.4475120000000 1.0
C      1  0.4304960000000  0.4229430000000  0.4475120000000 1.0
C      1  0.6013440000000  0.4778340000000  0.4475120000000 1.0
C      1  0.5317640000000  0.5983470000000  0.5546400000000 1.0
C      1  0.5696540000000  0.4229440000000  0.5546400000000 1.0
C      1  0.3988060000000  0.4778330000000  0.5546400000000 1.0
C      1  0.5217960000000  0.5454410000000  0.4657150000000 1.0
C      1  0.4496080000000  0.4956530000000  0.4657150000000 1.0
C      1  0.5288200000000  0.4580300000000  0.4657150000000 1.0
C      1  0.4783530000000  0.5454410000000  0.5364380000000 1.0
C      1  0.5505410000000  0.4956530000000  0.5364380000000 1.0
C      1  0.4713300000000  0.4580300000000  0.5364380000000 1.0
C      1  0.4395540000000  0.5535880000000  0.5502430000000 1.0
C      1  0.4836730000000  0.4203560000000  0.5502440000000 1.0
C      1  0.5769970000000  0.5251800000000  0.5502440000000 1.0
C      1  0.5605940000000  0.5535890000000  0.4519090000000 1.0
C      1  0.5164770000000  0.4203560000000  0.4519090000000 1.0
C      1  0.4231520000000  0.5251790000000  0.4519090000000 1.0
C      1  0.5241910000000  0.4779490000000  0.4291070000000 1.0
C      1  0.5068600000000  0.5314730000000  0.4291070000000 1.0
C      1  0.4691730000000  0.4897020000000  0.4291070000000 1.0
C      1  0.4759590000000  0.4779490000000  0.5730460000000 1.0
C      1  0.4932890000000  0.5314730000000  0.5730460000000 1.0
C      1  0.5309760000000  0.4897020000000  0.5730460000000 1.0
C      1  0.4626700000000  0.5437010000000  0.5693550000000 1.0
C      1  0.4806780000000  0.4453180000000  0.5693550000000 1.0
C      1  0.5568760000000  0.5101050000000  0.5693550000000 1.0
C      1  0.5374790000000  0.5437010000000  0.4327980000000 1.0
C      1  0.5194720000000  0.4453180000000  0.4327980000000 1.0
C      1  0.4432730000000  0.5101050000000  0.4327980000000 1.0
C      1  0.4870420000000  0.5843240000000  0.5081250000000 1.0
C      1  0.4333110000000  0.4461140000000  0.5081250000000 1.0
C      1  0.5798700000000  0.4686860000000  0.5081250000000 1.0
C      1  0.5131060000000  0.5843240000000  0.4940280000000 1.0
C      1  0.5668380000000  0.4461140000000  0.4940280000000 1.0
C      1  0.4202790000000  0.4686860000000  0.4940280000000 1.0
C      1  0.4594750000000  0.4373930000000  0.4959730000000 1.0
C      1  0.5743410000000  0.4957050000000  0.4959730000000 1.0
C      1  0.4664080000000  0.5660260000000  0.4959730000000 1.0
C      1  0.5406750000000  0.4373930000000  0.5061800000000 1.0
C      1  0.4258090000000  0.4957040000000  0.5061800000000 1.0
C      1  0.5337400000000  0.5660260000000  0.5061800000000 1.0
C      1  0.4260250000000  0.4791850000000  0.5447600000000 1.0
C      1  0.5548730000000  0.4458410000000  0.5447600000000 1.0
C      1  0.5193260000000  0.5740980000000  0.5447600000000 1.0
C      1  0.5741240000000  0.4791860000000  0.4573920000000 1.0
C      1  0.4452770000000  0.4458400000000  0.4573920000000 1.0
C      1  0.4808230000000  0.5740980000000  0.4573920000000 1.0
C      1  0.4240170000000  0.5436190000000  0.5010760000000 1.0
C      1  0.5761320000000  0.5436200000000  0.5010760000000 1.0
C      1  0.5000750000000  0.4118840000000  0.5010760000000 1.0
C      1  0.5000750000000  0.4997080000000  0.5360750000000 1.0
C      1  0.5000750000000  0.4997080000000  0.4660770000000 1.0
END
