TITL C-862501-1041-732 4.64195182127959e-05 125000 -157.493167035163 0 0 31 (C4) n - 1
REM
REM in /home/nfs/bkarasulu/CARBON/AIRSS/Generating-Clusters/TERSOFF/Higher-Symm/FIRE-HFTN
REM
REM
REM
REM
REM
REM ./C.cell (b20cbc046b6831c77cfcea5457e17084)
REM AIRSS Version 0.9.1 bugfix July 2018 build 013d7b7c2542+ Fri, 06 Jul 2018 19:26:36 +0100
REM compiler GCC version 9.2.1 20190827 (Red Hat 9.2.1-1)
REM options -cpp -mtune=generic -march=x86-64 -g -O0 -fpre-include=/usr/include/finclude/math-vector-fortran.h
REM seed -325502744 126866187 576434222 98652944 366580092 2008106644 -1619099632 -1524104322 -500315958 638749598 1565198731 1445535094 2081994269 94098931 1307335784 2093746546 1202971301 -889275225 -163165387 1902025001 1532325050 -1684062283 -562836808 1015942153 2033781975 703626921 2081561147 1779065892 2144908741 -1299045615 332893016 1903809888 1120147511
REM
CELL 1.54180   50.00000   50.00000   50.00000   90.00000   90.00000   90.00000
LATT -1
SFAC C  
C      1  0.5233970000000  0.4479530000000  0.5168830000000 1.0
C      1  0.5526410000000  0.5238800000000  0.5168830000000 1.0
C      1  0.4767130000000  0.5531240000000  0.5168830000000 1.0
C      1  0.4474700000000  0.4771960000000  0.5168830000000 1.0
C      1  0.4767130000000  0.4479530000000  0.4867810000000 1.0
C      1  0.4474700000000  0.5238800000000  0.4867810000000 1.0
C      1  0.5233970000000  0.5531240000000  0.4867810000000 1.0
C      1  0.5526410000000  0.4771960000000  0.4867810000000 1.0
C      1  0.5106190000000  0.5785780000000  0.4922650000000 1.0
C      1  0.4220150000000  0.5111020000000  0.4922650000000 1.0
C      1  0.4894920000000  0.4224980000000  0.4922650000000 1.0
C      1  0.5780960000000  0.4899750000000  0.4922650000000 1.0
C      1  0.4894920000000  0.5785780000000  0.5114000000000 1.0
C      1  0.5780960000000  0.5111020000000  0.5114000000000 1.0
C      1  0.5106190000000  0.4224980000000  0.5114000000000 1.0
C      1  0.4220150000000  0.4899750000000  0.5114000000000 1.0
C      1  0.5049220000000  0.5297380000000  0.4804000000000 1.0
C      1  0.4708550000000  0.5054050000000  0.4804000000000 1.0
C      1  0.4951890000000  0.4713380000000  0.4804000000000 1.0
C      1  0.5292550000000  0.4956710000000  0.4804000000000 1.0
C      1  0.4951890000000  0.5297380000000  0.5232650000000 1.0
C      1  0.5292550000000  0.5054050000000  0.5232650000000 1.0
C      1  0.5049220000000  0.4713380000000  0.5232650000000 1.0
C      1  0.4708550000000  0.4956710000000  0.5232650000000 1.0
C      1  0.5474950000000  0.4530980000000  0.5018320000000 1.0
C      1  0.4526160000000  0.5479780000000  0.5018320000000 1.0
C      1  0.5474950000000  0.5479780000000  0.5018320000000 1.0
C      1  0.4526160000000  0.4530980000000  0.5018320000000 1.0
C      1  0.5000550000000  0.5005380000000  0.5441410000000 1.0
C      1  0.5000550000000  0.5005380000000  0.4595230000000 1.0
C      1  0.5000550000000  0.5005380000000  0.5018320000000 1.0
END
