TITL C-862502-1143-1454 -8.58425105022841e-06 125000 -362.163541258616 0 0 88 (Th) n - 1
REM
REM in /home/nfs/bkarasulu/CARBON/AIRSS/Generating-Clusters/TERSOFF/Higher-Symm/FIRE-HFTN
REM
REM
REM
REM
REM
REM ./C.cell (b20cbc046b6831c77cfcea5457e17084)
REM AIRSS Version 0.9.1 bugfix July 2018 build 013d7b7c2542+ Fri, 06 Jul 2018 19:26:36 +0100
REM compiler GCC version 9.2.1 20190827 (Red Hat 9.2.1-1)
REM options -cpp -mtune=generic -march=x86-64 -g -O0 -fpre-include=/usr/include/finclude/math-vector-fortran.h
REM seed -368318724 -944502505 -409923614 -1633738000 -1481596286 1977756654 -1087408248 2059569982 1329073759 -1378700462 -198798595 -1395351043 -464032909 474984034 -165288692 -874620015 315041463 -2107602807 143116218 -1013909743 810719131 -1362890177 1707488389 578871863 -372213750 1247350091 451130951 541370883 162586737 -777771609 -2129295696 -924036131 -780666398
REM
CELL 1.54180   50.00000   50.00000   50.00000   90.00000   90.00000   90.00000
LATT -1
SFAC C  
C      1  0.5153700000000  0.4836550000000  0.4598430000000 1.0
C      1  0.4831680000000  0.4587700000000  0.5169300000000 1.0
C      1  0.4582820000000  0.5158570000000  0.4847280000000 1.0
C      1  0.4824850000000  0.4836550000000  0.5411320000000 1.0
C      1  0.4824850000000  0.5151740000000  0.4598430000000 1.0
C      1  0.5153700000000  0.5151740000000  0.5411320000000 1.0
C      1  0.5146870000000  0.4587700000000  0.4840450000000 1.0
C      1  0.5146870000000  0.5400590000000  0.5169300000000 1.0
C      1  0.4831680000000  0.5400590000000  0.4840450000000 1.0
C      1  0.5395720000000  0.5158570000000  0.5162470000000 1.0
C      1  0.5395720000000  0.4829720000000  0.4847280000000 1.0
C      1  0.4582820000000  0.4829720000000  0.5162470000000 1.0
C      1  0.5153700000000  0.5151740000000  0.4598430000000 1.0
C      1  0.4831680000000  0.5400590000000  0.5169300000000 1.0
C      1  0.4582820000000  0.4829720000000  0.4847280000000 1.0
C      1  0.4824850000000  0.5151740000000  0.5411320000000 1.0
C      1  0.4824850000000  0.4836550000000  0.4598430000000 1.0
C      1  0.5153700000000  0.4836550000000  0.5411320000000 1.0
C      1  0.5146870000000  0.5400590000000  0.4840450000000 1.0
C      1  0.5146870000000  0.4587700000000  0.5169300000000 1.0
C      1  0.4831680000000  0.4587700000000  0.4840450000000 1.0
C      1  0.5395720000000  0.4829720000000  0.5162470000000 1.0
C      1  0.5395720000000  0.5158570000000  0.4847280000000 1.0
C      1  0.4582820000000  0.5158570000000  0.5162470000000 1.0
C      1  0.5477610000000  0.4331490000000  0.5182950000000 1.0
C      1  0.4326610000000  0.5172230000000  0.5493220000000 1.0
C      1  0.5167350000000  0.5482490000000  0.4342210000000 1.0
C      1  0.4500930000000  0.4331490000000  0.4826790000000 1.0
C      1  0.4500930000000  0.5656810000000  0.5182950000000 1.0
C      1  0.5477610000000  0.5656810000000  0.4826790000000 1.0
C      1  0.5651930000000  0.5172230000000  0.4516530000000 1.0
C      1  0.5651930000000  0.4816060000000  0.5493220000000 1.0
C      1  0.4326610000000  0.4816060000000  0.4516530000000 1.0
C      1  0.4811190000000  0.5482490000000  0.5667530000000 1.0
C      1  0.4811190000000  0.4505800000000  0.4342210000000 1.0
C      1  0.5167350000000  0.4505800000000  0.5667530000000 1.0
C      1  0.5477610000000  0.5656810000000  0.5182950000000 1.0
C      1  0.4326610000000  0.4816060000000  0.5493220000000 1.0
C      1  0.5167350000000  0.4505800000000  0.4342210000000 1.0
C      1  0.4500930000000  0.5656810000000  0.4826790000000 1.0
C      1  0.4500930000000  0.4331490000000  0.5182950000000 1.0
C      1  0.5477610000000  0.4331490000000  0.4826790000000 1.0
C      1  0.5651930000000  0.4816060000000  0.4516530000000 1.0
C      1  0.5651930000000  0.5172230000000  0.5493220000000 1.0
C      1  0.4326610000000  0.5172230000000  0.4516530000000 1.0
C      1  0.4811190000000  0.4505800000000  0.5667530000000 1.0
C      1  0.4811190000000  0.5482490000000  0.4342210000000 1.0
C      1  0.5167350000000  0.5482490000000  0.5667530000000 1.0
C      1  0.5252480000000  0.5166020000000  0.5722340000000 1.0
C      1  0.5161150000000  0.5711610000000  0.5268080000000 1.0
C      1  0.5706730000000  0.5257350000000  0.5176750000000 1.0
C      1  0.4726060000000  0.5166020000000  0.4287410000000 1.0
C      1  0.4726060000000  0.4822270000000  0.5722340000000 1.0
C      1  0.5252480000000  0.4822270000000  0.4287410000000 1.0
C      1  0.4817390000000  0.5711610000000  0.4741670000000 1.0
C      1  0.4817390000000  0.4276680000000  0.5268080000000 1.0
C      1  0.5161150000000  0.4276680000000  0.4741670000000 1.0
C      1  0.4271810000000  0.5257350000000  0.4832990000000 1.0
C      1  0.4271810000000  0.4730940000000  0.5176750000000 1.0
C      1  0.5706730000000  0.4730940000000  0.4832990000000 1.0
C      1  0.5252480000000  0.4822270000000  0.5722340000000 1.0
C      1  0.5161150000000  0.4276680000000  0.5268080000000 1.0
C      1  0.5706730000000  0.4730940000000  0.5176750000000 1.0
C      1  0.4726060000000  0.4822270000000  0.4287410000000 1.0
C      1  0.4726060000000  0.5166020000000  0.5722340000000 1.0
C      1  0.5252480000000  0.5166020000000  0.4287410000000 1.0
C      1  0.4817390000000  0.4276680000000  0.4741670000000 1.0
C      1  0.4817390000000  0.5711610000000  0.5268080000000 1.0
C      1  0.5161150000000  0.5711610000000  0.4741670000000 1.0
C      1  0.4271810000000  0.4730940000000  0.4832990000000 1.0
C      1  0.4271810000000  0.5257350000000  0.5176750000000 1.0
C      1  0.5706730000000  0.5257350000000  0.4832990000000 1.0
C      1  0.4489870000000  0.5493550000000  0.4505470000000 1.0
C      1  0.5488670000000  0.4494740000000  0.4505470000000 1.0
C      1  0.4489870000000  0.4494740000000  0.5504280000000 1.0
C      1  0.5488670000000  0.4494740000000  0.5504280000000 1.0
C      1  0.5488670000000  0.5493550000000  0.4505470000000 1.0
C      1  0.4489870000000  0.5493550000000  0.5504280000000 1.0
C      1  0.5488670000000  0.5493550000000  0.5504280000000 1.0
C      1  0.4489870000000  0.4494740000000  0.4505470000000 1.0
C      1  0.4315490000000  0.5667930000000  0.5678660000000 1.0
C      1  0.5663060000000  0.5667930000000  0.4331090000000 1.0
C      1  0.5663060000000  0.4320360000000  0.5678660000000 1.0
C      1  0.4315490000000  0.4320360000000  0.5678660000000 1.0
C      1  0.5663060000000  0.4320360000000  0.4331090000000 1.0
C      1  0.4315490000000  0.5667930000000  0.4331090000000 1.0
C      1  0.4315490000000  0.4320360000000  0.4331090000000 1.0
C      1  0.5663060000000  0.5667930000000  0.5678660000000 1.0
END
