TITL C-862501-1041-1341 -1.98871943276403e-05 125000 -315.203635896771 0 0 59 (D3) n - 1
REM
REM in /home/nfs/bkarasulu/CARBON/AIRSS/Generating-Clusters/TERSOFF/Higher-Symm/FIRE-HFTN
REM
REM
REM
REM
REM
REM ./C.cell (b20cbc046b6831c77cfcea5457e17084)
REM AIRSS Version 0.9.1 bugfix July 2018 build 013d7b7c2542+ Fri, 06 Jul 2018 19:26:36 +0100
REM compiler GCC version 9.2.1 20190827 (Red Hat 9.2.1-1)
REM options -cpp -mtune=generic -march=x86-64 -g -O0 -fpre-include=/usr/include/finclude/math-vector-fortran.h
REM seed -1415653362 -807522733 2048374802 615121247 -1223787118 -80064341 2011534490 -1459624969 1969342092 -1899005783 452990887 -43750376 1359780338 1192636656 -1555701504 -1183262016 1778815590 1044897987 -853027297 67422663 1105616190 -1776766315 1679843333 -262017956 -2007521033 1174814989 -1822489139 1395078504 -503716468 129759067 9507562 1083455192 -1232865956
REM
CELL 1.54180   50.00000   50.00000   50.00000   90.00000   90.00000   90.00000
LATT -1
SFAC C  
C      1  0.5002010000000  0.5584700000000  0.5321220000000 1.0
C      1  0.5002010000000  0.4979200000000  0.4334320000000 1.0
C      1  0.5002010000000  0.4427270000000  0.5352150000000 1.0
C      1  0.5039720000000  0.5584700000000  0.4683910000000 1.0
C      1  0.5039720000000  0.4979200000000  0.5670810000000 1.0
C      1  0.5039720000000  0.4427270000000  0.4652970000000 1.0
C      1  0.4628430000000  0.5059890000000  0.5257960000000 1.0
C      1  0.4628430000000  0.5186820000000  0.4820450000000 1.0
C      1  0.4628430000000  0.4744460000000  0.4929280000000 1.0
C      1  0.5413300000000  0.5059890000000  0.4747170000000 1.0
C      1  0.5413300000000  0.5186820000000  0.5184670000000 1.0
C      1  0.5413300000000  0.4744460000000  0.5075850000000 1.0
C      1  0.4546330000000  0.5024100000000  0.4530540000000 1.0
C      1  0.4546330000000  0.4574750000000  0.5215160000000 1.0
C      1  0.4546330000000  0.5392330000000  0.5261990000000 1.0
C      1  0.5495390000000  0.5024100000000  0.5474590000000 1.0
C      1  0.5495390000000  0.4574750000000  0.4789970000000 1.0
C      1  0.5495390000000  0.5392330000000  0.4743130000000 1.0
C      1  0.4554440000000  0.4411640000000  0.4685150000000 1.0
C      1  0.4554440000000  0.5014880000000  0.5668260000000 1.0
C      1  0.4554440000000  0.5564660000000  0.4654290000000 1.0
C      1  0.5487290000000  0.4411640000000  0.5319980000000 1.0
C      1  0.5487290000000  0.5014880000000  0.4336870000000 1.0
C      1  0.5487290000000  0.5564660000000  0.5350840000000 1.0
C      1  0.4766150000000  0.4580350000000  0.5436070000000 1.0
C      1  0.4766150000000  0.5580840000000  0.5146690000000 1.0
C      1  0.4766150000000  0.4829980000000  0.4424930000000 1.0
C      1  0.5275570000000  0.4580350000000  0.4569060000000 1.0
C      1  0.5275570000000  0.5580840000000  0.4858440000000 1.0
C      1  0.5275570000000  0.4829980000000  0.5580200000000 1.0
C      1  0.5101740000000  0.5220170000000  0.5142300000000 1.0
C      1  0.5101740000000  0.5006510000000  0.4739470000000 1.0
C      1  0.5101740000000  0.4764490000000  0.5125920000000 1.0
C      1  0.4939990000000  0.5220170000000  0.4862830000000 1.0
C      1  0.4939990000000  0.5006510000000  0.5265650000000 1.0
C      1  0.4939990000000  0.4764490000000  0.4879210000000 1.0
C      1  0.5605340000000  0.4858980000000  0.4596870000000 1.0
C      1  0.5605340000000  0.4714760000000  0.5324990000000 1.0
C      1  0.5605340000000  0.5417430000000  0.5085830000000 1.0
C      1  0.4436390000000  0.4858980000000  0.5408250000000 1.0
C      1  0.4436390000000  0.4714760000000  0.4680140000000 1.0
C      1  0.4436390000000  0.5417430000000  0.4919300000000 1.0
C      1  0.5374530000000  0.4330740000000  0.5026660000000 1.0
C      1  0.5374530000000  0.5351090000000  0.5567560000000 1.0
C      1  0.5374530000000  0.5309340000000  0.4413460000000 1.0
C      1  0.4667200000000  0.4330740000000  0.4978460000000 1.0
C      1  0.4667200000000  0.5351090000000  0.4437560000000 1.0
C      1  0.4667200000000  0.5309340000000  0.5591660000000 1.0
C      1  0.4787740000000  0.4528760000000  0.4531470000000 1.0
C      1  0.4787740000000  0.4823230000000  0.5643670000000 1.0
C      1  0.4787740000000  0.5639190000000  0.4832550000000 1.0
C      1  0.5253980000000  0.4528760000000  0.5473660000000 1.0
C      1  0.5253980000000  0.4823230000000  0.4361450000000 1.0
C      1  0.5253980000000  0.5639190000000  0.5172580000000 1.0
C      1  0.5020860000000  0.5330110000000  0.4425710000000 1.0
C      1  0.5020860000000  0.5330110000000  0.5579420000000 1.0
C      1  0.5020860000000  0.4330960000000  0.5002560000000 1.0
C      1  0.4555510000000  0.4997060000000  0.5002560000000 1.0
C      1  0.5486220000000  0.4997060000000  0.5002560000000 1.0
END
