TITL C-862133-5440-204 5.3719645015742e-05 125000 -522.352535135929 0 0 105 (S4) n - 1
REM
REM in /home/nfs/bkarasulu/CARBON/AIRSS/Generating-Clusters/TERSOFF/Higher-Symm/FIRE-HFTN
REM
REM
REM
REM
REM
REM ./C.cell (b20cbc046b6831c77cfcea5457e17084)
REM AIRSS Version 0.9.1 bugfix July 2018 build 013d7b7c2542+ Fri, 06 Jul 2018 19:26:36 +0100
REM compiler GCC version 9.2.1 20190827 (Red Hat 9.2.1-1)
REM options -cpp -mtune=generic -march=x86-64 -g -O0 -fpre-include=/usr/include/finclude/math-vector-fortran.h
REM seed -1008851879 979312233 -1928900694 -1464729835 -2110807496 1496236983 514599242 855292675 -619094527 -1591834587 -1289163238 -219377278 -1762270744 -1764239451 -1042227166 585086923 -1856425745 1994903285 83503999 -758534130 239967773 -288318299 -1629856773 -474757070 874603440 -486556185 -385905479 1643679587 846072671 1044890634 750192408 -1734049915 -888643809
REM
CELL 1.54180   50.00000   50.00000   50.00000   90.00000   90.00000   90.00000
LATT -1
SFAC C  
C      1  0.5520500000000  0.5025240000000  0.4239750000000 1.0
C      1  0.5030510000000  0.4477460000000  0.5766560000000 1.0
C      1  0.4482730000000  0.4967450000000  0.4239750000000 1.0
C      1  0.4972720000000  0.5515230000000  0.5766560000000 1.0
C      1  0.4218010000000  0.4742590000000  0.4622510000000 1.0
C      1  0.4747860000000  0.5779950000000  0.5383800000000 1.0
C      1  0.5785220000000  0.5250100000000  0.4622510000000 1.0
C      1  0.5255370000000  0.4212740000000  0.5383800000000 1.0
C      1  0.5383610000000  0.5229520000000  0.4503930000000 1.0
C      1  0.5234790000000  0.4614350000000  0.5502380000000 1.0
C      1  0.4619620000000  0.4763170000000  0.4503930000000 1.0
C      1  0.4768440000000  0.5378340000000  0.5502380000000 1.0
C      1  0.4333530000000  0.4768580000000  0.5435830000000 1.0
C      1  0.4773840000000  0.5664430000000  0.4570480000000 1.0
C      1  0.5669700000000  0.5224120000000  0.5435820000000 1.0
C      1  0.5229380000000  0.4328260000000  0.4570480000000 1.0
C      1  0.5535590000000  0.4529220000000  0.4980420000000 1.0
C      1  0.4534490000000  0.4462380000000  0.5025890000000 1.0
C      1  0.4467640000000  0.5463470000000  0.4980420000000 1.0
C      1  0.5468740000000  0.5530320000000  0.5025890000000 1.0
C      1  0.5120850000000  0.5398530000000  0.4491090000000 1.0
C      1  0.5403800000000  0.4877110000000  0.5515220000000 1.0
C      1  0.4882370000000  0.4594170000000  0.4491090000000 1.0
C      1  0.4599440000000  0.5115590000000  0.5515220000000 1.0
C      1  0.4993190000000  0.5768520000000  0.5581200000000 1.0
C      1  0.5773790000000  0.5004780000000  0.4425100000000 1.0
C      1  0.5010050000000  0.4224170000000  0.5581200000000 1.0
C      1  0.4229440000000  0.4987920000000  0.4425110000000 1.0
C      1  0.4887320000000  0.4107720000000  0.4990110000000 1.0
C      1  0.4112990000000  0.5110640000000  0.5016200000000 1.0
C      1  0.5115910000000  0.5884970000000  0.4990110000000 1.0
C      1  0.5890240000000  0.4882050000000  0.5016190000000 1.0
C      1  0.4883550000000  0.5072970000000  0.4377940000000 1.0
C      1  0.5078250000000  0.5114410000000  0.5628370000000 1.0
C      1  0.5119670000000  0.4919720000000  0.4377930000000 1.0
C      1  0.4924990000000  0.4878290000000  0.5628370000000 1.0
C      1  0.5366510000000  0.5238900000000  0.4074620000000 1.0
C      1  0.5244170000000  0.4631450000000  0.5931680000000 1.0
C      1  0.4636720000000  0.4753800000000  0.4074630000000 1.0
C      1  0.4759070000000  0.5361240000000  0.5931680000000 1.0
C      1  0.5112620000000  0.5506830000000  0.4807370000000 1.0
C      1  0.5512100000000  0.4885340000000  0.5198930000000 1.0
C      1  0.4890610000000  0.4485860000000  0.4807370000000 1.0
C      1  0.4491130000000  0.5107350000000  0.5198940000000 1.0
C      1  0.4567790000000  0.5271920000000  0.4186540000000 1.0
C      1  0.5277190000000  0.5430170000000  0.5819760000000 1.0
C      1  0.5435430000000  0.4720770000000  0.4186540000000 1.0
C      1  0.4726040000000  0.4562530000000  0.5819770000000 1.0
C      1  0.4656600000000  0.4217900000000  0.5140040000000 1.0
C      1  0.4223170000000  0.5341360000000  0.4866270000000 1.0
C      1  0.5346630000000  0.5774790000000  0.5140030000000 1.0
C      1  0.5780060000000  0.4651340000000  0.4866270000000 1.0
C      1  0.4595340000000  0.5861940000000  0.5002350000000 1.0
C      1  0.5867210000000  0.5402630000000  0.5003960000000 1.0
C      1  0.5407890000000  0.4130750000000  0.5002350000000 1.0
C      1  0.4136020000000  0.4590070000000  0.5003960000000 1.0
C      1  0.5178780000000  0.4743140000000  0.4646650000000 1.0
C      1  0.4748410000000  0.4819190000000  0.5359660000000 1.0
C      1  0.4824450000000  0.5249560000000  0.4646650000000 1.0
C      1  0.5254820000000  0.5173510000000  0.5359660000000 1.0
C      1  0.4636910000000  0.4295400000000  0.4655010000000 1.0
C      1  0.4300670000000  0.5361050000000  0.5351300000000 1.0
C      1  0.5366320000000  0.5697300000000  0.4655010000000 1.0
C      1  0.5702570000000  0.4631650000000  0.5351290000000 1.0
C      1  0.5678950000000  0.5559060000000  0.4771050000000 1.0
C      1  0.5564330000000  0.4319010000000  0.5235250000000 1.0
C      1  0.4324280000000  0.4433630000000  0.4771060000000 1.0
C      1  0.4438900000000  0.5673680000000  0.5235250000000 1.0
C      1  0.4858940000000  0.5711160000000  0.4908050000000 1.0
C      1  0.5716430000000  0.5139020000000  0.5098260000000 1.0
C      1  0.5144290000000  0.4281530000000  0.4908050000000 1.0
C      1  0.4286800000000  0.4853670000000  0.5098260000000 1.0
C      1  0.4519760000000  0.5472870000000  0.4418550000000 1.0
C      1  0.5478140000000  0.5478200000000  0.5587750000000 1.0
C      1  0.5483460000000  0.4519820000000  0.4418550000000 1.0
C      1  0.4525100000000  0.4514500000000  0.5587760000000 1.0
C      1  0.5720650000000  0.4924350000000  0.5561240000000 1.0
C      1  0.4929610000000  0.4277310000000  0.4445060000000 1.0
C      1  0.4282580000000  0.5068350000000  0.5561250000000 1.0
C      1  0.5073610000000  0.5715380000000  0.4445060000000 1.0
C      1  0.5117920000000  0.5357420000000  0.4176700000000 1.0
C      1  0.5362690000000  0.4880040000000  0.5829610000000 1.0
C      1  0.4885310000000  0.4635270000000  0.4176700000000 1.0
C      1  0.4640550000000  0.5112650000000  0.5829610000000 1.0
C      1  0.5509150000000  0.5133420000000  0.4801880000000 1.0
C      1  0.5138690000000  0.4488820000000  0.5204430000000 1.0
C      1  0.4494080000000  0.4859270000000  0.4801880000000 1.0
C      1  0.4864540000000  0.5503880000000  0.5204430000000 1.0
C      1  0.4704440000000  0.4281020000000  0.5435910000000 1.0
C      1  0.4286280000000  0.5293530000000  0.4570400000000 1.0
C      1  0.5298800000000  0.5711680000000  0.5435910000000 1.0
C      1  0.5716940000000  0.4699170000000  0.4570400000000 1.0
C      1  0.5265290000000  0.5242870000000  0.5000340000000 1.0
C      1  0.5248140000000  0.4732670000000  0.5005970000000 1.0
C      1  0.4737940000000  0.4749820000000  0.5000340000000 1.0
C      1  0.4755090000000  0.5260030000000  0.5005970000000 1.0
C      1  0.5468840000000  0.4854760000000  0.4671520000000 1.0
C      1  0.4860030000000  0.4529120000000  0.5334780000000 1.0
C      1  0.4534390000000  0.5137930000000  0.4671530000000 1.0
C      1  0.5143200000000  0.5463580000000  0.5334780000000 1.0
C      1  0.5235340000000  0.5144930000000  0.5905000000000 1.0
C      1  0.5150190000000  0.4762620000000  0.4101310000000 1.0
C      1  0.4767890000000  0.4847770000000  0.5905000000000 1.0
C      1  0.4853030000000  0.5230070000000  0.4101310000000 1.0
C      1  0.5001610000000  0.4996350000000  0.5003150000000 1.0
END
