TITL C-862134-6730-792 0.343911620136268 125000 -329.195947325768 0 0 61 (C1) n - 1
REM
REM in /home/nfs/bkarasulu/CARBON/AIRSS/Generating-Clusters/TERSOFF/Higher-Symm/FIRE-HFTN
REM
REM
REM
REM
REM
REM ./C.cell (b20cbc046b6831c77cfcea5457e17084)
REM AIRSS Version 0.9.1 bugfix July 2018 build 013d7b7c2542+ Fri, 06 Jul 2018 19:26:36 +0100
REM compiler GCC version 9.2.1 20190827 (Red Hat 9.2.1-1)
REM options -cpp -mtune=generic -march=x86-64 -g -O0 -fpre-include=/usr/include/finclude/math-vector-fortran.h
REM seed -1775260450 2053335590 -1019159018 1493444391 -48415772 1305257494 -721385448 -999318537 212517119 889074923 -1505594395 2142862508 -1884780727 1594204293 1552935012 -2002187328 -250837477 519875138 455031298 358844967 590458681 -1048741111 -19218382 -1121068739 -1077177601 2082486598 -213898937 1694115332 -1190602864 1406554220 -38009226 -1244393875 -1553366317
REM
CELL 1.54180   50.00000   50.00000   50.00000   90.00000   90.00000   90.00000
LATT -1
SFAC C  
C      1  0.4830760000000  0.4789560000000  0.4787930000000 1.0
C      1  0.5051370000000  0.5350310000000  0.4612060000000 1.0
C      1  0.5300550000000  0.5619420000000  0.5610600000000 1.0
C      1  0.5356000000000  0.4762870000000  0.5564870000000 1.0
C      1  0.4764430000000  0.5301060000000  0.4581720000000 1.0
C      1  0.5031230000000  0.4885330000000  0.4353870000000 1.0
C      1  0.5211970000000  0.4497890000000  0.4656870000000 1.0
C      1  0.5272470000000  0.4984560000000  0.4806920000000 1.0
C      1  0.4899220000000  0.4425500000000  0.5053280000000 1.0
C      1  0.4059900000000  0.5024570000000  0.4442680000000 1.0
C      1  0.4486400000000  0.5414700000000  0.5405950000000 1.0
C      1  0.5586540000000  0.5079780000000  0.4900320000000 1.0
C      1  0.4624470000000  0.4435300000000  0.5207320000000 1.0
C      1  0.4910850000000  0.4485160000000  0.4723210000000 1.0
C      1  0.5141050000000  0.5123340000000  0.5568280000000 1.0
C      1  0.5601360000000  0.4744530000000  0.4474540000000 1.0
C      1  0.5393920000000  0.4298970000000  0.5118320000000 1.0
C      1  0.4716990000000  0.5461910000000  0.5233800000000 1.0
C      1  0.4593370000000  0.5361050000000  0.4816190000000 1.0
C      1  0.5312390000000  0.5695680000000  0.5324250000000 1.0
C      1  0.5304270000000  0.4657670000000  0.4416550000000 1.0
C      1  0.5007570000000  0.5008510000000  0.5001110000000 1.0
C      1  0.5703980000000  0.4755200000000  0.4975780000000 1.0
C      1  0.4403370000000  0.4503500000000  0.5026200000000 1.0
C      1  0.4326840000000  0.5179760000000  0.5342460000000 1.0
C      1  0.4627550000000  0.4912170000000  0.5150440000000 1.0
C      1  0.4313620000000  0.5245240000000  0.4822730000000 1.0
C      1  0.5669080000000  0.5376080000000  0.4786560000000 1.0
C      1  0.5538380000000  0.4982430000000  0.5617380000000 1.0
C      1  0.4287330000000  0.5039810000000  0.4621780000000 1.0
C      1  0.4729040000000  0.5198590000000  0.5049490000000 1.0
C      1  0.4540330000000  0.4990890000000  0.5722580000000 1.0
C      1  0.5473810000000  0.5580970000000  0.4710210000000 1.0
C      1  0.4687700000000  0.5632700000000  0.4967730000000 1.0
C      1  0.4891340000000  0.4652030000000  0.5597120000000 1.0
C      1  0.5339960000000  0.5506960000000  0.5101240000000 1.0
C      1  0.5309280000000  0.4685730000000  0.4851470000000 1.0
C      1  0.4989020000000  0.4907280000000  0.5709320000000 1.0
C      1  0.4635750000000  0.4618890000000  0.5450520000000 1.0
C      1  0.5262940000000  0.5345500000000  0.5716740000000 1.0
C      1  0.5152110000000  0.5163910000000  0.5254040000000 1.0
C      1  0.5455360000000  0.5197580000000  0.4396350000000 1.0
C      1  0.4736190000000  0.5031000000000  0.4458260000000 1.0
C      1  0.5605880000000  0.5185390000000  0.5419900000000 1.0
C      1  0.5257700000000  0.4703450000000  0.5298580000000 1.0
C      1  0.5452190000000  0.4591290000000  0.5100340000000 1.0
C      1  0.4883770000000  0.4601650000000  0.4416560000000 1.0
C      1  0.5452160000000  0.5226730000000  0.5166140000000 1.0
C      1  0.5203360000000  0.5112440000000  0.4528330000000 1.0
C      1  0.4943530000000  0.4731220000000  0.5188000000000 1.0
C      1  0.4439240000000  0.4780320000000  0.4936330000000 1.0
C      1  0.5177120000000  0.5561590000000  0.4807740000000 1.0
C      1  0.5748770000000  0.4625700000000  0.4706120000000 1.0
C      1  0.4990570000000  0.5425870000000  0.5319260000000 1.0
C      1  0.4521500000000  0.4835780000000  0.4611730000000 1.0
C      1  0.5111160000000  0.4228130000000  0.5128880000000 1.0
C      1  0.4944500000000  0.5744830000000  0.4871150000000 1.0
C      1  0.5637700000000  0.5031820000000  0.4548150000000 1.0
C      1  0.4464890000000  0.4903340000000  0.5439090000000 1.0
C      1  0.4452020000000  0.4601580000000  0.4439450000000 1.0
C      1  0.4183850000000  0.5194970000000  0.5085210000000 1.0
END
