TITL C-862131-2149-415 -0.00278859339917313 125000 -890.747064117929 0 0 156 (C3) n - 1
REM
REM in /home/nfs/bkarasulu/CARBON/AIRSS/Generating-Clusters/TERSOFF/Higher-Symm/FIRE-HFTN
REM
REM
REM
REM
REM
REM ./C.cell (b20cbc046b6831c77cfcea5457e17084)
REM AIRSS Version 0.9.1 bugfix July 2018 build 013d7b7c2542+ Fri, 06 Jul 2018 19:26:36 +0100
REM compiler GCC version 9.2.1 20190827 (Red Hat 9.2.1-1)
REM options -cpp -mtune=generic -march=x86-64 -g -O0 -fpre-include=/usr/include/finclude/math-vector-fortran.h
REM seed 1552192497 1581023475 593578133 2123125955 1380378414 1191150404 -152499157 1312392610 819012370 -1603882105 721489283 -1446903855 508013427 -371382435 2020436773 -1733467023 1611075315 1577087412 -742361226 -336740626 758859831 1867135367 1309385361 -360175494 1814939716 1481234448 993960817 -1559388779 497240243 1828177238 -175758697 -1804409249 -2018700449
REM
CELL 1.54180   50.00000   50.00000   50.00000   90.00000   90.00000   90.00000
LATT -1
SFAC C  
C      1  0.4601110000000  0.3941300000000  0.5549570000000 1.0
C      1  0.4601100000000  0.5053400000000  0.3808350000000 1.0
C      1  0.4601100000000  0.6005290000000  0.5642070000000 1.0
C      1  0.5915660000000  0.4719960000000  0.4219310000000 1.0
C      1  0.5915660000000  0.5816120000000  0.5147820000000 1.0
C      1  0.5915660000000  0.4463930000000  0.5632870000000 1.0
C      1  0.3896200000000  0.5318160000000  0.5319920000000 1.0
C      1  0.3896200000000  0.4563850000000  0.5115570000000 1.0
C      1  0.3896200000000  0.5117980000000  0.4564500000000 1.0
C      1  0.5113510000000  0.4275360000000  0.4606590000000 1.0
C      1  0.5113510000000  0.5703020000000  0.4569150000000 1.0
C      1  0.5113510000000  0.5021620000000  0.5824260000000 1.0
C      1  0.5489330000000  0.6084850000000  0.5031400000000 1.0
C      1  0.5489340000000  0.4430390000000  0.5923810000000 1.0
C      1  0.5489340000000  0.4484770000000  0.4044790000000 1.0
C      1  0.4771500000000  0.5060190000000  0.5470320000000 1.0
C      1  0.4771510000000  0.4562590000000  0.4816960000000 1.0
C      1  0.4771500000000  0.5377220000000  0.4712710000000 1.0
C      1  0.4741040000000  0.4821430000000  0.6102350000000 1.0
C      1  0.4741050000000  0.4134620000000  0.4294180000000 1.0
C      1  0.4741040000000  0.6043950000000  0.4603470000000 1.0
C      1  0.5639330000000  0.5984120000000  0.5509190000000 1.0
C      1  0.5639340000000  0.4066970000000  0.5597680000000 1.0
C      1  0.5639340000000  0.4948910000000  0.3893140000000 1.0
C      1  0.5043860000000  0.5066450000000  0.3894930000000 1.0
C      1  0.5043850000000  0.5923800000000  0.5610090000000 1.0
C      1  0.5043860000000  0.4009750000000  0.5494990000000 1.0
C      1  0.5599590000000  0.4102980000000  0.5307290000000 1.0
C      1  0.5599590000000  0.5182400000000  0.4069510000000 1.0
C      1  0.5599580000000  0.5714630000000  0.5623200000000 1.0
C      1  0.5862330000000  0.5027370000000  0.5982260000000 1.0
C      1  0.5862330000000  0.4135660000000  0.4532570000000 1.0
C      1  0.5862330000000  0.5836980000000  0.4485170000000 1.0
C      1  0.4748360000000  0.4061070000000  0.5788260000000 1.0
C      1  0.4748360000000  0.4786810000000  0.3792730000000 1.0
C      1  0.4748350000000  0.6152120000000  0.5419000000000 1.0
C      1  0.5040910000000  0.5233380000000  0.4771820000000 1.0
C      1  0.5040910000000  0.5080920000000  0.5316200000000 1.0
C      1  0.5040910000000  0.4685700000000  0.4911980000000 1.0
C      1  0.4228490000000  0.4532470000000  0.4542770000000 1.0
C      1  0.4228480000000  0.5629730000000  0.4823730000000 1.0
C      1  0.4228490000000  0.4837790000000  0.5633500000000 1.0
C      1  0.5473590000000  0.5663110000000  0.4780360000000 1.0
C      1  0.5473590000000  0.4858660000000  0.5684090000000 1.0
C      1  0.5473600000000  0.4478230000000  0.4535550000000 1.0
C      1  0.4836090000000  0.5635150000000  0.4590580000000 1.0
C      1  0.4836090000000  0.5036990000000  0.5754760000000 1.0
C      1  0.4836090000000  0.4327860000000  0.4654660000000 1.0
C      1  0.4675630000000  0.4035670000000  0.4910070000000 1.0
C      1  0.4675620000000  0.5560040000000  0.4209830000000 1.0
C      1  0.4675620000000  0.5404280000000  0.5880100000000 1.0
C      1  0.5198980000000  0.4859650000000  0.6072940000000 1.0
C      1  0.5198980000000  0.4140980000000  0.4341990000000 1.0
C      1  0.5198980000000  0.5999370000000  0.4585070000000 1.0
C      1  0.4295150000000  0.5324840000000  0.5572990000000 1.0
C      1  0.4295150000000  0.4341350000000  0.4994820000000 1.0
C      1  0.4295150000000  0.5333810000000  0.4432180000000 1.0
C      1  0.4943240000000  0.4942940000000  0.4685650000000 1.0
C      1  0.4943240000000  0.5300760000000  0.5107750000000 1.0
C      1  0.4943240000000  0.4756300000000  0.5206590000000 1.0
C      1  0.5048590000000  0.4610880000000  0.4284660000000 1.0
C      1  0.5048590000000  0.5814060000000  0.5020680000000 1.0
C      1  0.5048590000000  0.4575060000000  0.5694660000000 1.0
C      1  0.5470860000000  0.4702180000000  0.6105460000000 1.0
C      1  0.5470860000000  0.4191550000000  0.4189350000000 1.0
C      1  0.5470860000000  0.6106270000000  0.4705190000000 1.0
C      1  0.5314970000000  0.4477510000000  0.4806190000000 1.0
C      1  0.5314970000000  0.5429090000000  0.4644420000000 1.0
C      1  0.5314970000000  0.5093400000000  0.5549390000000 1.0
C      1  0.4339010000000  0.5454630000000  0.5031040000000 1.0
C      1  0.4339020000000  0.4745800000000  0.5378200000000 1.0
C      1  0.4339020000000  0.4799570000000  0.4590760000000 1.0
C      1  0.5628570000000  0.5212400000000  0.5519270000000 1.0
C      1  0.5628580000000  0.4444100000000  0.4924310000000 1.0
C      1  0.5628570000000  0.5343500000000  0.4556420000000 1.0
C      1  0.5336150000000  0.4575840000000  0.4291770000000 1.0
C      1  0.5336140000000  0.5825430000000  0.4986780000000 1.0
C      1  0.5336140000000  0.4598740000000  0.5721450000000 1.0
C      1  0.5844960000000  0.4920110000000  0.4419530000000 1.0
C      1  0.5844960000000  0.5542650000000  0.5221050000000 1.0
C      1  0.5844960000000  0.4537250000000  0.5359420000000 1.0
C      1  0.4437520000000  0.4096270000000  0.5067340000000 1.0
C      1  0.4437520000000  0.5393540000000  0.4183680000000 1.0
C      1  0.4437520000000  0.5510180000000  0.5748980000000 1.0
C      1  0.4258940000000  0.4946690000000  0.4176660000000 1.0
C      1  0.4258940000000  0.5739680000000  0.5365500000000 1.0
C      1  0.4258940000000  0.4313620000000  0.5457830000000 1.0
C      1  0.5420640000000  0.5398280000000  0.3994070000000 1.0
C      1  0.5420640000000  0.5672020000000  0.5847890000000 1.0
C      1  0.5420640000000  0.3929700000000  0.5158040000000 1.0
C      1  0.5594290000000  0.4935400000000  0.5952990000000 1.0
C      1  0.5594290000000  0.4206990000000  0.4467560000000 1.0
C      1  0.5594290000000  0.5857610000000  0.4579460000000 1.0
C      1  0.6082260000000  0.4504490000000  0.4322950000000 1.0
C      1  0.6082250000000  0.5834100000000  0.4909410000000 1.0
C      1  0.6082250000000  0.4661410000000  0.5767650000000 1.0
C      1  0.3867990000000  0.5411950000000  0.4553870000000 1.0
C      1  0.3867990000000  0.5180380000000  0.5579820000000 1.0
C      1  0.3867990000000  0.4407670000000  0.4866300000000 1.0
C      1  0.6015910000000  0.5678480000000  0.4667730000000 1.0
C      1  0.6015910000000  0.4948520000000  0.5753710000000 1.0
C      1  0.6015910000000  0.4373010000000  0.4578560000000 1.0
C      1  0.4133010000000  0.5104110000000  0.5682150000000 1.0
C      1  0.4133010000000  0.4357180000000  0.4749090000000 1.0
C      1  0.4133010000000  0.5538700000000  0.4568760000000 1.0
C      1  0.5860720000000  0.4833910000000  0.4694320000000 1.0
C      1  0.5860720000000  0.5347770000000  0.5009000000000 1.0
C      1  0.5860720000000  0.4818320000000  0.5296680000000 1.0
C      1  0.5859660000000  0.5427050000000  0.4731030000000 1.0
C      1  0.5859660000000  0.5019410000000  0.5504320000000 1.0
C      1  0.5859660000000  0.4553540000000  0.4764650000000 1.0
C      1  0.4645780000000  0.4099280000000  0.4597570000000 1.0
C      1  0.4645780000000  0.5798870000000  0.4421170000000 1.0
C      1  0.4645780000000  0.5101840000000  0.5981260000000 1.0
C      1  0.5717670000000  0.6026240000000  0.5225940000000 1.0
C      1  0.5717670000000  0.4291210000000  0.5775770000000 1.0
C      1  0.5717680000000  0.4682560000000  0.3998280000000 1.0
C      1  0.4893330000000  0.5603110000000  0.5199030000000 1.0
C      1  0.4893330000000  0.4526080000000  0.5422790000000 1.0
C      1  0.4893330000000  0.4870810000000  0.4378180000000 1.0
C      1  0.5686120000000  0.4360110000000  0.5196260000000 1.0
C      1  0.5686120000000  0.5149980000000  0.4347710000000 1.0
C      1  0.5686120000000  0.5489910000000  0.5456040000000 1.0
C      1  0.4925040000000  0.5480030000000  0.5741730000000 1.0
C      1  0.4925050000000  0.4117630000000  0.5044850000000 1.0
C      1  0.4925040000000  0.5402340000000  0.4213420000000 1.0
C      1  0.4686140000000  0.6186310000000  0.5128080000000 1.0
C      1  0.4686150000000  0.4295920000000  0.5963340000000 1.0
C      1  0.4686150000000  0.4517760000000  0.3908580000000 1.0
C      1  0.4605170000000  0.4820690000000  0.4736330000000 1.0
C      1  0.4605170000000  0.5317990000000  0.4976550000000 1.0
C      1  0.4605170000000  0.4861310000000  0.5287120000000 1.0
C      1  0.4630780000000  0.4583690000000  0.5662470000000 1.0
C      1  0.4630780000000  0.4634440000000  0.4308230000000 1.0
C      1  0.4630780000000  0.5781870000000  0.5029300000000 1.0
C      1  0.4377360000000  0.5862890000000  0.5139700000000 1.0
C      1  0.4377360000000  0.4447560000000  0.5677440000000 1.0
C      1  0.4377360000000  0.4689540000000  0.4182860000000 1.0
C      1  0.4810000000000  0.6010910000000  0.4894730000000 1.0
C      1  0.4810000000000  0.4585720000000  0.5928110000000 1.0
C      1  0.4810010000000  0.4403380000000  0.4177160000000 1.0
C      1  0.5135860000000  0.3918340000000  0.5204810000000 1.0
C      1  0.5135860000000  0.5363460000000  0.3960850000000 1.0
C      1  0.5135850000000  0.5718200000000  0.5834340000000 1.0
C      1  0.4412690000000  0.5778510000000  0.5612600000000 1.0
C      1  0.4412690000000  0.4080210000000  0.5367900000000 1.0
C      1  0.4412690000000  0.5141280000000  0.4019490000000 1.0
C      1  0.4187590000000  0.5042800000000  0.4463330000000 1.0
C      1  0.4187580000000  0.5443370000000  0.5305400000000 1.0
C      1  0.4187590000000  0.4513830000000  0.5231270000000 1.0
C      1  0.4899980000000  0.5087030000000  0.4171210000000 1.0
C      1  0.4899970000000  0.5674240000000  0.5489770000000 1.0
C      1  0.4899980000000  0.4238730000000  0.5339030000000 1.0
C      1  0.3758520000000  0.4829450000000  0.5114960000000 1.0
C      1  0.3758520000000  0.4985710000000  0.4794820000000 1.0
C      1  0.3758520000000  0.5184830000000  0.5090220000000 1.0
END
