TITL C-862503-991-622 0.0779578779549116 125000 -1082.93701663573 0 0 185 (C3) n - 1
REM
REM in /home/nfs/bkarasulu/CARBON/AIRSS/Generating-Clusters/TERSOFF/Higher-Symm/FIRE-HFTN
REM
REM
REM
REM
REM
REM ./C.cell (b20cbc046b6831c77cfcea5457e17084)
REM AIRSS Version 0.9.1 bugfix July 2018 build 013d7b7c2542+ Fri, 06 Jul 2018 19:26:36 +0100
REM compiler GCC version 9.2.1 20190827 (Red Hat 9.2.1-1)
REM options -cpp -mtune=generic -march=x86-64 -g -O0 -fpre-include=/usr/include/finclude/math-vector-fortran.h
REM seed 1550234479 2028855322 1827013299 1329028204 767521678 -860936001 1493348271 1060694649 470045722 191956693 1944444213 903191416 870480930 817372435 319212668 128119163 1028035396 160249856 -113343809 425757454 -921277503 -1261490882 -1032006076 -1803996937 -1040115298 -618545557 1650248484 1998850696 1709548610 -1789633725 2079551108 -212587594 -2075613584
REM
CELL 1.54180   50.00000   50.00000   50.00000   90.00000   90.00000   90.00000
LATT -1
SFAC C  
C      1  0.4995640000000  0.6127590000000  0.4695090000000 1.0
C      1  0.4995630000000  0.4698710000000  0.6125700000000 1.0
C      1  0.4995640000000  0.4174210000000  0.4172950000000 1.0
C      1  0.4836200000000  0.5383530000000  0.4101840000000 1.0
C      1  0.4836190000000  0.5584510000000  0.5777940000000 1.0
C      1  0.4836190000000  0.4032470000000  0.5113950000000 1.0
C      1  0.4038080000000  0.5170110000000  0.5261870000000 1.0
C      1  0.4038080000000  0.4686600000000  0.5013100000000 1.0
C      1  0.4038080000000  0.5143790000000  0.4718750000000 1.0
C      1  0.5822420000000  0.5102010000000  0.5812710000000 1.0
C      1  0.5822420000000  0.4243620000000  0.4678710000000 1.0
C      1  0.5822420000000  0.5654880000000  0.4502330000000 1.0
C      1  0.4552030000000  0.5934270000000  0.4686310000000 1.0
C      1  0.4552020000000  0.4802970000000  0.5962660000000 1.0
C      1  0.4552030000000  0.4263270000000  0.4344760000000 1.0
C      1  0.4306240000000  0.5308050000000  0.5816880000000 1.0
C      1  0.4306250000000  0.4136980000000  0.4855060000000 1.0
C      1  0.4306250000000  0.5555480000000  0.4321790000000 1.0
C      1  0.4485830000000  0.4757120000000  0.4038000000000 1.0
C      1  0.4485820000000  0.5953000000000  0.5267380000000 1.0
C      1  0.4485830000000  0.4290380000000  0.5688350000000 1.0
C      1  0.5179120000000  0.5401900000000  0.4457510000000 1.0
C      1  0.5179110000000  0.5267310000000  0.5616020000000 1.0
C      1  0.5179120000000  0.4331310000000  0.4920210000000 1.0
C      1  0.4809230000000  0.5957180000000  0.4867890000000 1.0
C      1  0.4809230000000  0.4634260000000  0.5891720000000 1.0
C      1  0.4809240000000  0.4409060000000  0.4234120000000 1.0
C      1  0.4862590000000  0.3921930000000  0.4292780000000 1.0
C      1  0.4862580000000  0.6149950000000  0.4416700000000 1.0
C      1  0.4862580000000  0.4928620000000  0.6284260000000 1.0
C      1  0.4571510000000  0.3970640000000  0.4414360000000 1.0
C      1  0.4571500000000  0.6020300000000  0.4398090000000 1.0
C      1  0.4571500000000  0.5009560000000  0.6181280000000 1.0
C      1  0.5113510000000  0.5217070000000  0.5106140000000 1.0
C      1  0.5113510000000  0.4798000000000  0.5131640000000 1.0
C      1  0.5113510000000  0.4985450000000  0.4755960000000 1.0
C      1  0.4191150000000  0.4665200000000  0.4758550000000 1.0
C      1  0.4191150000000  0.5374940000000  0.4827500000000 1.0
C      1  0.4191150000000  0.4960360000000  0.5407680000000 1.0
C      1  0.5047960000000  0.3915900000000  0.5631170000000 1.0
C      1  0.5047960000000  0.4993890000000  0.3742280000000 1.0
C      1  0.5047950000000  0.6090720000000  0.5620290000000 1.0
C      1  0.5727730000000  0.4977580000000  0.4115430000000 1.0
C      1  0.5727720000000  0.5775720000000  0.5419590000000 1.0
C      1  0.5727730000000  0.4247210000000  0.5458720000000 1.0
C      1  0.4903970000000  0.4915000000000  0.5308770000000 1.0
C      1  0.4903980000000  0.4773550000000  0.4768730000000 1.0
C      1  0.4903970000000  0.5311960000000  0.4916240000000 1.0
C      1  0.5274080000000  0.4570510000000  0.6095900000000 1.0
C      1  0.5274090000000  0.4264110000000  0.4076820000000 1.0
C      1  0.5274080000000  0.6165890000000  0.4821010000000 1.0
C      1  0.4542580000000  0.5543300000000  0.6199540000000 1.0
C      1  0.4542590000000  0.3687960000000  0.4867460000000 1.0
C      1  0.4542590000000  0.5769250000000  0.3926730000000 1.0
C      1  0.4450550000000  0.5523710000000  0.5561620000000 1.0
C      1  0.4450550000000  0.4250210000000  0.5169450000000 1.0
C      1  0.4450550000000  0.5226590000000  0.4262650000000 1.0
C      1  0.4540630000000  0.5552860000000  0.4510890000000 1.0
C      1  0.4540620000000  0.5145590000000  0.5720070000000 1.0
C      1  0.4540630000000  0.4302050000000  0.4762770000000 1.0
C      1  0.5698300000000  0.4345070000000  0.4412910000000 1.0
C      1  0.5698300000000  0.5834360000000  0.4723090000000 1.0
C      1  0.5698290000000  0.4821090000000  0.5857750000000 1.0
C      1  0.5437450000000  0.4189340000000  0.5407650000000 1.0
C      1  0.5437460000000  0.5050740000000  0.4090840000000 1.0
C      1  0.5437450000000  0.5760430000000  0.5495240000000 1.0
C      1  0.5171050000000  0.5115340000000  0.4499610000000 1.0
C      1  0.5171040000000  0.5374130000000  0.5346800000000 1.0
C      1  0.5171040000000  0.4511050000000  0.5147330000000 1.0
C      1  0.5533720000000  0.4009310000000  0.5017210000000 1.0
C      1  0.5533720000000  0.5478890000000  0.4130160000000 1.0
C      1  0.5533710000000  0.5512310000000  0.5846380000000 1.0
C      1  0.5258710000000  0.4044980000000  0.4968190000000 1.0
C      1  0.5258710000000  0.5503510000000  0.4185560000000 1.0
C      1  0.5258700000000  0.5452020000000  0.5839990000000 1.0
C      1  0.5675260000000  0.5327450000000  0.5684490000000 1.0
C      1  0.5675270000000  0.4241940000000  0.4938060000000 1.0
C      1  0.5675270000000  0.5431120000000  0.4371190000000 1.0
C      1  0.5277630000000  0.4683570000000  0.4416820000000 1.0
C      1  0.5277630000000  0.5661710000000  0.5014280000000 1.0
C      1  0.5277630000000  0.4655230000000  0.5562640000000 1.0
C      1  0.4466690000000  0.5043910000000  0.4517680000000 1.0
C      1  0.4466690000000  0.5394190000000  0.5275910000000 1.0
C      1  0.4466690000000  0.4562400000000  0.5200140000000 1.0
C      1  0.5841390000000  0.4641570000000  0.5659760000000 1.0
C      1  0.5841400000000  0.4606300000000  0.4356440000000 1.0
C      1  0.5841390000000  0.5752650000000  0.4977550000000 1.0
C      1  0.4861370000000  0.5296720000000  0.6082750000000 1.0
C      1  0.4861380000000  0.3912390000000  0.4712310000000 1.0
C      1  0.4861370000000  0.5791400000000  0.4198670000000 1.0
C      1  0.4999060000000  0.5571200000000  0.4599960000000 1.0
C      1  0.4999060000000  0.5059290000000  0.5691420000000 1.0
C      1  0.4999060000000  0.4370020000000  0.4702360000000 1.0
C      1  0.5591970000000  0.4504730000000  0.5048330000000 1.0
C      1  0.5591970000000  0.5204230000000  0.4543640000000 1.0
C      1  0.5591970000000  0.5291550000000  0.5401770000000 1.0
C      1  0.3531550000000  0.4625970000000  0.5024330000000 1.0
C      1  0.3531550000000  0.5164380000000  0.4660630000000 1.0
C      1  0.3531550000000  0.5210150000000  0.5308750000000 1.0
C      1  0.6010840000000  0.4492110000000  0.5076250000000 1.0
C      1  0.6010840000000  0.5186370000000  0.4518760000000 1.0
C      1  0.6010840000000  0.5322040000000  0.5398750000000 1.0
C      1  0.3763870000000  0.5112000000000  0.5164250000000 1.0
C      1  0.3763870000000  0.4800190000000  0.5011590000000 1.0
C      1  0.3763870000000  0.5088310000000  0.4817880000000 1.0
C      1  0.4762290000000  0.5127250000000  0.3777560000000 1.0
C      1  0.4762280000000  0.5993480000000  0.5718150000000 1.0
C      1  0.4762290000000  0.3879770000000  0.5498030000000 1.0
C      1  0.5948140000000  0.5146350000000  0.4227170000000 1.0
C      1  0.5948130000000  0.5594570000000  0.5509880000000 1.0
C      1  0.5948130000000  0.4259600000000  0.5256700000000 1.0
C      1  0.4148820000000  0.5625730000000  0.4641210000000 1.0
C      1  0.4148810000000  0.4996300000000  0.5718010000000 1.0
C      1  0.4148820000000  0.4378480000000  0.4634510000000 1.0
C      1  0.5270810000000  0.6236190000000  0.5115550000000 1.0
C      1  0.5270810000000  0.4280290000000  0.6009520000000 1.0
C      1  0.5270820000000  0.4484040000000  0.3868670000000 1.0
C      1  0.5036090000000  0.4517010000000  0.4460720000000 1.0
C      1  0.5036080000000  0.5706970000000  0.4848080000000 1.0
C      1  0.5036080000000  0.4776520000000  0.5684930000000 1.0
C      1  0.6017730000000  0.5086970000000  0.5581390000000 1.0
C      1  0.6017740000000  0.4451470000000  0.4781340000000 1.0
C      1  0.6017740000000  0.5462080000000  0.4631010000000 1.0
C      1  0.4702580000000  0.4570230000000  0.4010330000000 1.0
C      1  0.4702570000000  0.6070410000000  0.5119360000000 1.0
C      1  0.4702570000000  0.4359870000000  0.5864040000000 1.0
C      1  0.5098210000000  0.5709450000000  0.4063270000000 1.0
C      1  0.5098200000000  0.5454960000000  0.6079490000000 1.0
C      1  0.5098210000000  0.3836100000000  0.4850980000000 1.0
C      1  0.4490030000000  0.5020310000000  0.5465030000000 1.0
C      1  0.4490030000000  0.4585550000000  0.4781790000000 1.0
C      1  0.4490030000000  0.5394640000000  0.4746900000000 1.0
C      1  0.5011190000000  0.4331120000000  0.5580890000000 1.0
C      1  0.5011200000000  0.4829820000000  0.4127010000000 1.0
C      1  0.5011190000000  0.5839570000000  0.5285840000000 1.0
C      1  0.5490460000000  0.5242570000000  0.4814900000000 1.0
C      1  0.5490450000000  0.5037460000000  0.5299350000000 1.0
C      1  0.5490460000000  0.4720480000000  0.4879490000000 1.0
C      1  0.4725580000000  0.5548160000000  0.3884390000000 1.0
C      1  0.4725570000000  0.5690520000000  0.6029240000000 1.0
C      1  0.4725580000000  0.3761840000000  0.5080100000000 1.0
C      1  0.5066310000000  0.6132480000000  0.5313550000000 1.0
C      1  0.5066320000000  0.4160660000000  0.5820710000000 1.0
C      1  0.5066320000000  0.4707360000000  0.3859480000000 1.0
C      1  0.5501670000000  0.4817200000000  0.5486660000000 1.0
C      1  0.5501670000000  0.4668390000000  0.4595080000000 1.0
C      1  0.5501670000000  0.5514920000000  0.4911990000000 1.0
C      1  0.4296640000000  0.4407400000000  0.4370960000000 1.0
C      1  0.4296640000000  0.5839510000000  0.4798030000000 1.0
C      1  0.4296630000000  0.4753600000000  0.5824730000000 1.0
C      1  0.4266010000000  0.5859900000000  0.5093520000000 1.0
C      1  0.4266010000000  0.4487490000000  0.5694650000000 1.0
C      1  0.4266010000000  0.4653110000000  0.4205550000000 1.0
C      1  0.6027820000000  0.4957070000000  0.4700860000000 1.0
C      1  0.6027820000000  0.5278980000000  0.5109120000000 1.0
C      1  0.6027820000000  0.4764460000000  0.5183770000000 1.0
C      1  0.5531210000000  0.6085740000000  0.4678770000000 1.0
C      1  0.5531200000000  0.4733770000000  0.6097610000000 1.0
C      1  0.5531210000000  0.4181000000000  0.4217360000000 1.0
C      1  0.6013270000000  0.5507010000000  0.4926000000000 1.0
C      1  0.6013270000000  0.4809030000000  0.5472800000000 1.0
C      1  0.6013280000000  0.4684480000000  0.4594940000000 1.0
C      1  0.4202770000000  0.5370900000000  0.5130210000000 1.0
C      1  0.4202770000000  0.4700230000000  0.5252820000000 1.0
C      1  0.4202770000000  0.4929380000000  0.4610700000000 1.0
C      1  0.4541820000000  0.5837360000000  0.5539690000000 1.0
C      1  0.4541820000000  0.4112380000000  0.5452050000000 1.0
C      1  0.4541830000000  0.5050770000000  0.4001990000000 1.0
C      1  0.4435780000000  0.3895080000000  0.4691800000000 1.0
C      1  0.4435770000000  0.5817810000000  0.4193920000000 1.0
C      1  0.4435770000000  0.5287620000000  0.6108000000000 1.0
C      1  0.5304990000000  0.5944850000000  0.5693110000000 1.0
C      1  0.5305000000000  0.3925770000000  0.5468430000000 1.0
C      1  0.5305000000000  0.5129890000000  0.3832190000000 1.0
C      1  0.4789670000000  0.5143050000000  0.5848360000000 1.0
C      1  0.4789670000000  0.4192220000000  0.4696420000000 1.0
C      1  0.4789670000000  0.5665250000000  0.4448950000000 1.0
C      1  0.4669250000000  0.5114180000000  0.5235660000000 1.0
C      1  0.4669250000000  0.4737260000000  0.4977780000000 1.0
C      1  0.4669250000000  0.5149060000000  0.4780290000000 1.0
C      1  0.5235590000000  0.4940270000000  0.4281560000000 1.0
C      1  0.5235580000000  0.5650500000000  0.5304220000000 1.0
C      1  0.5235590000000  0.4409740000000  0.5407960000000 1.0
C      1  0.5344970000000  0.5000170000000  0.4997910000000 1.0
C      1  0.6034590000000  0.5000170000000  0.4997920000000 1.0
END
