TITL C-862507-1800-150 0.00565064425027201 125000 -569.860071597706 0 0 96 (C1) n - 1
REM
REM in /home/nfs/bkarasulu/CARBON/AIRSS/Generating-Clusters/TERSOFF/Higher-Symm/FIRE-HFTN
REM
REM
REM
REM
REM
REM ./C.cell (b20cbc046b6831c77cfcea5457e17084)
REM AIRSS Version 0.9.1 bugfix July 2018 build 013d7b7c2542+ Fri, 06 Jul 2018 19:26:36 +0100
REM compiler GCC version 9.2.1 20190827 (Red Hat 9.2.1-1)
REM options -cpp -mtune=generic -march=x86-64 -g -O0 -fpre-include=/usr/include/finclude/math-vector-fortran.h
REM seed 1078165133 -1600068766 85759401 30721869 -213186048 -261569402 -1572879946 -1953622357 1146820254 -741148664 -1853107771 1641955205 -1658915609 -123557277 -764252441 1449051234 584050735 387964795 1831824829 351109166 -1909041332 1111961794 564515863 1546165313 890259536 1541275146 1456473839 371784172 -2095012467 -243017654 1747107120 2053027740 -390750125
REM
CELL 1.54180   50.00000   50.00000   50.00000   90.00000   90.00000   90.00000
LATT -1
SFAC C  
C      1  0.5370850000000  0.5398010000000  0.5540010000000 1.0
C      1  0.4838520000000  0.4739430000000  0.5606360000000 1.0
C      1  0.4160330000000  0.4992650000000  0.5125840000000 1.0
C      1  0.4690320000000  0.4929790000000  0.5121250000000 1.0
C      1  0.4748360000000  0.4396560000000  0.4825420000000 1.0
C      1  0.6071730000000  0.4816680000000  0.5100640000000 1.0
C      1  0.4814860000000  0.5223000000000  0.3956590000000 1.0
C      1  0.4144570000000  0.4716360000000  0.5020790000000 1.0
C      1  0.4835030000000  0.4920100000000  0.3989650000000 1.0
C      1  0.5147390000000  0.4037760000000  0.4625740000000 1.0
C      1  0.5851230000000  0.4620090000000  0.5063110000000 1.0
C      1  0.4808250000000  0.5442430000000  0.4166830000000 1.0
C      1  0.4987710000000  0.4331460000000  0.5575510000000 1.0
C      1  0.5261930000000  0.5051860000000  0.4872460000000 1.0
C      1  0.4563440000000  0.4967920000000  0.4343090000000 1.0
C      1  0.5117720000000  0.4756340000000  0.4911050000000 1.0
C      1  0.4746390000000  0.4281350000000  0.5763610000000 1.0
C      1  0.5226160000000  0.4475590000000  0.5673720000000 1.0
C      1  0.5480250000000  0.5155710000000  0.5038240000000 1.0
C      1  0.6086360000000  0.5085250000000  0.4969400000000 1.0
C      1  0.5301590000000  0.4168140000000  0.4843500000000 1.0
C      1  0.4488800000000  0.5207970000000  0.4769740000000 1.0
C      1  0.4513370000000  0.5848500000000  0.4730240000000 1.0
C      1  0.4548790000000  0.4485320000000  0.5884840000000 1.0
C      1  0.4739770000000  0.4367050000000  0.5121600000000 1.0
C      1  0.5000590000000  0.5745320000000  0.4522690000000 1.0
C      1  0.5785470000000  0.5187810000000  0.4463650000000 1.0
C      1  0.4580500000000  0.4660790000000  0.5504730000000 1.0
C      1  0.4468680000000  0.5218410000000  0.4468660000000 1.0
C      1  0.4322740000000  0.4575480000000  0.4564830000000 1.0
C      1  0.5017660000000  0.4767260000000  0.4207030000000 1.0
C      1  0.4505270000000  0.4357290000000  0.4656780000000 1.0
C      1  0.5284970000000  0.4751920000000  0.5590970000000 1.0
C      1  0.5330840000000  0.5676850000000  0.5609120000000 1.0
C      1  0.4427930000000  0.5603280000000  0.5169580000000 1.0
C      1  0.4100220000000  0.5045830000000  0.5414450000000 1.0
C      1  0.5383300000000  0.4607350000000  0.4967240000000 1.0
C      1  0.4111020000000  0.4669160000000  0.4739250000000 1.0
C      1  0.5115960000000  0.5810630000000  0.5462450000000 1.0
C      1  0.5129550000000  0.5465160000000  0.5095920000000 1.0
C      1  0.4993040000000  0.5526400000000  0.5813470000000 1.0
C      1  0.4937300000000  0.4761030000000  0.5157200000000 1.0
C      1  0.4807540000000  0.5523600000000  0.5585120000000 1.0
C      1  0.4899700000000  0.4940460000000  0.4692690000000 1.0
C      1  0.5469770000000  0.5651260000000  0.4935670000000 1.0
C      1  0.4975060000000  0.4268110000000  0.5274340000000 1.0
C      1  0.5041850000000  0.5315340000000  0.4816920000000 1.0
C      1  0.4734290000000  0.5413160000000  0.4832570000000 1.0
C      1  0.4389090000000  0.4737190000000  0.4332870000000 1.0
C      1  0.4841710000000  0.4912410000000  0.4409480000000 1.0
C      1  0.4988740000000  0.5124340000000  0.5403980000000 1.0
C      1  0.5590120000000  0.4702060000000  0.5163680000000 1.0
C      1  0.4870510000000  0.4845450000000  0.5877630000000 1.0
C      1  0.5694800000000  0.5074000000000  0.5490890000000 1.0
C      1  0.4367700000000  0.4694940000000  0.5707990000000 1.0
C      1  0.5923230000000  0.5325740000000  0.5039250000000 1.0
C      1  0.5675480000000  0.4911610000000  0.4479790000000 1.0
C      1  0.4516020000000  0.5459950000000  0.5625990000000 1.0
C      1  0.5789850000000  0.4509640000000  0.4790910000000 1.0
C      1  0.4284810000000  0.4990070000000  0.5644020000000 1.0
C      1  0.4603190000000  0.5465140000000  0.4380340000000 1.0
C      1  0.5588300000000  0.4979140000000  0.5237940000000 1.0
C      1  0.4528020000000  0.4500820000000  0.5269550000000 1.0
C      1  0.4258680000000  0.4501490000000  0.5172510000000 1.0
C      1  0.5339850000000  0.4970820000000  0.5793100000000 1.0
C      1  0.5045960000000  0.4832880000000  0.5425100000000 1.0
C      1  0.4720420000000  0.5185310000000  0.5279890000000 1.0
C      1  0.5214030000000  0.4136390000000  0.5133770000000 1.0
C      1  0.5037180000000  0.4193050000000  0.4403600000000 1.0
C      1  0.5476480000000  0.5584820000000  0.4484480000000 1.0
C      1  0.4982640000000  0.4530480000000  0.4717600000000 1.0
C      1  0.5518130000000  0.5190920000000  0.5692680000000 1.0
C      1  0.4916470000000  0.5637080000000  0.5283170000000 1.0
C      1  0.5282050000000  0.5439220000000  0.4316980000000 1.0
C      1  0.4707960000000  0.5648330000000  0.4625460000000 1.0
C      1  0.5646610000000  0.5384670000000  0.4928420000000 1.0
C      1  0.5303380000000  0.4832020000000  0.4141690000000 1.0
C      1  0.5673180000000  0.5408320000000  0.4615710000000 1.0
C      1  0.5189440000000  0.5229200000000  0.4499280000000 1.0
C      1  0.5481640000000  0.4417260000000  0.4751770000000 1.0
C      1  0.5865590000000  0.4707280000000  0.4590690000000 1.0
C      1  0.4431500000000  0.5215310000000  0.5768100000000 1.0
C      1  0.5380980000000  0.4503370000000  0.4470840000000 1.0
C      1  0.4332740000000  0.5591150000000  0.5440520000000 1.0
C      1  0.5372600000000  0.4997060000000  0.4585630000000 1.0
C      1  0.5087780000000  0.5034280000000  0.5939090000000 1.0
C      1  0.5308530000000  0.5755290000000  0.4681860000000 1.0
C      1  0.5077430000000  0.4490520000000  0.4428690000000 1.0
C      1  0.5023570000000  0.5310000000000  0.6007010000000 1.0
C      1  0.4684330000000  0.5462880000000  0.5133760000000 1.0
C      1  0.5201700000000  0.5297740000000  0.5331090000000 1.0
C      1  0.4359680000000  0.5809050000000  0.4975530000000 1.0
C      1  0.5512100000000  0.4716710000000  0.4306200000000 1.0
C      1  0.5046160000000  0.5599590000000  0.4249170000000 1.0
C      1  0.4243720000000  0.5213070000000  0.4941990000000 1.0
C      1  0.4658970000000  0.4984710000000  0.4845790000000 1.0
END
