TITL C-862128-1543-1295 0.00193963675276888 125000 -299.795468339691 0 0 53 (C2) n - 1
REM
REM in /home/nfs/bkarasulu/CARBON/AIRSS/Generating-Clusters/TERSOFF/Higher-Symm/FIRE-HFTN
REM
REM
REM
REM
REM
REM ./C.cell (b20cbc046b6831c77cfcea5457e17084)
REM AIRSS Version 0.9.1 bugfix July 2018 build 013d7b7c2542+ Fri, 06 Jul 2018 19:26:36 +0100
REM compiler GCC version 9.2.1 20190827 (Red Hat 9.2.1-1)
REM options -cpp -mtune=generic -march=x86-64 -g -O0 -fpre-include=/usr/include/finclude/math-vector-fortran.h
REM seed 1465466667 -1238721413 21923852 -564957529 -2026480558 1031413003 1101429712 99725267 -365816190 -960884042 375415580 1038105112 480596442 -1902750662 977811977 1684937539 475825367 -386209617 -61448567 -353755657 -31686659 1005311205 -1880935154 -387839409 279635839 -1400554868 -983185309 -227252203 -260671937 -1396386084 1659427487 1776176472 -304382079
REM
CELL 1.54180   50.00000   50.00000   50.00000   90.00000   90.00000   90.00000
LATT -1
SFAC C  
C      1  0.4568500000000  0.5308560000000  0.4529020000000 1.0
C      1  0.5313510000000  0.5437560000000  0.4529040000000 1.0
C      1  0.5442570000000  0.4692480000000  0.4529020000000 1.0
C      1  0.4697550000000  0.4563490000000  0.4529020000000 1.0
C      1  0.5474440000000  0.5153440000000  0.4872520000000 1.0
C      1  0.5158400000000  0.4531850000000  0.4872490000000 1.0
C      1  0.4536610000000  0.4847600000000  0.4872500000000 1.0
C      1  0.4852660000000  0.5469180000000  0.4872500000000 1.0
C      1  0.4565030000000  0.4964970000000  0.5425630000000 1.0
C      1  0.4970210000000  0.5439820000000  0.5425140000000 1.0
C      1  0.5446010000000  0.5036050000000  0.5425640000000 1.0
C      1  0.5040830000000  0.4561190000000  0.5425120000000 1.0
C      1  0.4475580000000  0.4582120000000  0.4968080000000 1.0
C      1  0.4587150000000  0.5530190000000  0.4968010000000 1.0
C      1  0.5535470000000  0.5418910000000  0.4968110000000 1.0
C      1  0.5423900000000  0.4470850000000  0.4968010000000 1.0
C      1  0.5024080000000  0.4780580000000  0.5207300000000 1.0
C      1  0.4783460000000  0.4981780000000  0.5206900000000 1.0
C      1  0.4986970000000  0.5220440000000  0.5207310000000 1.0
C      1  0.5227590000000  0.5019240000000  0.5206910000000 1.0
C      1  0.5317620000000  0.4908620000000  0.4369850000000 1.0
C      1  0.4913780000000  0.4688420000000  0.4370010000000 1.0
C      1  0.4693450000000  0.5092440000000  0.4369850000000 1.0
C      1  0.5097280000000  0.5312640000000  0.4370020000000 1.0
C      1  0.4776060000000  0.4996150000000  0.5650890000000 1.0
C      1  0.5001220000000  0.5228780000000  0.5650560000000 1.0
C      1  0.5234970000000  0.5004860000000  0.5650900000000 1.0
C      1  0.5009820000000  0.4772230000000  0.5650550000000 1.0
C      1  0.5088150000000  0.4786270000000  0.4739320000000 1.0
C      1  0.4790940000000  0.4917750000000  0.4739100000000 1.0
C      1  0.4922910000000  0.5214770000000  0.4739320000000 1.0
C      1  0.5220110000000  0.5083290000000  0.4739100000000 1.0
C      1  0.5653110000000  0.4732350000000  0.4732520000000 1.0
C      1  0.4737300000000  0.4353100000000  0.4732660000000 1.0
C      1  0.4357950000000  0.5268700000000  0.4732510000000 1.0
C      1  0.5273750000000  0.5647940000000  0.4732690000000 1.0
C      1  0.4375840000000  0.5075020000000  0.4952700000000 1.0
C      1  0.5080070000000  0.5629930000000  0.4952840000000 1.0
C      1  0.5635210000000  0.4926020000000  0.4952710000000 1.0
C      1  0.4930990000000  0.4371100000000  0.4952810000000 1.0
C      1  0.4410550000000  0.5172790000000  0.5236170000000 1.0
C      1  0.5177830000000  0.5594890000000  0.5236270000000 1.0
C      1  0.5600490000000  0.4828240000000  0.5236180000000 1.0
C      1  0.4833210000000  0.4406140000000  0.5236250000000 1.0
C      1  0.4500220000000  0.5455410000000  0.5234340000000 1.0
C      1  0.5460670000000  0.5505820000000  0.5234440000000 1.0
C      1  0.5510830000000  0.4545620000000  0.5234330000000 1.0
C      1  0.4550370000000  0.4495200000000  0.5234410000000 1.0
C      1  0.5318580000000  0.4460040000000  0.5433850000000 1.0
C      1  0.4464220000000  0.4687090000000  0.5434060000000 1.0
C      1  0.4692460000000  0.5540970000000  0.5433860000000 1.0
C      1  0.5546820000000  0.5313930000000  0.5434080000000 1.0
C      1  0.5005530000000  0.5000530000000  0.4388030000000 1.0
END
