TITL C-862130-1496-1284 -5.62450614722243e-06 125000 -460.985856409186 0 0 77 (D3) n - 1
REM
REM in /home/nfs/bkarasulu/CARBON/AIRSS/Generating-Clusters/TERSOFF/Higher-Symm/FIRE-HFTN
REM
REM
REM
REM
REM
REM ./C.cell (b20cbc046b6831c77cfcea5457e17084)
REM AIRSS Version 0.9.1 bugfix July 2018 build 013d7b7c2542+ Fri, 06 Jul 2018 19:26:36 +0100
REM compiler GCC version 9.2.1 20190827 (Red Hat 9.2.1-1)
REM options -cpp -mtune=generic -march=x86-64 -g -O0 -fpre-include=/usr/include/finclude/math-vector-fortran.h
REM seed -487914026 503767733 1046339096 -478713446 -1881956108 1203874207 -575196150 494952473 -619674153 -1753524439 -794532103 -2072670358 -1868531664 -278955153 404897295 689781113 435159102 1740089798 876815729 583639977 -334340934 1168291291 -1137088695 -1882489192 -218041003 797433098 1738978931 -869562237 1172703321 -1601751448 -1335173742 -1558004228 664711703
REM
CELL 1.54180   50.00000   50.00000   50.00000   90.00000   90.00000   90.00000
LATT -1
SFAC C  
C      1  0.4959490000000  0.4764240000000  0.4702060000000 1.0
C      1  0.5270960000000  0.4764240000000  0.5116580000000 1.0
C      1  0.4756240000000  0.4764240000000  0.5179060000000 1.0
C      1  0.5031640000000  0.5263080000000  0.4702060000000 1.0
C      1  0.4720170000000  0.5263080000000  0.5116580000000 1.0
C      1  0.5234890000000  0.5263080000000  0.5179060000000 1.0
C      1  0.4710880000000  0.4270790000000  0.4964550000000 1.0
C      1  0.5167950000000  0.4270790000000  0.4770040000000 1.0
C      1  0.5107860000000  0.4270790000000  0.5263120000000 1.0
C      1  0.5280240000000  0.5756540000000  0.4964550000000 1.0
C      1  0.4823180000000  0.5756540000000  0.4770040000000 1.0
C      1  0.4883270000000  0.5756540000000  0.5263120000000 1.0
C      1  0.4691630000000  0.4368720000000  0.4675410000000 1.0
C      1  0.5427970000000  0.4368720000000  0.4897940000000 1.0
C      1  0.4867090000000  0.4368720000000  0.5424360000000 1.0
C      1  0.5299500000000  0.5658600000000  0.4675410000000 1.0
C      1  0.4563160000000  0.5658600000000  0.4897940000000 1.0
C      1  0.5124040000000  0.5658600000000  0.5424360000000 1.0
C      1  0.4945510000000  0.5530010000000  0.4302980000000 1.0
C      1  0.5623570000000  0.5530010000000  0.5304010000000 1.0
C      1  0.4417620000000  0.5530010000000  0.5390720000000 1.0
C      1  0.5045620000000  0.4497320000000  0.4302980000000 1.0
C      1  0.4367560000000  0.4497320000000  0.5304010000000 1.0
C      1  0.5573510000000  0.4497320000000  0.5390720000000 1.0
C      1  0.4980410000000  0.4453840000000  0.4596500000000 1.0
C      1  0.5351920000000  0.4453840000000  0.5187480000000 1.0
C      1  0.4654370000000  0.4453840000000  0.5213730000000 1.0
C      1  0.5010720000000  0.5573490000000  0.4596500000000 1.0
C      1  0.4639210000000  0.5573490000000  0.5187480000000 1.0
C      1  0.5336760000000  0.5573490000000  0.5213730000000 1.0
C      1  0.5102660000000  0.5474240000000  0.5660210000000 1.0
C      1  0.4369600000000  0.5474240000000  0.4761500000000 1.0
C      1  0.5514430000000  0.5474240000000  0.4576000000000 1.0
C      1  0.4888470000000  0.4553090000000  0.5660210000000 1.0
C      1  0.5621530000000  0.4553090000000  0.4761500000000 1.0
C      1  0.4476700000000  0.4553090000000  0.4576000000000 1.0
C      1  0.4207600000000  0.4779590000000  0.4947510000000 1.0
C      1  0.5434350000000  0.4779590000000  0.4342700000000 1.0
C      1  0.5344750000000  0.4779590000000  0.5707500000000 1.0
C      1  0.5783530000000  0.5247730000000  0.4947510000000 1.0
C      1  0.4556780000000  0.5247730000000  0.4342700000000 1.0
C      1  0.4646380000000  0.5247730000000  0.5707500000000 1.0
C      1  0.4577060000000  0.4847050000000  0.5425900000000 1.0
C      1  0.4835310000000  0.4847050000000  0.4423470000000 1.0
C      1  0.5574320000000  0.4847050000000  0.5148340000000 1.0
C      1  0.5414070000000  0.5180270000000  0.5425900000000 1.0
C      1  0.5155810000000  0.5180270000000  0.4423470000000 1.0
C      1  0.4416810000000  0.5180270000000  0.5148340000000 1.0
C      1  0.5179700000000  0.4746400000000  0.4205370000000 1.0
C      1  0.5591010000000  0.4746400000000  0.5555630000000 1.0
C      1  0.4215990000000  0.4746400000000  0.5236710000000 1.0
C      1  0.4811430000000  0.5280930000000  0.4205370000000 1.0
C      1  0.4400120000000  0.5280930000000  0.5555630000000 1.0
C      1  0.5775140000000  0.5280930000000  0.5236710000000 1.0
C      1  0.5760280000000  0.4707200000000  0.4972280000000 1.0
C      1  0.4636550000000  0.4707200000000  0.5674980000000 1.0
C      1  0.4589860000000  0.4707200000000  0.4350450000000 1.0
C      1  0.4230840000000  0.5320130000000  0.4972280000000 1.0
C      1  0.5354580000000  0.5320130000000  0.5674980000000 1.0
C      1  0.5401270000000  0.5320130000000  0.4350450000000 1.0
C      1  0.4756970000000  0.5169470000000  0.4813500000000 1.0
C      1  0.5275710000000  0.5169470000000  0.4885470000000 1.0
C      1  0.4954010000000  0.5169470000000  0.5298730000000 1.0
C      1  0.5234160000000  0.4857860000000  0.4813500000000 1.0
C      1  0.4715420000000  0.4857860000000  0.4885470000000 1.0
C      1  0.5037110000000  0.4857860000000  0.5298730000000 1.0
C      1  0.4536710000000  0.5271450000000  0.4630620000000 1.0
C      1  0.5544220000000  0.5271450000000  0.4786160000000 1.0
C      1  0.4905760000000  0.5271450000000  0.5580930000000 1.0
C      1  0.5454420000000  0.4755870000000  0.4630620000000 1.0
C      1  0.4446900000000  0.4755880000000  0.4786160000000 1.0
C      1  0.5085370000000  0.4755880000000  0.5580930000000 1.0
C      1  0.4995560000000  0.5013660000000  0.4224030000000 1.0
C      1  0.5666910000000  0.5013660000000  0.5386840000000 1.0
C      1  0.4324220000000  0.5013660000000  0.5386840000000 1.0
C      1  0.4995560000000  0.5858330000000  0.4999240000000 1.0
C      1  0.4995560000000  0.4169000000000  0.4999240000000 1.0
END
