TITL C-862127-1500-586 -179.777539573543 125000 -461.423334829022 0 0 83 (C1) n - 1
REM
REM in /home/nfs/bkarasulu/CARBON/AIRSS/Generating-Clusters/TERSOFF/Higher-Symm/FIRE-HFTN
REM
REM
REM
REM
REM
REM ./C.cell (b20cbc046b6831c77cfcea5457e17084)
REM AIRSS Version 0.9.1 bugfix July 2018 build 013d7b7c2542+ Fri, 06 Jul 2018 19:26:36 +0100
REM compiler GCC version 9.2.1 20190827 (Red Hat 9.2.1-1)
REM options -cpp -mtune=generic -march=x86-64 -g -O0 -fpre-include=/usr/include/finclude/math-vector-fortran.h
REM seed -1847672547 1093960333 1704841648 211346769 -105759613 54337141 1328043079 -168173317 -1894778243 1200820962 -1788421421 164796387 -95616591 691883504 392843137 98123211 1908333634 46905430 -1550042431 -1936862724 1202179711 -1586318303 -2032591273 -789974391 -1539883186 1106286321 -410790805 1952627928 -1141519379 -1438884779 -768335903 1866203273 1973511793
REM
CELL 1.54180   50.00000   50.00000   50.00000   90.00000   90.00000   90.00000
LATT -1
SFAC C  
C      1  0.5191660000000  0.4998450000000  0.5748700000000 1.0
C      1  0.5188930000000  0.5007550000000  0.4198910000000 1.0
C      1  0.4659650000000  0.3976010000000  0.5161090000000 1.0
C      1  0.4267880000000  0.4401300000000  0.4863540000000 1.0
C      1  0.4357520000000  0.4820960000000  0.4498010000000 1.0
C      1  0.4406230000000  0.4755970000000  0.5411390000000 1.0
C      1  0.5095380000000  0.4378190000000  0.5391990000000 1.0
C      1  0.5020180000000  0.4395750000000  0.4639540000000 1.0
C      1  0.5542540000000  0.4504780000000  0.4735890000000 1.0
C      1  0.5567500000000  0.4505160000000  0.5219380000000 1.0
C      1  0.4400490000000  0.5084880000000  0.4362930000000 1.0
C      1  0.4428970000000  0.5041700000000  0.5513500000000 1.0
C      1  0.5854280000000  0.5038780000000  0.4591230000000 1.0
C      1  0.5857060000000  0.5042130000000  0.5353160000000 1.0
C      1  0.5308860000000  0.4600650000000  0.4573190000000 1.0
C      1  0.5338860000000  0.4597040000000  0.5393740000000 1.0
C      1  0.4946140000000  0.5830370000000  0.4739130000000 1.0
C      1  0.4936710000000  0.5817390000000  0.5235500000000 1.0
C      1  0.5942340000000  0.4843130000000  0.4793540000000 1.0
C      1  0.5941730000000  0.4842340000000  0.5153860000000 1.0
C      1  0.4976480000000  0.5224170000000  0.4265960000000 1.0
C      1  0.4980360000000  0.5211850000000  0.5671750000000 1.0
C      1  0.5161320000000  0.4114850000000  0.5271190000000 1.0
C      1  0.5079170000000  0.4129830000000  0.4765140000000 1.0
C      1  0.5057890000000  0.5130290000000  0.5215950000000 1.0
C      1  0.5057110000000  0.5140670000000  0.4712160000000 1.0
C      1  0.5845360000000  0.5328540000000  0.5258060000000 1.0
C      1  0.5845650000000  0.5329330000000  0.4679810000000 1.0
C      1  0.5007740000000  0.4891620000000  0.4565390000000 1.0
C      1  0.5027650000000  0.4877890000000  0.5368110000000 1.0
C      1  0.5465550000000  0.5278650000000  0.4479560000000 1.0
C      1  0.5462970000000  0.5277310000000  0.5454220000000 1.0
C      1  0.4608090000000  0.4661340000000  0.4467630000000 1.0
C      1  0.4655170000000  0.4617680000000  0.5494920000000 1.0
C      1  0.4829090000000  0.4832450000000  0.5574120000000 1.0
C      1  0.4799520000000  0.4853340000000  0.4371070000000 1.0
C      1  0.4197010000000  0.5358740000000  0.5151310000000 1.0
C      1  0.4268120000000  0.5479930000000  0.4660470000000 1.0
C      1  0.5689210000000  0.4948460000000  0.5584620000000 1.0
C      1  0.5682680000000  0.4937750000000  0.4365740000000 1.0
C      1  0.5644060000000  0.5515270000000  0.5419720000000 1.0
C      1  0.5642080000000  0.5517310000000  0.4520170000000 1.0
C      1  0.5415150000000  0.5659810000000  0.5251540000000 1.0
C      1  0.5417330000000  0.5664170000000  0.4692810000000 1.0
C      1  0.4535970000000  0.5895620000000  0.4801470000000 1.0
C      1  0.4511650000000  0.5800340000000  0.5209770000000 1.0
C      1  0.5387080000000  0.4863110000000  0.4387710000000 1.0
C      1  0.5397590000000  0.4859490000000  0.5566100000000 1.0
C      1  0.4726560000000  0.4485130000000  0.4667460000000 1.0
C      1  0.4804050000000  0.4427400000000  0.5335020000000 1.0
C      1  0.4244730000000  0.5255600000000  0.5441040000000 1.0
C      1  0.4238980000000  0.5315700000000  0.4422080000000 1.0
C      1  0.4245320000000  0.4672280000000  0.5183630000000 1.0
C      1  0.4144740000000  0.4764900000000  0.4693160000000 1.0
C      1  0.5128200000000  0.5645700000000  0.4599620000000 1.0
C      1  0.5130120000000  0.5632400000000  0.5354310000000 1.0
C      1  0.4673620000000  0.4264820000000  0.5128220000000 1.0
C      1  0.4557360000000  0.4388360000000  0.4889470000000 1.0
C      1  0.4686280000000  0.5103440000000  0.4227850000000 1.0
C      1  0.4690510000000  0.5085590000000  0.5690290000000 1.0
C      1  0.5027170000000  0.5351330000000  0.5415230000000 1.0
C      1  0.5016380000000  0.5369340000000  0.4524680000000 1.0
C      1  0.5348180000000  0.5164870000000  0.4719260000000 1.0
C      1  0.5349110000000  0.5162950000000  0.5213130000000 1.0
C      1  0.4365060000000  0.5755460000000  0.4618250000000 1.0
C      1  0.4247330000000  0.5671280000000  0.5203150000000 1.0
C      1  0.5429210000000  0.5556630000000  0.4971110000000 1.0
C      1  0.4029610000000  0.5103850000000  0.5055640000000 1.0
C      1  0.5498980000000  0.4284190000000  0.4974930000000 1.0
C      1  0.4753250000000  0.5748230000000  0.4990470000000 1.0
C      1  0.5259760000000  0.4091220000000  0.4995520000000 1.0
C      1  0.4905300000000  0.5174800000000  0.4964510000000 1.0
C      1  0.5463550000000  0.5261070000000  0.4967230000000 1.0
C      1  0.4707470000000  0.5445770000000  0.4962720000000 1.0
C      1  0.5744160000000  0.4099920000000  0.4960130000000 1.0
C      1  0.5691120000000  0.4679540000000  0.4969970000000 1.0
C      1  0.5228290000000  0.4797400000000  0.4992640000000 1.0
C      1  0.5212410000000  0.4508400000000  0.4995370000000 1.0
C      1  0.4593710000000  0.5044100000000  0.4924270000000 1.0
C      1  0.4424700000000  0.5326170000000  0.4915540000000 1.0
C      1  0.4037940000000  0.5484250000000  0.4877880000000 1.0
C      1  0.5759030000000  0.5297130000000  0.4968920000000 1.0
C      1  0.4146180000000  0.4850020000000  0.4976280000000 1.0
END
