TITL C-862129-6180-19 0.00447744812207229 125000 -888.919984646505 0 0 163 (C1) n - 1
REM
REM in /home/nfs/bkarasulu/CARBON/AIRSS/Generating-Clusters/TERSOFF/Higher-Symm/FIRE-HFTN
REM
REM
REM
REM
REM
REM ./C.cell (b20cbc046b6831c77cfcea5457e17084)
REM AIRSS Version 0.9.1 bugfix July 2018 build 013d7b7c2542+ Fri, 06 Jul 2018 19:26:36 +0100
REM compiler GCC version 9.2.1 20190827 (Red Hat 9.2.1-1)
REM options -cpp -mtune=generic -march=x86-64 -g -O0 -fpre-include=/usr/include/finclude/math-vector-fortran.h
REM seed 1967740168 675790857 -745520576 233030962 191828918 1121102646 -442671432 2018080759 -1337884818 586149364 1172716616 -953370982 -1320127146 171103494 1445603574 -540662099 1132231600 -489672745 63894392 -320519209 -1407746717 820926870 147113767 1744286969 -1487989720 -1025267180 -295254281 -57751398 467056268 -783379508 -392311425 776258619 -2091626656
REM
CELL 1.54180   50.00000   50.00000   50.00000   90.00000   90.00000   90.00000
LATT -1
SFAC C  
C      1  0.4890070000000  0.5909600000000  0.4449970000000 1.0
C      1  0.5133130000000  0.4064050000000  0.4438830000000 1.0
C      1  0.4886600000000  0.4112890000000  0.5536180000000 1.0
C      1  0.5109460000000  0.5914730000000  0.5569280000000 1.0
C      1  0.5877370000000  0.4896350000000  0.4482740000000 1.0
C      1  0.4091540000000  0.5130490000000  0.4455940000000 1.0
C      1  0.4110670000000  0.4885230000000  0.5525140000000 1.0
C      1  0.5904260000000  0.5129670000000  0.5537700000000 1.0
C      1  0.5042480000000  0.4295080000000  0.4821210000000 1.0
C      1  0.4928750000000  0.5781910000000  0.4862740000000 1.0
C      1  0.5063220000000  0.5775050000000  0.5112140000000 1.0
C      1  0.4898250000000  0.4269300000000  0.5072190000000 1.0
C      1  0.4298560000000  0.5085720000000  0.4907200000000 1.0
C      1  0.5730700000000  0.4916620000000  0.4949230000000 1.0
C      1  0.5662890000000  0.5072050000000  0.5198920000000 1.0
C      1  0.4357980000000  0.4909040000000  0.5142180000000 1.0
C      1  0.4637090000000  0.5137240000000  0.4079340000000 1.0
C      1  0.5350360000000  0.4844010000000  0.4059030000000 1.0
C      1  0.4635140000000  0.4872050000000  0.5963640000000 1.0
C      1  0.5373110000000  0.5137540000000  0.5943820000000 1.0
C      1  0.5123940000000  0.4613550000000  0.4057950000000 1.0
C      1  0.4872800000000  0.5361160000000  0.4052620000000 1.0
C      1  0.4858290000000  0.4641260000000  0.5949560000000 1.0
C      1  0.5147060000000  0.5362950000000  0.5946860000000 1.0
C      1  0.4601180000000  0.5062600000000  0.5217960000000 1.0
C      1  0.5255930000000  0.4896150000000  0.5115320000000 1.0
C      1  0.4722170000000  0.4980130000000  0.4888640000000 1.0
C      1  0.5342330000000  0.4998850000000  0.4815980000000 1.0
C      1  0.5004960000000  0.4668420000000  0.5142750000000 1.0
C      1  0.5008680000000  0.5359570000000  0.5125600000000 1.0
C      1  0.4869620000000  0.4675450000000  0.4855070000000 1.0
C      1  0.5094580000000  0.5402680000000  0.4801980000000 1.0
C      1  0.4639810000000  0.4428220000000  0.6040040000000 1.0
C      1  0.5365440000000  0.5577760000000  0.6039720000000 1.0
C      1  0.4669180000000  0.5591330000000  0.3959040000000 1.0
C      1  0.5339120000000  0.4394550000000  0.3960000000000 1.0
C      1  0.4403290000000  0.4666550000000  0.6046850000000 1.0
C      1  0.5602540000000  0.5342010000000  0.6038960000000 1.0
C      1  0.5572020000000  0.4633000000000  0.3973150000000 1.0
C      1  0.4430530000000  0.5359180000000  0.3978770000000 1.0
C      1  0.4047030000000  0.5020990000000  0.5236940000000 1.0
C      1  0.6003530000000  0.4969430000000  0.5263890000000 1.0
C      1  0.4071940000000  0.4962990000000  0.4737190000000 1.0
C      1  0.5940810000000  0.5039360000000  0.4768870000000 1.0
C      1  0.5020680000000  0.4053710000000  0.5253030000000 1.0
C      1  0.4951080000000  0.5983060000000  0.5299020000000 1.0
C      1  0.4967240000000  0.4002870000000  0.4711800000000 1.0
C      1  0.5025100000000  0.6036160000000  0.4709590000000 1.0
C      1  0.5395200000000  0.5541860000000  0.4436650000000 1.0
C      1  0.4612840000000  0.4447140000000  0.4434440000000 1.0
C      1  0.5402740000000  0.4436480000000  0.5733660000000 1.0
C      1  0.4596560000000  0.5580870000000  0.5757720000000 1.0
C      1  0.5582380000000  0.5405770000000  0.4267240000000 1.0
C      1  0.4448560000000  0.4618840000000  0.4267930000000 1.0
C      1  0.4469160000000  0.5391270000000  0.5584730000000 1.0
C      1  0.5525150000000  0.4630160000000  0.5559320000000 1.0
C      1  0.5846990000000  0.5314880000000  0.4580420000000 1.0
C      1  0.4120340000000  0.4639820000000  0.4572330000000 1.0
C      1  0.5917140000000  0.4690400000000  0.5424220000000 1.0
C      1  0.4103160000000  0.5288720000000  0.5408860000000 1.0
C      1  0.5306210000000  0.5929720000000  0.4568090000000 1.0
C      1  0.4669250000000  0.4053290000000  0.4565600000000 1.0
C      1  0.4688580000000  0.5840590000000  0.5440850000000 1.0
C      1  0.5306490000000  0.4142510000000  0.5431010000000 1.0
C      1  0.5306240000000  0.4943820000000  0.6162190000000 1.0
C      1  0.4715390000000  0.5053080000000  0.6185780000000 1.0
C      1  0.5281550000000  0.5024800000000  0.3830550000000 1.0
C      1  0.4688120000000  0.4936490000000  0.3860540000000 1.0
C      1  0.4963150000000  0.5296020000000  0.6174420000000 1.0
C      1  0.5055020000000  0.4702370000000  0.6166110000000 1.0
C      1  0.5045830000000  0.5275740000000  0.3826070000000 1.0
C      1  0.4929840000000  0.4685970000000  0.3844470000000 1.0
C      1  0.3947980000000  0.4738760000000  0.4942280000000 1.0
C      1  0.6032840000000  0.5269420000000  0.4971960000000 1.0
C      1  0.3930010000000  0.5246370000000  0.5027850000000 1.0
C      1  0.6099980000000  0.4740670000000  0.5042300000000 1.0
C      1  0.4755240000000  0.3894890000000  0.4948190000000 1.0
C      1  0.5243870000000  0.6117330000000  0.4949640000000 1.0
C      1  0.5237500000000  0.3967000000000  0.5031140000000 1.0
C      1  0.4728200000000  0.6079990000000  0.5079780000000 1.0
C      1  0.5709550000000  0.4869100000000  0.5658210000000 1.0
C      1  0.4286530000000  0.5146870000000  0.5684490000000 1.0
C      1  0.5679580000000  0.5121460000000  0.4336510000000 1.0
C      1  0.4331140000000  0.4876880000000  0.4414730000000 1.0
C      1  0.4872160000000  0.5693430000000  0.5683340000000 1.0
C      1  0.5126400000000  0.4311670000000  0.5669770000000 1.0
C      1  0.5149900000000  0.5714820000000  0.4324220000000 1.0
C      1  0.4853000000000  0.4264170000000  0.4334990000000 1.0
C      1  0.4799010000000  0.5028010000000  0.4553540000000 1.0
C      1  0.5214530000000  0.4972000000000  0.4545820000000 1.0
C      1  0.4758800000000  0.5004210000000  0.5475160000000 1.0
C      1  0.5222950000000  0.5005550000000  0.5459310000000 1.0
C      1  0.5001530000000  0.4742460000000  0.4546250000000 1.0
C      1  0.5013760000000  0.5248970000000  0.4542660000000 1.0
C      1  0.4968430000000  0.4771780000000  0.5460140000000 1.0
C      1  0.5008940000000  0.5238600000000  0.5459220000000 1.0
C      1  0.4436880000000  0.5760980000000  0.5247850000000 1.0
C      1  0.5562040000000  0.4235870000000  0.5240430000000 1.0
C      1  0.4418830000000  0.4146660000000  0.4754520000000 1.0
C      1  0.5559360000000  0.5839870000000  0.4757920000000 1.0
C      1  0.5817510000000  0.4428370000000  0.5251580000000 1.0
C      1  0.4190380000000  0.5560900000000  0.5250720000000 1.0
C      1  0.4197640000000  0.4378530000000  0.4745950000000 1.0
C      1  0.5766860000000  0.5593470000000  0.4760110000000 1.0
C      1  0.4390780000000  0.4620730000000  0.5075030000000 1.0
C      1  0.5566890000000  0.5371260000000  0.5186990000000 1.0
C      1  0.4393170000000  0.5373350000000  0.4894270000000 1.0
C      1  0.5595730000000  0.4646150000000  0.4885640000000 1.0
C      1  0.4629340000000  0.4417220000000  0.5127920000000 1.0
C      1  0.5334330000000  0.5619750000000  0.5145610000000 1.0
C      1  0.5333950000000  0.4430590000000  0.4810670000000 1.0
C      1  0.4665240000000  0.5584480000000  0.4811230000000 1.0
C      1  0.4265440000000  0.4483210000000  0.5824700000000 1.0
C      1  0.5742060000000  0.5534300000000  0.5828950000000 1.0
C      1  0.4253030000000  0.5531450000000  0.4175360000000 1.0
C      1  0.5760010000000  0.4481870000000  0.4182720000000 1.0
C      1  0.4478200000000  0.4254960000000  0.5828340000000 1.0
C      1  0.5527250000000  0.5760120000000  0.5834850000000 1.0
C      1  0.5533040000000  0.4266240000000  0.4174050000000 1.0
C      1  0.4483730000000  0.5740100000000  0.4169780000000 1.0
C      1  0.5368590000000  0.5468560000000  0.4718160000000 1.0
C      1  0.4620430000000  0.4512620000000  0.4720180000000 1.0
C      1  0.5227880000000  0.4488000000000  0.5209450000000 1.0
C      1  0.4762560000000  0.5499150000000  0.5208470000000 1.0
C      1  0.5500160000000  0.5233530000000  0.4799430000000 1.0
C      1  0.4494130000000  0.4780340000000  0.4700680000000 1.0
C      1  0.4549490000000  0.5350120000000  0.5305060000000 1.0
C      1  0.5458370000000  0.4643490000000  0.5280540000000 1.0
C      1  0.5852700000000  0.4588490000000  0.4439470000000 1.0
C      1  0.4145340000000  0.5432840000000  0.4426170000000 1.0
C      1  0.5852830000000  0.5441110000000  0.5575070000000 1.0
C      1  0.4161170000000  0.4581680000000  0.5567620000000 1.0
C      1  0.4583610000000  0.5854160000000  0.4419470000000 1.0
C      1  0.5435090000000  0.4143900000000  0.4420890000000 1.0
C      1  0.5416360000000  0.5870960000000  0.5588730000000 1.0
C      1  0.4584220000000  0.4149870000000  0.5576580000000 1.0
C      1  0.5623370000000  0.4162320000000  0.4669990000000 1.0
C      1  0.4380400000000  0.5852710000000  0.4662700000000 1.0
C      1  0.5607600000000  0.5869590000000  0.5342180000000 1.0
C      1  0.4388040000000  0.4148510000000  0.5340430000000 1.0
C      1  0.4154080000000  0.5628710000000  0.4662960000000 1.0
C      1  0.5847420000000  0.4387530000000  0.4672090000000 1.0
C      1  0.5842160000000  0.5648860000000  0.5336710000000 1.0
C      1  0.4167140000000  0.4375820000000  0.5331930000000 1.0
C      1  0.5020840000000  0.5432420000000  0.5689140000000 1.0
C      1  0.4971870000000  0.4574840000000  0.5686060000000 1.0
C      1  0.5004310000000  0.4544010000000  0.4317780000000 1.0
C      1  0.5012750000000  0.5432030000000  0.4302250000000 1.0
C      1  0.5434320000000  0.5021510000000  0.5680440000000 1.0
C      1  0.4569270000000  0.5003820000000  0.5711670000000 1.0
C      1  0.4587740000000  0.5033620000000  0.4352160000000 1.0
C      1  0.5412200000000  0.4972960000000  0.4316010000000 1.0
C      1  0.4521280000000  0.4086350000000  0.5045370000000 1.0
C      1  0.5463960000000  0.5914810000000  0.5046410000000 1.0
C      1  0.4525630000000  0.5873060000000  0.4963940000000 1.0
C      1  0.5462150000000  0.4156530000000  0.4952630000000 1.0
C      1  0.4115250000000  0.4493110000000  0.5028150000000 1.0
C      1  0.5843650000000  0.5493900000000  0.5049450000000 1.0
C      1  0.5897720000000  0.4517260000000  0.4961690000000 1.0
C      1  0.4102250000000  0.5497690000000  0.4953600000000 1.0
C      1  0.5017840000000  0.4997510000000  0.6368640000000 1.0
C      1  0.4975460000000  0.4976640000000  0.3645570000000 1.0
C      1  0.4991200000000  0.5076370000000  0.5045220000000 1.0
END
