TITL C-862128-1543-1337 0.389870967293314 125000 -313.70413502146 0 0 58 (C1) n - 1
REM
REM in /home/nfs/bkarasulu/CARBON/AIRSS/Generating-Clusters/TERSOFF/Higher-Symm/FIRE-HFTN
REM
REM
REM
REM
REM
REM ./C.cell (b20cbc046b6831c77cfcea5457e17084)
REM AIRSS Version 0.9.1 bugfix July 2018 build 013d7b7c2542+ Fri, 06 Jul 2018 19:26:36 +0100
REM compiler GCC version 9.2.1 20190827 (Red Hat 9.2.1-1)
REM options -cpp -mtune=generic -march=x86-64 -g -O0 -fpre-include=/usr/include/finclude/math-vector-fortran.h
REM seed -171139697 1578867433 1197219291 -1166525955 1521313369 1446309977 997133042 -404027562 128010205 864372136 -1910636353 -486733317 1860717467 -2044422044 -830252308 1167125227 -187899723 -1341353961 101878186 2043736219 552807595 -745731957 1520350352 1696962810 -1393860729 -1011699119 -779186942 -319070070 -917689390 1136270227 1371308527 1250838450 1806217655
REM
CELL 1.54180   50.00000   50.00000   50.00000   90.00000   90.00000   90.00000
LATT -1
SFAC C  
C      1  0.5098920000000  0.4823900000000  0.4557450000000 1.0
C      1  0.5164230000000  0.5380080000000  0.5060350000000 1.0
C      1  0.5155300000000  0.4809820000000  0.5316030000000 1.0
C      1  0.4391180000000  0.4811280000000  0.4816250000000 1.0
C      1  0.4398740000000  0.5255500000000  0.4923650000000 1.0
C      1  0.4404960000000  0.4943910000000  0.5251750000000 1.0
C      1  0.5315160000000  0.4807210000000  0.5609790000000 1.0
C      1  0.5324190000000  0.4604380000000  0.4502810000000 1.0
C      1  0.5324690000000  0.5603460000000  0.4876950000000 1.0
C      1  0.4947640000000  0.4903240000000  0.4305170000000 1.0
C      1  0.4981720000000  0.5629870000000  0.5204870000000 1.0
C      1  0.5001540000000  0.4507480000000  0.5410650000000 1.0
C      1  0.4927530000000  0.4735450000000  0.4863420000000 1.0
C      1  0.4950530000000  0.5244570000000  0.4810120000000 1.0
C      1  0.4934340000000  0.5064430000000  0.5316460000000 1.0
C      1  0.4527520000000  0.5450370000000  0.5143560000000 1.0
C      1  0.4539240000000  0.4653440000000  0.5304980000000 1.0
C      1  0.4522400000000  0.4913860000000  0.4539020000000 1.0
C      1  0.4743370000000  0.5538100000000  0.5357830000000 1.0
C      1  0.4759400000000  0.4427140000000  0.5259190000000 1.0
C      1  0.4715940000000  0.5079020000000  0.4345450000000 1.0
C      1  0.5437040000000  0.5832360000000  0.5023560000000 1.0
C      1  0.5361090000000  0.4527450000000  0.5704230000000 1.0
C      1  0.5449270000000  0.4604860000000  0.4237890000000 1.0
C      1  0.5027610000000  0.4810890000000  0.4042160000000 1.0
C      1  0.5054310000000  0.5909470000000  0.5180740000000 1.0
C      1  0.5152980000000  0.4345070000000  0.5604440000000 1.0
C      1  0.5153180000000  0.5296570000000  0.5391200000000 1.0
C      1  0.5146720000000  0.4655760000000  0.5046630000000 1.0
C      1  0.5151700000000  0.5112360000000  0.4624990000000 1.0
C      1  0.4837560000000  0.5508310000000  0.4677140000000 1.0
C      1  0.4827840000000  0.5033200000000  0.5610290000000 1.0
C      1  0.4838830000000  0.4473470000000  0.4709170000000 1.0
C      1  0.5526600000000  0.5423200000000  0.4744660000000 1.0
C      1  0.5539490000000  0.5002400000000  0.5549720000000 1.0
C      1  0.5510200000000  0.4586120000000  0.4742530000000 1.0
C      1  0.5080140000000  0.4946670000000  0.5754170000000 1.0
C      1  0.5088580000000  0.4400930000000  0.4551940000000 1.0
C      1  0.5093790000000  0.5670850000000  0.4686490000000 1.0
C      1  0.4606160000000  0.5164090000000  0.4741330000000 1.0
C      1  0.4608330000000  0.5150380000000  0.5271970000000 1.0
C      1  0.4607980000000  0.4699080000000  0.4977650000000 1.0
C      1  0.5393810000000  0.5256660000000  0.5549260000000 1.0
C      1  0.5359660000000  0.4489420000000  0.4962840000000 1.0
C      1  0.5395410000000  0.5248910000000  0.4553390000000 1.0
C      1  0.4776380000000  0.4306770000000  0.4974830000000 1.0
C      1  0.4748720000000  0.5381380000000  0.4399230000000 1.0
C      1  0.4761310000000  0.5355990000000  0.5611600000000 1.0
C      1  0.4614650000000  0.4596080000000  0.4533160000000 1.0
C      1  0.4621500000000  0.5607650000000  0.4871060000000 1.0
C      1  0.4619110000000  0.4809680000000  0.5587170000000 1.0
C      1  0.5685840000000  0.4806990000000  0.4819580000000 1.0
C      1  0.5701680000000  0.5280280000000  0.4926260000000 1.0
C      1  0.5711650000000  0.4954590000000  0.5314770000000 1.0
C      1  0.4243390000000  0.5003440000000  0.5001000000000 1.0
C      1  0.4900130000000  0.5015740000000  0.5001630000000 1.0
C      1  0.5311520000000  0.5048740000000  0.5092320000000 1.0
C      1  0.5619600000000  0.5014320000000  0.5031990000000 1.0
END
