TITL C-862506-1665-68 -0.000129865582583815 125000 -612.53781364981 0 0 114 (C1) n - 1
REM
REM in /home/nfs/bkarasulu/CARBON/AIRSS/Generating-Clusters/TERSOFF/Higher-Symm/FIRE-HFTN
REM
REM
REM
REM
REM
REM ./C.cell (b20cbc046b6831c77cfcea5457e17084)
REM AIRSS Version 0.9.1 bugfix July 2018 build 013d7b7c2542+ Fri, 06 Jul 2018 19:26:36 +0100
REM compiler GCC version 9.2.1 20190827 (Red Hat 9.2.1-1)
REM options -cpp -mtune=generic -march=x86-64 -g -O0 -fpre-include=/usr/include/finclude/math-vector-fortran.h
REM seed -1287656588 -3194287 -1932170138 -1078751201 -1331626974 -1618270523 -1696799045 -2030355256 -1179641735 1763162813 -1467828736 97644991 213366299 149820897 -1222358889 1064662269 -1116476977 -719652021 -1310044842 -1675724410 -1701073668 -718178931 2075098806 1183595552 -1369705728 358253180 -1642193609 -1775461054 1974938039 -676435918 638071548 -1331157648 -1460846988
REM
CELL 1.54180   50.00000   50.00000   50.00000   90.00000   90.00000   90.00000
LATT -1
SFAC C  
C      1  0.4656660000000  0.5072170000000  0.4711230000000 1.0
C      1  0.4975930000000  0.5342790000000  0.4731150000000 1.0
C      1  0.5343310000000  0.5120570000000  0.4672610000000 1.0
C      1  0.5255280000000  0.4714640000000  0.4726300000000 1.0
C      1  0.4809530000000  0.4687040000000  0.4657570000000 1.0
C      1  0.4189840000000  0.4813860000000  0.5249550000000 1.0
C      1  0.4541420000000  0.5725910000000  0.5238690000000 1.0
C      1  0.5544190000000  0.5631980000000  0.5239690000000 1.0
C      1  0.5809300000000  0.4671210000000  0.5220250000000 1.0
C      1  0.4932720000000  0.4184180000000  0.5225050000000 1.0
C      1  0.5857040000000  0.4602730000000  0.4725010000000 1.0
C      1  0.4935850000000  0.4044520000000  0.4744140000000 1.0
C      1  0.4112840000000  0.4836530000000  0.4763770000000 1.0
C      1  0.4524760000000  0.5805950000000  0.4726180000000 1.0
C      1  0.5618590000000  0.5708000000000  0.4756650000000 1.0
C      1  0.4799890000000  0.5580930000000  0.4327370000000 1.0
C      1  0.5509780000000  0.5396760000000  0.4343070000000 1.0
C      1  0.5526540000000  0.4631430000000  0.4308130000000 1.0
C      1  0.4848810000000  0.4377470000000  0.4330820000000 1.0
C      1  0.4371310000000  0.4983110000000  0.4314290000000 1.0
C      1  0.5179840000000  0.5519720000000  0.5683150000000 1.0
C      1  0.5497300000000  0.5000630000000  0.5632350000000 1.0
C      1  0.5142540000000  0.4533770000000  0.5635290000000 1.0
C      1  0.4566160000000  0.4706090000000  0.5681670000000 1.0
C      1  0.4610850000000  0.5309610000000  0.5644570000000 1.0
C      1  0.4615740000000  0.4412800000000  0.5577640000000 1.0
C      1  0.4326470000000  0.5174180000000  0.5590260000000 1.0
C      1  0.4944840000000  0.5736750000000  0.5629100000000 1.0
C      1  0.5632070000000  0.5250170000000  0.5539480000000 1.0
C      1  0.5462850000000  0.4455900000000  0.5610750000000 1.0
C      1  0.5729190000000  0.5162630000000  0.5278140000000 1.0
C      1  0.5465330000000  0.4293830000000  0.5364770000000 1.0
C      1  0.4469500000000  0.4380900000000  0.5324730000000 1.0
C      1  0.4278280000000  0.5295520000000  0.5329450000000 1.0
C      1  0.5013480000000  0.5918420000000  0.5404310000000 1.0
C      1  0.4598740000000  0.4528040000000  0.5086760000000 1.0
C      1  0.4495970000000  0.5249690000000  0.5100500000000 1.0
C      1  0.4961260000000  0.5739000000000  0.5178220000000 1.0
C      1  0.5515100000000  0.5019650000000  0.5102220000000 1.0
C      1  0.5402140000000  0.4447600000000  0.5124500000000 1.0
C      1  0.4148260000000  0.5042160000000  0.4510030000000 1.0
C      1  0.4774080000000  0.5816880000000  0.4512980000000 1.0
C      1  0.5718140000000  0.5479470000000  0.4547620000000 1.0
C      1  0.5686730000000  0.4451760000000  0.4491140000000 1.0
C      1  0.4722550000000  0.4188680000000  0.4536360000000 1.0
C      1  0.5879830000000  0.5280680000000  0.4769080000000 1.0
C      1  0.5576500000000  0.4279010000000  0.4770220000000 1.0
C      1  0.4461210000000  0.4255040000000  0.4745630000000 1.0
C      1  0.4155610000000  0.5253920000000  0.4775910000000 1.0
C      1  0.4977570000000  0.5904370000000  0.4766980000000 1.0
C      1  0.4831450000000  0.4626080000000  0.5235570000000 1.0
C      1  0.4727920000000  0.5016540000000  0.5121130000000 1.0
C      1  0.5020170000000  0.5429330000000  0.5197180000000 1.0
C      1  0.5229810000000  0.5173310000000  0.5129610000000 1.0
C      1  0.5122100000000  0.4631070000000  0.5114680000000 1.0
C      1  0.4511850000000  0.4845800000000  0.4935660000000 1.0
C      1  0.4755390000000  0.5451190000000  0.4952350000000 1.0
C      1  0.5377250000000  0.5346830000000  0.4880220000000 1.0
C      1  0.5515850000000  0.4795940000000  0.4875520000000 1.0
C      1  0.4914750000000  0.4461030000000  0.4791810000000 1.0
C      1  0.4906770000000  0.4330780000000  0.5523900000000 1.0
C      1  0.4317600000000  0.4872390000000  0.5548550000000 1.0
C      1  0.4670850000000  0.5604090000000  0.5538740000000 1.0
C      1  0.5478650000000  0.5503350000000  0.5520060000000 1.0
C      1  0.5635820000000  0.4710370000000  0.5533370000000 1.0
C      1  0.4795720000000  0.4695180000000  0.4326950000000 1.0
C      1  0.4670620000000  0.5093480000000  0.4370490000000 1.0
C      1  0.5009260000000  0.5341150000000  0.4384100000000 1.0
C      1  0.5355550000000  0.5108270000000  0.4335960000000 1.0
C      1  0.5225010000000  0.4707560000000  0.4384280000000 1.0
C      1  0.4238020000000  0.5022190000000  0.5013140000000 1.0
C      1  0.4734730000000  0.5804690000000  0.4985650000000 1.0
C      1  0.5653310000000  0.5456840000000  0.4983240000000 1.0
C      1  0.5656570000000  0.4535900000000  0.4977850000000 1.0
C      1  0.4738520000000  0.4264360000000  0.4957860000000 1.0
C      1  0.4484130000000  0.4666480000000  0.4668870000000 1.0
C      1  0.4547660000000  0.5387420000000  0.4708450000000 1.0
C      1  0.5227460000000  0.5558100000000  0.4730160000000 1.0
C      1  0.5646860000000  0.4956020000000  0.4641050000000 1.0
C      1  0.5176660000000  0.4385720000000  0.4700920000000 1.0
C      1  0.4135490000000  0.4540830000000  0.5126610000000 1.0
C      1  0.4272690000000  0.5654880000000  0.5112210000000 1.0
C      1  0.5410410000000  0.5876280000000  0.5144130000000 1.0
C      1  0.6002050000000  0.4875040000000  0.5084330000000 1.0
C      1  0.5183560000000  0.4046960000000  0.5138100000000 1.0
C      1  0.5256670000000  0.5515970000000  0.4427470000000 1.0
C      1  0.5600620000000  0.4912710000000  0.4339260000000 1.0
C      1  0.5133680000000  0.4408270000000  0.4394170000000 1.0
C      1  0.4484960000000  0.4716950000000  0.4363800000000 1.0
C      1  0.4593060000000  0.5390220000000  0.4405970000000 1.0
C      1  0.5075850000000  0.4763990000000  0.5849870000000 1.0
C      1  0.4784020000000  0.4863740000000  0.5882890000000 1.0
C      1  0.4789180000000  0.5183260000000  0.5882450000000 1.0
C      1  0.5101330000000  0.5273860000000  0.5889870000000 1.0
C      1  0.5272280000000  0.5006730000000  0.5861660000000 1.0
C      1  0.5022810000000  0.5350470000000  0.5484490000000 1.0
C      1  0.5262780000000  0.4984920000000  0.5434640000000 1.0
C      1  0.5212070000000  0.4710550000000  0.5390990000000 1.0
C      1  0.4786050000000  0.4781700000000  0.5471490000000 1.0
C      1  0.4702460000000  0.5085620000000  0.5426490000000 1.0
C      1  0.5946300000000  0.4936460000000  0.4770630000000 1.0
C      1  0.5277990000000  0.4114910000000  0.4831520000000 1.0
C      1  0.4220330000000  0.4508920000000  0.4804390000000 1.0
C      1  0.4287940000000  0.5558910000000  0.4804250000000 1.0
C      1  0.5298410000000  0.5849780000000  0.4838230000000 1.0
C      1  0.6009520000000  0.5119260000000  0.5233360000000 1.0
C      1  0.5387890000000  0.4014960000000  0.5348180000000 1.0
C      1  0.4185420000000  0.4312380000000  0.5306730000000 1.0
C      1  0.4085610000000  0.5512930000000  0.5289660000000 1.0
C      1  0.5269870000000  0.6033410000000  0.5342040000000 1.0
C      1  0.5022590000000  0.4954270000000  0.5030410000000 1.0
C      1  0.5002590000000  0.5058050000000  0.5544330000000 1.0
C      1  0.5011800000000  0.4988460000000  0.4291660000000 1.0
C      1  0.5009870000000  0.4981480000000  0.4722510000000 1.0
END
