TITL C-862507-1800-507 73.940715379421 125000 -570.226451240182 0 0 102 (C6) n - 1
REM
REM in /home/nfs/bkarasulu/CARBON/AIRSS/Generating-Clusters/TERSOFF/Higher-Symm/FIRE-HFTN
REM
REM
REM
REM
REM
REM ./C.cell (b20cbc046b6831c77cfcea5457e17084)
REM AIRSS Version 0.9.1 bugfix July 2018 build 013d7b7c2542+ Fri, 06 Jul 2018 19:26:36 +0100
REM compiler GCC version 9.2.1 20190827 (Red Hat 9.2.1-1)
REM options -cpp -mtune=generic -march=x86-64 -g -O0 -fpre-include=/usr/include/finclude/math-vector-fortran.h
REM seed -1777078106 -541654008 -445972472 330726362 183342605 1115749141 -514735526 1694290012 -1606477068 1764195382 -1169907412 -1680740320 -975408114 -913738246 873313484 -1541645109 487279204 745097031 -879127519 1800633126 -676499148 -553430990 305737407 1010651175 1342389794 233520977 509438686 -1478307417 -528757248 711794131 1522110664 547931977 -1167717135
REM
CELL 1.54180   50.00000   50.00000   50.00000   90.00000   90.00000   90.00000
LATT -1
SFAC C  
C      1  0.5148130000000  0.4730590000000  0.5346470000000 1.0
C      1  0.5307380000000  0.4993590000000  0.5346470000000 1.0
C      1  0.5159250000000  0.5262990000000  0.5346470000000 1.0
C      1  0.4851870000000  0.5269410000000  0.5346470000000 1.0
C      1  0.4692620000000  0.5006410000000  0.5346470000000 1.0
C      1  0.4840760000000  0.4737010000000  0.5346470000000 1.0
C      1  0.5627390000000  0.4683830000000  0.4439910000000 1.0
C      1  0.5587500000000  0.5385250000000  0.4439910000000 1.0
C      1  0.4960110000000  0.5701420000000  0.4439910000000 1.0
C      1  0.4372610000000  0.5316170000000  0.4439910000000 1.0
C      1  0.4412500000000  0.4614750000000  0.4439910000000 1.0
C      1  0.5039890000000  0.4298580000000  0.4439910000000 1.0
C      1  0.5320750000000  0.5179510000000  0.4341740000000 1.0
C      1  0.5004920000000  0.5367540000000  0.4341740000000 1.0
C      1  0.4684160000000  0.5188030000000  0.4341740000000 1.0
C      1  0.4679250000000  0.4820490000000  0.4341740000000 1.0
C      1  0.4995080000000  0.4632460000000  0.4341740000000 1.0
C      1  0.5315840000000  0.4811970000000  0.4341740000000 1.0
C      1  0.5321440000000  0.4729670000000  0.4039540000000 1.0
C      1  0.5394830000000  0.5143210000000  0.4039540000000 1.0
C      1  0.5073390000000  0.5413540000000  0.4039540000000 1.0
C      1  0.4678560000000  0.5270330000000  0.4039540000000 1.0
C      1  0.4605170000000  0.4856790000000  0.4039540000000 1.0
C      1  0.4926610000000  0.4586460000000  0.4039540000000 1.0
C      1  0.5178320000000  0.5913110000000  0.5053130000000 1.0
C      1  0.4298380000000  0.5610990000000  0.5053140000000 1.0
C      1  0.4120060000000  0.4697880000000  0.5053140000000 1.0
C      1  0.4821680000000  0.4086890000000  0.5053130000000 1.0
C      1  0.5701620000000  0.4389010000000  0.5053130000000 1.0
C      1  0.5879940000000  0.5302120000000  0.5053130000000 1.0
C      1  0.5347710000000  0.4310790000000  0.4814940000000 1.0
C      1  0.5770730000000  0.4956520000000  0.4814940000000 1.0
C      1  0.5423020000000  0.5645730000000  0.4814940000000 1.0
C      1  0.4652290000000  0.5689210000000  0.4814940000000 1.0
C      1  0.4229270000000  0.5043480000000  0.4814940000000 1.0
C      1  0.4576980000000  0.4354270000000  0.4814940000000 1.0
C      1  0.5683790000000  0.5258050000000  0.5539330000000 1.0
C      1  0.5118420000000  0.5721200000000  0.5539330000000 1.0
C      1  0.4434630000000  0.5463150000000  0.5539330000000 1.0
C      1  0.4316210000000  0.4741950000000  0.5539330000000 1.0
C      1  0.4881580000000  0.4278800000000  0.5539330000000 1.0
C      1  0.5565370000000  0.4536850000000  0.5539330000000 1.0
C      1  0.5855320000000  0.4865500000000  0.4549780000000 1.0
C      1  0.5544140000000  0.5673480000000  0.4549780000000 1.0
C      1  0.4688820000000  0.5807980000000  0.4549780000000 1.0
C      1  0.4144680000000  0.5134500000000  0.4549780000000 1.0
C      1  0.4455860000000  0.4326520000000  0.4549780000000 1.0
C      1  0.5311180000000  0.4192020000000  0.4549780000000 1.0
C      1  0.5294350000000  0.4463820000000  0.5459450000000 1.0
C      1  0.5611520000000  0.4986820000000  0.5459450000000 1.0
C      1  0.5317170000000  0.5523000000000  0.5459450000000 1.0
C      1  0.4705650000000  0.5536180000000  0.5459450000000 1.0
C      1  0.4388480000000  0.5013180000000  0.5459450000000 1.0
C      1  0.4682830000000  0.4477000000000  0.5459450000000 1.0
C      1  0.5046270000000  0.5824350000000  0.4768010000000 1.0
C      1  0.4309230000000  0.5452250000000  0.4768010000000 1.0
C      1  0.4262960000000  0.4627900000000  0.4768010000000 1.0
C      1  0.4953730000000  0.4175650000000  0.4768010000000 1.0
C      1  0.5690770000000  0.4547750000000  0.4768010000000 1.0
C      1  0.5737040000000  0.5372100000000  0.4768010000000 1.0
C      1  0.4765480000000  0.4810100000000  0.5823480000000 1.0
C      1  0.5047200000000  0.4701950000000  0.5823480000000 1.0
C      1  0.5281720000000  0.4891850000000  0.5823480000000 1.0
C      1  0.5234520000000  0.5189900000000  0.5823480000000 1.0
C      1  0.4952800000000  0.5298050000000  0.5823480000000 1.0
C      1  0.4718280000000  0.5108150000000  0.5823480000000 1.0
C      1  0.4460660000000  0.4373390000000  0.5289320000000 1.0
C      1  0.5272980000000  0.4219610000000  0.5289320000000 1.0
C      1  0.5812330000000  0.4846220000000  0.5289320000000 1.0
C      1  0.5539340000000  0.5626610000000  0.5289320000000 1.0
C      1  0.4727020000000  0.5780390000000  0.5289320000000 1.0
C      1  0.4187670000000  0.5153780000000  0.5289320000000 1.0
C      1  0.5441540000000  0.5368520000000  0.5690880000000 1.0
C      1  0.4901620000000  0.5566640000000  0.5690880000000 1.0
C      1  0.4460090000000  0.5198120000000  0.5690890000000 1.0
C      1  0.4558460000000  0.4631480000000  0.5690890000000 1.0
C      1  0.5098380000000  0.4433360000000  0.5690880000000 1.0
C      1  0.5539910000000  0.4801880000000  0.5690880000000 1.0
C      1  0.4922220000000  0.4703530000000  0.4663600000000 1.0
C      1  0.5217860000000  0.4784400000000  0.4663600000000 1.0
C      1  0.5295640000000  0.5080870000000  0.4663600000000 1.0
C      1  0.5077780000000  0.5296470000000  0.4663600000000 1.0
C      1  0.4782140000000  0.5215600000000  0.4663600000000 1.0
C      1  0.4704360000000  0.4919130000000  0.4663600000000 1.0
C      1  0.4542690000000  0.5813330000000  0.5060870000000 1.0
C      1  0.4066980000000  0.5010620000000  0.5060870000000 1.0
C      1  0.4524290000000  0.4197290000000  0.5060870000000 1.0
C      1  0.5457310000000  0.4186670000000  0.5060870000000 1.0
C      1  0.5933020000000  0.4989380000000  0.5060870000000 1.0
C      1  0.5475710000000  0.5802710000000  0.5060870000000 1.0
C      1  0.5535110000000  0.5133480000000  0.4818380000000 1.0
C      1  0.5151960000000  0.5530160000000  0.4818380000000 1.0
C      1  0.4616840000000  0.5396680000000  0.4818380000000 1.0
C      1  0.4464890000000  0.4866520000000  0.4818380000000 1.0
C      1  0.4848040000000  0.4469840000000  0.4818380000000 1.0
C      1  0.5383160000000  0.4603320000000  0.4818380000000 1.0
C      1  0.5772160000000  0.5433490000000  0.5301170000000 1.0
C      1  0.5010670000000  0.5885460000000  0.5301170000000 1.0
C      1  0.4238510000000  0.5451970000000  0.5301170000000 1.0
C      1  0.4227840000000  0.4566510000000  0.5301170000000 1.0
C      1  0.4989330000000  0.4114540000000  0.5301170000000 1.0
C      1  0.5761490000000  0.4548030000000  0.5301170000000 1.0
END
