TITL C-862133-5440-528 2.37700692651019e-05 125000 -264.733704073397 0 0 48 (C4) n - 1
REM
REM in /home/nfs/bkarasulu/CARBON/AIRSS/Generating-Clusters/TERSOFF/Higher-Symm/FIRE-HFTN
REM
REM
REM
REM
REM
REM ./C.cell (b20cbc046b6831c77cfcea5457e17084)
REM AIRSS Version 0.9.1 bugfix July 2018 build 013d7b7c2542+ Fri, 06 Jul 2018 19:26:36 +0100
REM compiler GCC version 9.2.1 20190827 (Red Hat 9.2.1-1)
REM options -cpp -mtune=generic -march=x86-64 -g -O0 -fpre-include=/usr/include/finclude/math-vector-fortran.h
REM seed -520540236 -557585482 1006708661 -3145880 1105525032 1322766555 -1438389138 170024287 2083400050 1678167215 698844566 533129927 1068347712 689114722 -219049844 661253327 1353202919 801469110 1444120768 398698691 1497513581 551569486 730997952 -1708643121 -1983918226 1941998355 1072841487 -359214114 -1426770192 631801874 -541060409 -561465735 -1190289228
REM
CELL 1.54180   50.00000   50.00000   50.00000   90.00000   90.00000   90.00000
LATT -1
SFAC C  
C      1  0.5511530000000  0.5325240000000  0.4513040000000 1.0
C      1  0.4675940000000  0.5513420000000  0.4513670000000 1.0
C      1  0.4488470000000  0.4674760000000  0.4513040000000 1.0
C      1  0.5324060000000  0.4486580000000  0.4513670000000 1.0
C      1  0.5202850000000  0.4896680000000  0.4310020000000 1.0
C      1  0.5095220000000  0.5187150000000  0.4314950000000 1.0
C      1  0.4797150000000  0.5103320000000  0.4310020000000 1.0
C      1  0.4904780000000  0.4812850000000  0.4314950000000 1.0
C      1  0.5148080000000  0.4644450000000  0.4956710000000 1.0
C      1  0.5356080000000  0.5147370000000  0.4957270000000 1.0
C      1  0.4851920000000  0.5355550000000  0.4956710000000 1.0
C      1  0.4643920000000  0.4852630000000  0.4957270000000 1.0
C      1  0.4321860000000  0.4741700000000  0.5330600000000 1.0
C      1  0.5254070000000  0.4320400000000  0.5329900000000 1.0
C      1  0.5678140000000  0.5258300000000  0.5330600000000 1.0
C      1  0.4745930000000  0.5679600000000  0.5329900000000 1.0
C      1  0.4955280000000  0.5569840000000  0.4416620000000 1.0
C      1  0.4420880000000  0.4953360000000  0.4420800000000 1.0
C      1  0.5044720000000  0.4430160000000  0.4416620000000 1.0
C      1  0.5579120000000  0.5046640000000  0.4420800000000 1.0
C      1  0.5161990000000  0.4583850000000  0.5246400000000 1.0
C      1  0.5415850000000  0.5163200000000  0.5246850000000 1.0
C      1  0.4838010000000  0.5416150000000  0.5246400000000 1.0
C      1  0.4584150000000  0.4836800000000  0.5246850000000 1.0
C      1  0.5299210000000  0.4431970000000  0.4801750000000 1.0
C      1  0.5564860000000  0.5303720000000  0.4801920000000 1.0
C      1  0.4700790000000  0.5568030000000  0.4801750000000 1.0
C      1  0.4435140000000  0.4696280000000  0.4801920000000 1.0
C      1  0.4809820000000  0.4609460000000  0.4518130000000 1.0
C      1  0.5402580000000  0.4806500000000  0.4520690000000 1.0
C      1  0.5190180000000  0.5390540000000  0.4518130000000 1.0
C      1  0.4597420000000  0.5193500000000  0.4520690000000 1.0
C      1  0.4874250000000  0.5320360000000  0.5748670000000 1.0
C      1  0.4679710000000  0.4874280000000  0.5748770000000 1.0
C      1  0.5125750000000  0.4679640000000  0.5748670000000 1.0
C      1  0.5320290000000  0.5125720000000  0.5748770000000 1.0
C      1  0.4778800000000  0.4913140000000  0.5451710000000 1.0
C      1  0.5086690000000  0.4778760000000  0.5451530000000 1.0
C      1  0.5221200000000  0.5086860000000  0.5451710000000 1.0
C      1  0.4913310000000  0.5221240000000  0.5451530000000 1.0
C      1  0.5130610000000  0.5318890000000  0.4827820000000 1.0
C      1  0.4675520000000  0.5132600000000  0.4829900000000 1.0
C      1  0.4869390000000  0.4681110000000  0.4827820000000 1.0
C      1  0.5324480000000  0.4867400000000  0.4829900000000 1.0
C      1  0.4858240000000  0.4674970000000  0.5871180000000 1.0
C      1  0.5325060000000  0.4858160000000  0.5871100000000 1.0
C      1  0.5141760000000  0.5325030000000  0.5871180000000 1.0
C      1  0.4674940000000  0.5141840000000  0.5871100000000 1.0
END
