TITL C-862503-991-464 22.9584428079958 125000 -34.8275086143335 0 0 10 (C1) n - 1
REM
REM in /home/nfs/bkarasulu/CARBON/AIRSS/Generating-Clusters/TERSOFF/Higher-Symm/FIRE-HFTN
REM
REM
REM
REM
REM
REM ./C.cell (b20cbc046b6831c77cfcea5457e17084)
REM AIRSS Version 0.9.1 bugfix July 2018 build 013d7b7c2542+ Fri, 06 Jul 2018 19:26:36 +0100
REM compiler GCC version 9.2.1 20190827 (Red Hat 9.2.1-1)
REM options -cpp -mtune=generic -march=x86-64 -g -O0 -fpre-include=/usr/include/finclude/math-vector-fortran.h
REM seed 717554063 485397871 -815826357 647184594 -715866149 624440575 204623198 619200415 -1732895119 -1401885164 -1846879175 1542291084 2099054975 1213099289 -73113602 -1349359065 134412998 -1350270570 33214765 244798034 -2129464047 -463668620 586830549 1306393831 -71915713 -184000994 -919530176 -566667935 -1268416889 -995847376 -1844894116 381426103 536927097
REM
CELL 1.54180   50.00000   50.00000   50.00000   90.00000   90.00000   90.00000
LATT -1
SFAC C  
C      1  0.5254520000000  0.5339880000000  0.5142660000000 1.0
C      1  0.4788240000000  0.5459810000000  0.5222160000000 1.0
C      1  0.4986320000000  0.5529210000000  0.4781630000000 1.0
C      1  0.4717810000000  0.4776740000000  0.5173720000000 1.0
C      1  0.5157140000000  0.4791730000000  0.4774270000000 1.0
C      1  0.5213000000000  0.4857590000000  0.5279760000000 1.0
C      1  0.4896950000000  0.5076520000000  0.4940390000000 1.0
C      1  0.4978000000000  0.4491960000000  0.5007590000000 1.0
C      1  0.5016400000000  0.4805250000000  0.5061590000000 1.0
C      1  0.4981510000000  0.5351360000000  0.5021710000000 1.0
END
