TITL C-862507-1800-124 -0.0450813651755052 125000 -12.3085327540334 0 0 4 (D(inf)h) n - 1
REM
REM in /home/nfs/bkarasulu/CARBON/AIRSS/Generating-Clusters/TERSOFF/Higher-Symm/FIRE-HFTN
REM
REM
REM
REM
REM
REM ./C.cell (b20cbc046b6831c77cfcea5457e17084)
REM AIRSS Version 0.9.1 bugfix July 2018 build 013d7b7c2542+ Fri, 06 Jul 2018 19:26:36 +0100
REM compiler GCC version 9.2.1 20190827 (Red Hat 9.2.1-1)
REM options -cpp -mtune=generic -march=x86-64 -g -O0 -fpre-include=/usr/include/finclude/math-vector-fortran.h
REM seed 2129809066 996848007 188852344 -1191811076 1877043535 -513633597 -897662705 -1223494093 932879537 -1125946435 1300450552 1387176105 367560775 2139512037 -1970404315 -1072878579 601742619 1126184573 163067687 970124886 636634349 1060916446 1684757399 -158360507 -440403333 1403005484 -450749947 762775334 -361575647 443957017 -885352830 -1755183347 1010202369
REM
CELL 1.54180   50.00000   50.00000   50.00000   90.00000   90.00000   90.00000
LATT -1
SFAC C  
C      1  0.4999570000000  0.4985440000000  0.4845060000000 1.0
C      1  0.4999570000000  0.4985440000000  0.4545730000000 1.0
C      1  0.4999570000000  0.4985440000000  0.5454270000000 1.0
C      1  0.4999570000000  0.4985440000000  0.5154940000000 1.0
END
