TITL C-862502-1143-882 -0.0125333939032859 125000 -569.167058905575 0 0 103 (C1) n - 1
REM
REM in /home/nfs/bkarasulu/CARBON/AIRSS/Generating-Clusters/TERSOFF/Higher-Symm/FIRE-HFTN
REM
REM
REM
REM
REM
REM ./C.cell (b20cbc046b6831c77cfcea5457e17084)
REM AIRSS Version 0.9.1 bugfix July 2018 build 013d7b7c2542+ Fri, 06 Jul 2018 19:26:36 +0100
REM compiler GCC version 9.2.1 20190827 (Red Hat 9.2.1-1)
REM options -cpp -mtune=generic -march=x86-64 -g -O0 -fpre-include=/usr/include/finclude/math-vector-fortran.h
REM seed 1184391276 1013871207 -2103889973 -1944633768 -234724643 958273211 -629924300 693611587 681198428 -616027873 -1693428381 1995352857 -1999195645 1138907899 -1994013852 289030171 575202222 -1450804893 -1566640225 698232746 575603942 -202618570 -608420718 -1818374754 -179536799 -176749427 -853959896 1492685064 1464879463 863098417 1262212878 1706480420 1416735082
REM
CELL 1.54180   50.00000   50.00000   50.00000   90.00000   90.00000   90.00000
LATT -1
SFAC C  
C      1  0.4809200000000  0.5339270000000  0.4790000000000 1.0
C      1  0.5380520000000  0.4407590000000  0.4621020000000 1.0
C      1  0.4706480000000  0.4339720000000  0.5548750000000 1.0
C      1  0.5642130000000  0.5404770000000  0.4398350000000 1.0
C      1  0.4567020000000  0.4302410000000  0.4817540000000 1.0
C      1  0.5766520000000  0.4982340000000  0.5101310000000 1.0
C      1  0.4943730000000  0.4697190000000  0.5821910000000 1.0
C      1  0.5476110000000  0.4215400000000  0.5086100000000 1.0
C      1  0.5302870000000  0.4479010000000  0.4343080000000 1.0
C      1  0.4402490000000  0.4429090000000  0.5045280000000 1.0
C      1  0.5236260000000  0.4515710000000  0.5420700000000 1.0
C      1  0.4778220000000  0.5559660000000  0.5603400000000 1.0
C      1  0.4897270000000  0.4277640000000  0.4788000000000 1.0
C      1  0.4734640000000  0.4489520000000  0.5800740000000 1.0
C      1  0.5352070000000  0.5027700000000  0.5050520000000 1.0
C      1  0.4245250000000  0.5272750000000  0.5035940000000 1.0
C      1  0.4668000000000  0.4844870000000  0.4892330000000 1.0
C      1  0.4750680000000  0.5879170000000  0.5054870000000 1.0
C      1  0.4941600000000  0.4460430000000  0.4556230000000 1.0
C      1  0.4903710000000  0.5282070000000  0.5079800000000 1.0
C      1  0.4979020000000  0.5157540000000  0.4643500000000 1.0
C      1  0.5609790000000  0.5504980000000  0.4715600000000 1.0
C      1  0.4739200000000  0.5238700000000  0.5329770000000 1.0
C      1  0.5800180000000  0.5028260000000  0.4788660000000 1.0
C      1  0.4239580000000  0.4671250000000  0.4959460000000 1.0
C      1  0.4652150000000  0.4124940000000  0.5192090000000 1.0
C      1  0.5021810000000  0.5756320000000  0.5635430000000 1.0
C      1  0.5448100000000  0.4736470000000  0.5708190000000 1.0
C      1  0.5483040000000  0.5352050000000  0.5694010000000 1.0
C      1  0.5755200000000  0.4745410000000  0.4595730000000 1.0
C      1  0.4557780000000  0.4911630000000  0.5139090000000 1.0
C      1  0.4203410000000  0.5229440000000  0.4713860000000 1.0
C      1  0.4532330000000  0.5592170000000  0.5422810000000 1.0
C      1  0.4432630000000  0.4340670000000  0.5347020000000 1.0
C      1  0.5551690000000  0.5559890000000  0.5291140000000 1.0
C      1  0.5234290000000  0.4827140000000  0.5498600000000 1.0
C      1  0.5669850000000  0.4451060000000  0.5005330000000 1.0
C      1  0.4895490000000  0.5451040000000  0.4273480000000 1.0
C      1  0.5176420000000  0.5586070000000  0.4228210000000 1.0
C      1  0.5235750000000  0.5532260000000  0.4526730000000 1.0
C      1  0.5268910000000  0.5232500000000  0.4603270000000 1.0
C      1  0.5349460000000  0.5613890000000  0.5584080000000 1.0
C      1  0.4336960000000  0.5360190000000  0.5373450000000 1.0
C      1  0.4536450000000  0.5715740000000  0.5160280000000 1.0
C      1  0.4873050000000  0.5235280000000  0.5648010000000 1.0
C      1  0.4711260000000  0.4795520000000  0.5384360000000 1.0
C      1  0.4455630000000  0.4452590000000  0.4553890000000 1.0
C      1  0.5176430000000  0.5827220000000  0.4819680000000 1.0
C      1  0.4712610000000  0.4473300000000  0.4372900000000 1.0
C      1  0.5069620000000  0.4461530000000  0.5167940000000 1.0
C      1  0.5316850000000  0.4762810000000  0.4223740000000 1.0
C      1  0.5049670000000  0.5207120000000  0.5909140000000 1.0
C      1  0.5079570000000  0.5495740000000  0.5178360000000 1.0
C      1  0.4442720000000  0.4660820000000  0.5490490000000 1.0
C      1  0.4591230000000  0.4956100000000  0.4638620000000 1.0
C      1  0.5023620000000  0.4736620000000  0.4611560000000 1.0
C      1  0.5065060000000  0.5027040000000  0.5033110000000 1.0
C      1  0.4279660000000  0.5066530000000  0.4264880000000 1.0
C      1  0.4781560000000  0.5558080000000  0.4556820000000 1.0
C      1  0.4308920000000  0.4973480000000  0.4551750000000 1.0
C      1  0.5052210000000  0.4086030000000  0.5499520000000 1.0
C      1  0.4810130000000  0.4522430000000  0.5320990000000 1.0
C      1  0.4943680000000  0.4813870000000  0.4890870000000 1.0
C      1  0.5711660000000  0.4697790000000  0.5217100000000 1.0
C      1  0.5832800000000  0.5347290000000  0.4904900000000 1.0
C      1  0.5658050000000  0.4496850000000  0.4713560000000 1.0
C      1  0.4247570000000  0.5469170000000  0.4531730000000 1.0
C      1  0.5782150000000  0.5307530000000  0.5259540000000 1.0
C      1  0.5394600000000  0.5012680000000  0.5340380000000 1.0
C      1  0.5410060000000  0.5369180000000  0.4181610000000 1.0
C      1  0.4763060000000  0.4628620000000  0.4126040000000 1.0
C      1  0.5135250000000  0.5394130000000  0.5457780000000 1.0
C      1  0.5419250000000  0.5283980000000  0.4884600000000 1.0
C      1  0.5467390000000  0.4338190000000  0.5355480000000 1.0
C      1  0.4261030000000  0.5361570000000  0.4253620000000 1.0
C      1  0.5158740000000  0.4110740000000  0.4958920000000 1.0
C      1  0.5430290000000  0.4784670000000  0.4917670000000 1.0
C      1  0.5475450000000  0.5780270000000  0.4766380000000 1.0
C      1  0.5243600000000  0.5105040000000  0.4277110000000 1.0
C      1  0.5353560000000  0.5487770000000  0.5086190000000 1.0
C      1  0.5032170000000  0.5778280000000  0.5081740000000 1.0
C      1  0.4572990000000  0.5143670000000  0.5742460000000 1.0
C      1  0.4245980000000  0.4883920000000  0.5445990000000 1.0
C      1  0.4918650000000  0.5132270000000  0.4204180000000 1.0
C      1  0.4955010000000  0.5832380000000  0.4612790000000 1.0
C      1  0.4464450000000  0.5655320000000  0.4651760000000 1.0
C      1  0.5260120000000  0.4539330000000  0.4896270000000 1.0
C      1  0.4263840000000  0.4689430000000  0.4654660000000 1.0
C      1  0.5690120000000  0.4650750000000  0.5526020000000 1.0
C      1  0.4396150000000  0.5568110000000  0.4953730000000 1.0
C      1  0.4929570000000  0.4914000000000  0.5582860000000 1.0
C      1  0.4254390000000  0.4936240000000  0.5140860000000 1.0
C      1  0.5217440000000  0.4565330000000  0.5837200000000 1.0
C      1  0.5590430000000  0.4875120000000  0.4348980000000 1.0
C      1  0.5191150000000  0.4298990000000  0.5669280000000 1.0
C      1  0.4339280000000  0.5141520000000  0.5565190000000 1.0
C      1  0.5336920000000  0.5227960000000  0.5910630000000 1.0
C      1  0.4682810000000  0.5915010000000  0.4754150000000 1.0
C      1  0.4986740000000  0.4827460000000  0.4095130000000 1.0
C      1  0.5586030000000  0.5182530000000  0.5471610000000 1.0
C      1  0.4952930000000  0.4140670000000  0.5220210000000 1.0
C      1  0.5586830000000  0.5124700000000  0.4534040000000 1.0
C      1  0.4843750000000  0.4963500000000  0.4465360000000 1.0
END
