TITL C-862501-1041-948 -0.000141349171821488 125000 -481.63425276354 0 0 90 (C2) n - 1
REM
REM in /home/nfs/bkarasulu/CARBON/AIRSS/Generating-Clusters/TERSOFF/Higher-Symm/FIRE-HFTN
REM
REM
REM
REM
REM
REM ./C.cell (b20cbc046b6831c77cfcea5457e17084)
REM AIRSS Version 0.9.1 bugfix July 2018 build 013d7b7c2542+ Fri, 06 Jul 2018 19:26:36 +0100
REM compiler GCC version 9.2.1 20190827 (Red Hat 9.2.1-1)
REM options -cpp -mtune=generic -march=x86-64 -g -O0 -fpre-include=/usr/include/finclude/math-vector-fortran.h
REM seed -1410041325 -768549209 -1084978391 43895532 748847325 -1066320656 -1594870558 -2022352191 1724152102 -342108539 -774313581 -1374752106 -1936787672 715761098 -1154796263 1115812060 337866804 -107372579 1956920287 -1681259973 -1867251409 1480348053 1789743297 -1879655619 294948189 -921090343 1298034612 561586146 -709244460 -2014178843 -1335054614 2012080011 -1721801851
REM
CELL 1.54180   50.00000   50.00000   50.00000   90.00000   90.00000   90.00000
LATT -1
SFAC C  
C      1  0.5511040000000  0.5432950000000  0.5597110000000 1.0
C      1  0.5511040000000  0.4567050000000  0.4402890000000 1.0
C      1  0.5547390000000  0.5444720000000  0.4411350000000 1.0
C      1  0.5547390000000  0.4555280000000  0.5588650000000 1.0
C      1  0.4420800000000  0.5696230000000  0.4836850000000 1.0
C      1  0.4420800000000  0.4303770000000  0.5163150000000 1.0
C      1  0.4420360000000  0.5697610000000  0.5161610000000 1.0
C      1  0.4420360000000  0.4302390000000  0.4838390000000 1.0
C      1  0.5648580000000  0.5189320000000  0.5369460000000 1.0
C      1  0.5648580000000  0.4810680000000  0.4630540000000 1.0
C      1  0.5660640000000  0.5180150000000  0.4628340000000 1.0
C      1  0.5660640000000  0.4819850000000  0.5371660000000 1.0
C      1  0.5220340000000  0.4810250000000  0.5642800000000 1.0
C      1  0.5220340000000  0.5189750000000  0.4357200000000 1.0
C      1  0.5241960000000  0.4887460000000  0.4396040000000 1.0
C      1  0.5241960000000  0.5112540000000  0.5603960000000 1.0
C      1  0.4735200000000  0.4221440000000  0.4824350000000 1.0
C      1  0.4735200000000  0.5778560000000  0.5175650000000 1.0
C      1  0.4735450000000  0.4222460000000  0.5184860000000 1.0
C      1  0.4735450000000  0.5777540000000  0.4815140000000 1.0
C      1  0.5034510000000  0.4064300000000  0.5165930000000 1.0
C      1  0.5034510000000  0.5935700000000  0.4834070000000 1.0
C      1  0.5034780000000  0.4063030000000  0.4840790000000 1.0
C      1  0.5034780000000  0.5936970000000  0.5159210000000 1.0
C      1  0.5452860000000  0.5639480000000  0.5157120000000 1.0
C      1  0.5452860000000  0.4360520000000  0.4842890000000 1.0
C      1  0.5452120000000  0.5638140000000  0.4837220000000 1.0
C      1  0.5452120000000  0.4361860000000  0.5162780000000 1.0
C      1  0.4343140000000  0.4564340000000  0.5294650000000 1.0
C      1  0.4343140000000  0.5435660000000  0.4705350000000 1.0
C      1  0.4347020000000  0.4563080000000  0.4703880000000 1.0
C      1  0.4347020000000  0.5436920000000  0.5296120000000 1.0
C      1  0.5154570000000  0.5475950000000  0.4845500000000 1.0
C      1  0.5154570000000  0.4524050000000  0.5154500000000 1.0
C      1  0.5151520000000  0.5472590000000  0.5156820000000 1.0
C      1  0.5151520000000  0.4527410000000  0.4843180000000 1.0
C      1  0.5072250000000  0.5154750000000  0.5856910000000 1.0
C      1  0.5072250000000  0.4845250000000  0.4143090000000 1.0
C      1  0.5045980000000  0.5156500000000  0.4083290000000 1.0
C      1  0.5045980000000  0.4843500000000  0.5916710000000 1.0
C      1  0.4953640000000  0.5541650000000  0.5590900000000 1.0
C      1  0.4953640000000  0.4458350000000  0.4409100000000 1.0
C      1  0.4962090000000  0.5530390000000  0.4409030000000 1.0
C      1  0.4962090000000  0.4469610000000  0.5590970000000 1.0
C      1  0.5277890000000  0.4163800000000  0.4675670000000 1.0
C      1  0.5277890000000  0.5836200000000  0.5324330000000 1.0
C      1  0.5279100000000  0.4163360000000  0.5329890000000 1.0
C      1  0.5279100000000  0.5836640000000  0.4670110000000 1.0
C      1  0.5144220000000  0.4833150000000  0.4697860000000 1.0
C      1  0.5144220000000  0.5166850000000  0.5302140000000 1.0
C      1  0.5143390000000  0.4816130000000  0.5321350000000 1.0
C      1  0.5143390000000  0.5183870000000  0.4678650000000 1.0
C      1  0.5417890000000  0.5150390000000  0.4830570000000 1.0
C      1  0.5417890000000  0.4849610000000  0.5169430000000 1.0
C      1  0.5419240000000  0.5151030000000  0.5145910000000 1.0
C      1  0.5419240000000  0.4848970000000  0.4854090000000 1.0
C      1  0.4368200000000  0.5356300000000  0.4416040000000 1.0
C      1  0.4368190000000  0.4643700000000  0.5583960000000 1.0
C      1  0.4374380000000  0.5362200000000  0.5586170000000 1.0
C      1  0.4374380000000  0.4637800000000  0.4413830000000 1.0
C      1  0.5718490000000  0.5442810000000  0.4830390000000 1.0
C      1  0.5718490000000  0.4557190000000  0.5169610000000 1.0
C      1  0.5717570000000  0.5444780000000  0.5170280000000 1.0
C      1  0.5717570000000  0.4555220000000  0.4829720000000 1.0
C      1  0.4868130000000  0.5534170000000  0.4694920000000 1.0
C      1  0.4868130000000  0.4465830000000  0.5305080000000 1.0
C      1  0.4863040000000  0.5535690000000  0.5303880000000 1.0
C      1  0.4863040000000  0.4464310000000  0.4696120000000 1.0
C      1  0.4421280000000  0.4790210000000  0.5141560000000 1.0
C      1  0.4421280000000  0.5209790000000  0.4858440000000 1.0
C      1  0.4422420000000  0.4790070000000  0.4856830000000 1.0
C      1  0.4422420000000  0.5209930000000  0.5143170000000 1.0
C      1  0.4842810000000  0.4681290000000  0.5773620000000 1.0
C      1  0.4842810000000  0.5318710000000  0.4226380000000 1.0
C      1  0.4853720000000  0.4680500000000  0.4233240000000 1.0
C      1  0.4853720000000  0.5319500000000  0.5766760000000 1.0
C      1  0.4592100000000  0.5180390000000  0.5697810000000 1.0
C      1  0.4592100000000  0.4819610000000  0.4302190000000 1.0
C      1  0.4588120000000  0.5177400000000  0.4304460000000 1.0
C      1  0.4588120000000  0.4822600000000  0.5695540000000 1.0
C      1  0.4830760000000  0.4779080000000  0.5234220000000 1.0
C      1  0.4830760000000  0.5220920000000  0.4765780000000 1.0
C      1  0.4829910000000  0.4781950000000  0.4755440000000 1.0
C      1  0.4829910000000  0.5218050000000  0.5244560000000 1.0
C      1  0.5253950000000  0.4371120000000  0.4440400000000 1.0
C      1  0.5253950000000  0.5628880000000  0.5559600000000 1.0
C      1  0.5266980000000  0.4374060000000  0.5567960000000 1.0
C      1  0.5266980000000  0.5625940000000  0.4432040000000 1.0
C      1  0.4601870000000  0.4998720000000  0.5282740000000 1.0
C      1  0.4601870000000  0.5001280000000  0.4717260000000 1.0
END
