TITL C-862500-986-1025 0.289703665658434 125000 -626.568140221955 0 0 113 (C1) n - 1
REM
REM in /home/nfs/bkarasulu/CARBON/AIRSS/Generating-Clusters/TERSOFF/Higher-Symm/FIRE-HFTN
REM
REM
REM
REM
REM
REM ./C.cell (b20cbc046b6831c77cfcea5457e17084)
REM AIRSS Version 0.9.1 bugfix July 2018 build 013d7b7c2542+ Fri, 06 Jul 2018 19:26:36 +0100
REM compiler GCC version 9.2.1 20190827 (Red Hat 9.2.1-1)
REM options -cpp -mtune=generic -march=x86-64 -g -O0 -fpre-include=/usr/include/finclude/math-vector-fortran.h
REM seed 436836541 -937650817 -162512781 -1345388726 -811224942 -1471577381 2018379123 -773601890 -273224521 12566369 807685940 203294823 438502186 -1090851587 -678646364 1923663175 -1643128869 -1964624468 1437825427 -781362896 1676272579 1024709985 -238549059 2089681338 -276314430 -2050585941 1726515387 -357290308 -1932383585 110608942 340613543 614619810 -1566973252
REM
CELL 1.54180   50.00000   50.00000   50.00000   90.00000   90.00000   90.00000
LATT -1
SFAC C  
C      1  0.4484390000000  0.4963420000000  0.5130330000000 1.0
C      1  0.5522430000000  0.5028440000000  0.4848050000000 1.0
C      1  0.4594060000000  0.4189800000000  0.5313540000000 1.0
C      1  0.5405900000000  0.5817050000000  0.4688910000000 1.0
C      1  0.5809220000000  0.4771360000000  0.5498840000000 1.0
C      1  0.4173200000000  0.5199760000000  0.4484820000000 1.0
C      1  0.4506330000000  0.4163630000000  0.4996440000000 1.0
C      1  0.5492240000000  0.5843210000000  0.5004610000000 1.0
C      1  0.5319500000000  0.4736440000000  0.4610980000000 1.0
C      1  0.4664040000000  0.5243500000000  0.5394460000000 1.0
C      1  0.5573310000000  0.4590940000000  0.4540760000000 1.0
C      1  0.4412770000000  0.5383730000000  0.5469000000000 1.0
C      1  0.5003940000000  0.4812930000000  0.5872860000000 1.0
C      1  0.4918460000000  0.5159230000000  0.4086590000000 1.0
C      1  0.5472620000000  0.4038680000000  0.5622540000000 1.0
C      1  0.4472990000000  0.5975680000000  0.4429790000000 1.0
C      1  0.5480200000000  0.5101140000000  0.5676640000000 1.0
C      1  0.4536530000000  0.4901190000000  0.4312400000000 1.0
C      1  0.5398850000000  0.4777680000000  0.5232960000000 1.0
C      1  0.4595550000000  0.5234360000000  0.4759760000000 1.0
C      1  0.5404200000000  0.5362240000000  0.5073340000000 1.0
C      1  0.4666190000000  0.4674060000000  0.4886590000000 1.0
C      1  0.4473620000000  0.4561300000000  0.4700270000000 1.0
C      1  0.5562150000000  0.5448380000000  0.5307380000000 1.0
C      1  0.5368270000000  0.4497770000000  0.5095550000000 1.0
C      1  0.4631090000000  0.5510390000000  0.4906790000000 1.0
C      1  0.5204700000000  0.4061080000000  0.4665570000000 1.0
C      1  0.4793460000000  0.5919040000000  0.5362660000000 1.0
C      1  0.4205520000000  0.5866480000000  0.4412140000000 1.0
C      1  0.5751120000000  0.4113990000000  0.5645930000000 1.0
C      1  0.5297850000000  0.4952350000000  0.3950900000000 1.0
C      1  0.4666280000000  0.5119740000000  0.6055790000000 1.0
C      1  0.5003840000000  0.5733200000000  0.5272230000000 1.0
C      1  0.4998710000000  0.4256880000000  0.4742610000000 1.0
C      1  0.5282110000000  0.4858220000000  0.4900700000000 1.0
C      1  0.4721820000000  0.5144140000000  0.5087840000000 1.0
C      1  0.5753550000000  0.5047670000000  0.4436410000000 1.0
C      1  0.4243850000000  0.4928700000000  0.5603660000000 1.0
C      1  0.5282650000000  0.4622930000000  0.5486950000000 1.0
C      1  0.4703500000000  0.5393370000000  0.4510230000000 1.0
C      1  0.4755060000000  0.5037640000000  0.5595510000000 1.0
C      1  0.5254300000000  0.4947470000000  0.4410990000000 1.0
C      1  0.5679650000000  0.4937960000000  0.5272910000000 1.0
C      1  0.4324340000000  0.5065640000000  0.4716490000000 1.0
C      1  0.4841120000000  0.5651840000000  0.4563270000000 1.0
C      1  0.5134310000000  0.4370810000000  0.5439130000000 1.0
C      1  0.5596190000000  0.4295190000000  0.4542250000000 1.0
C      1  0.4394920000000  0.5679800000000  0.5479180000000 1.0
C      1  0.4359100000000  0.5797050000000  0.5200670000000 1.0
C      1  0.5638000000000  0.4189930000000  0.4824860000000 1.0
C      1  0.5834920000000  0.4667420000000  0.4920570000000 1.0
C      1  0.4165600000000  0.5326210000000  0.5077580000000 1.0
C      1  0.4693800000000  0.4140730000000  0.4764110000000 1.0
C      1  0.5309280000000  0.5852690000000  0.5245780000000 1.0
C      1  0.4530190000000  0.4812110000000  0.5661600000000 1.0
C      1  0.5486340000000  0.5166950000000  0.4367370000000 1.0
C      1  0.4890660000000  0.4446930000000  0.4454270000000 1.0
C      1  0.5123550000000  0.5525590000000  0.5541880000000 1.0
C      1  0.4895510000000  0.5140740000000  0.5860610000000 1.0
C      1  0.5080440000000  0.4865590000000  0.4152420000000 1.0
C      1  0.5258180000000  0.4752050000000  0.5747170000000 1.0
C      1  0.4684220000000  0.5287020000000  0.4237820000000 1.0
C      1  0.5662900000000  0.4863210000000  0.5740890000000 1.0
C      1  0.4308860000000  0.5100300000000  0.4240330000000 1.0
C      1  0.5846220000000  0.5511370000000  0.4847620000000 1.0
C      1  0.4146430000000  0.4498090000000  0.5129920000000 1.0
C      1  0.4704150000000  0.6050940000000  0.4873410000000 1.0
C      1  0.5284950000000  0.3950030000000  0.5160920000000 1.0
C      1  0.5758350000000  0.5712360000000  0.5047110000000 1.0
C      1  0.4246630000000  0.4298760000000  0.4936600000000 1.0
C      1  0.4606320000000  0.4345100000000  0.4548890000000 1.0
C      1  0.5404150000000  0.5646350000000  0.5457610000000 1.0
C      1  0.4955030000000  0.4589780000000  0.4181260000000 1.0
C      1  0.5055310000000  0.5397040000000  0.5818020000000 1.0
C      1  0.4223300000000  0.5021350000000  0.5004940000000 1.0
C      1  0.5780120000000  0.4977870000000  0.4980570000000 1.0
C      1  0.5794780000000  0.4764950000000  0.4476810000000 1.0
C      1  0.4196550000000  0.5209390000000  0.5550370000000 1.0
C      1  0.5417240000000  0.5427570000000  0.4534010000000 1.0
C      1  0.4583970000000  0.4597160000000  0.5409180000000 1.0
C      1  0.4483900000000  0.4912910000000  0.5963510000000 1.0
C      1  0.5467530000000  0.5162170000000  0.4063220000000 1.0
C      1  0.5230080000000  0.5161410000000  0.5185900000000 1.0
C      1  0.4821150000000  0.4880710000000  0.4776500000000 1.0
C      1  0.5229160000000  0.5091450000000  0.5478200000000 1.0
C      1  0.4794340000000  0.4974000000000  0.4495220000000 1.0
C      1  0.4044690000000  0.4778740000000  0.5059300000000 1.0
C      1  0.5954470000000  0.5225830000000  0.4912030000000 1.0
C      1  0.5663550000000  0.5594290000000  0.4617100000000 1.0
C      1  0.4333010000000  0.4431970000000  0.5356100000000 1.0
C      1  0.5645690000000  0.5203360000000  0.5439410000000 1.0
C      1  0.4378900000000  0.4798610000000  0.4558420000000 1.0
C      1  0.4989130000000  0.4922130000000  0.5468330000000 1.0
C      1  0.5046960000000  0.5153290000000  0.4485590000000 1.0
C      1  0.5089920000000  0.5389150000000  0.4274450000000 1.0
C      1  0.4780830000000  0.4615720000000  0.5778320000000 1.0
C      1  0.5368880000000  0.4140500000000  0.4431850000000 1.0
C      1  0.4629030000000  0.5824470000000  0.5590940000000 1.0
C      1  0.5075240000000  0.5229820000000  0.4763370000000 1.0
C      1  0.4958010000000  0.4817470000000  0.5205340000000 1.0
C      1  0.5063180000000  0.4411360000000  0.5007030000000 1.0
C      1  0.4940860000000  0.5595610000000  0.5000260000000 1.0
C      1  0.5228130000000  0.5469920000000  0.4842580000000 1.0
C      1  0.4798890000000  0.4572160000000  0.5140760000000 1.0
C      1  0.4673830000000  0.5893040000000  0.4624060000000 1.0
C      1  0.5296100000000  0.4119720000000  0.5405190000000 1.0
C      1  0.5632240000000  0.4437580000000  0.4974920000000 1.0
C      1  0.4366400000000  0.5559940000000  0.5035190000000 1.0
C      1  0.4601420000000  0.5979130000000  0.5143180000000 1.0
C      1  0.5393070000000  0.4012180000000  0.4889980000000 1.0
C      1  0.4834740000000  0.4369950000000  0.5518250000000 1.0
C      1  0.5147770000000  0.5668230000000  0.4482600000000 1.0
C      1  0.5014990000000  0.5023210000000  0.4980170000000 1.0
END
