TITL C-862501-1041-34 -0.000375266809670785 125000 -453.981102858112 0 0 87 (C1) n - 1
REM
REM in /home/nfs/bkarasulu/CARBON/AIRSS/Generating-Clusters/TERSOFF/Higher-Symm/FIRE-HFTN
REM
REM
REM
REM
REM
REM ./C.cell (b20cbc046b6831c77cfcea5457e17084)
REM AIRSS Version 0.9.1 bugfix July 2018 build 013d7b7c2542+ Fri, 06 Jul 2018 19:26:36 +0100
REM compiler GCC version 9.2.1 20190827 (Red Hat 9.2.1-1)
REM options -cpp -mtune=generic -march=x86-64 -g -O0 -fpre-include=/usr/include/finclude/math-vector-fortran.h
REM seed 221354948 -1060944125 -1498030005 891134808 -938356458 1149115952 859632634 -958552831 1608061141 -608878661 -969277702 -1123847273 1878897214 290381528 -134427435 -789649925 -724500233 -1010718963 386155097 1063368803 -830937588 2023232070 2096105557 1757464206 1519948516 877044340 -677043006 -1012939129 48404070 243265186 -925096973 2001033291 280706954
REM
CELL 1.54180   50.00000   50.00000   50.00000   90.00000   90.00000   90.00000
LATT -1
SFAC C  
C      1  0.4404830000000  0.4748890000000  0.4527910000000 1.0
C      1  0.5274180000000  0.4761100000000  0.4289010000000 1.0
C      1  0.5775470000000  0.4745250000000  0.5054290000000 1.0
C      1  0.5186480000000  0.4748110000000  0.5759600000000 1.0
C      1  0.4347050000000  0.4742770000000  0.5417290000000 1.0
C      1  0.5631480000000  0.5238800000000  0.4458700000000 1.0
C      1  0.4725320000000  0.5267420000000  0.4409950000000 1.0
C      1  0.4160130000000  0.5256740000000  0.5057790000000 1.0
C      1  0.4790600000000  0.5263040000000  0.5782100000000 1.0
C      1  0.5669200000000  0.5246570000000  0.5425250000000 1.0
C      1  0.4565170000000  0.4307560000000  0.4835600000000 1.0
C      1  0.5021190000000  0.4304580000000  0.4538650000000 1.0
C      1  0.5449450000000  0.4279060000000  0.4886820000000 1.0
C      1  0.5242010000000  0.4288420000000  0.5404560000000 1.0
C      1  0.4694090000000  0.4299680000000  0.5368630000000 1.0
C      1  0.5468020000000  0.5730430000000  0.4790930000000 1.0
C      1  0.4938550000000  0.5737250000000  0.4547810000000 1.0
C      1  0.4502340000000  0.5699650000000  0.4874180000000 1.0
C      1  0.4724960000000  0.5696220000000  0.5376480000000 1.0
C      1  0.5285960000000  0.5710950000000  0.5343430000000 1.0
C      1  0.4575210000000  0.5264120000000  0.5011480000000 1.0
C      1  0.4959380000000  0.5369280000000  0.4803730000000 1.0
C      1  0.5370200000000  0.5294170000000  0.4779240000000 1.0
C      1  0.5327180000000  0.5319970000000  0.5195840000000 1.0
C      1  0.4903300000000  0.5281540000000  0.5380010000000 1.0
C      1  0.5361390000000  0.4685500000000  0.5046590000000 1.0
C      1  0.5151190000000  0.4718010000000  0.4686780000000 1.0
C      1  0.4743790000000  0.4740630000000  0.4774240000000 1.0
C      1  0.4698060000000  0.4729340000000  0.5189300000000 1.0
C      1  0.5081250000000  0.4714490000000  0.5355930000000 1.0
C      1  0.4647150000000  0.4410010000000  0.4379400000000 1.0
C      1  0.5483490000000  0.4391680000000  0.4476180000000 1.0
C      1  0.5642190000000  0.4377910000000  0.5313770000000 1.0
C      1  0.4904140000000  0.4400250000000  0.5720070000000 1.0
C      1  0.4290790000000  0.4408460000000  0.5137110000000 1.0
C      1  0.5309180000000  0.5599790000000  0.4358190000000 1.0
C      1  0.4442990000000  0.5624460000000  0.4465280000000 1.0
C      1  0.4321350000000  0.5595860000000  0.5303260000000 1.0
C      1  0.5066050000000  0.5618740000000  0.5697160000000 1.0
C      1  0.5699530000000  0.5612580000000  0.5133100000000 1.0
C      1  0.4479930000000  0.4592020000000  0.4810260000000 1.0
C      1  0.5021330000000  0.4590570000000  0.4440040000000 1.0
C      1  0.5566440000000  0.4557950000000  0.4852670000000 1.0
C      1  0.5313780000000  0.4568090000000  0.5493390000000 1.0
C      1  0.4640500000000  0.4583240000000  0.5449420000000 1.0
C      1  0.5641200000000  0.5453100000000  0.4749090000000 1.0
C      1  0.4953700000000  0.5437620000000  0.4516530000000 1.0
C      1  0.4390720000000  0.5421690000000  0.4829540000000 1.0
C      1  0.4657700000000  0.5421440000000  0.5484150000000 1.0
C      1  0.5375600000000  0.5442610000000  0.5474840000000 1.0
C      1  0.5669510000000  0.5288280000000  0.5074110000000 1.0
C      1  0.5129070000000  0.5288230000000  0.5656710000000 1.0
C      1  0.4401710000000  0.5270970000000  0.5327500000000 1.0
C      1  0.4433230000000  0.5301540000000  0.4524550000000 1.0
C      1  0.5274340000000  0.5290250000000  0.4429660000000 1.0
C      1  0.4349980000000  0.4732830000000  0.5074530000000 1.0
C      1  0.4861820000000  0.4727240000000  0.5646610000000 1.0
C      1  0.5574800000000  0.4706260000000  0.5339410000000 1.0
C      1  0.5491270000000  0.4714870000000  0.4563190000000 1.0
C      1  0.4727430000000  0.4734810000000  0.4414420000000 1.0
C      1  0.5137850000000  0.5033210000000  0.4281900000000 1.0
C      1  0.5757920000000  0.5012580000000  0.4911380000000 1.0
C      1  0.5314390000000  0.5014210000000  0.5698560000000 1.0
C      1  0.4425320000000  0.5011880000000  0.5522210000000 1.0
C      1  0.4296580000000  0.5013920000000  0.4622440000000 1.0
C      1  0.4835770000000  0.5012530000000  0.4306140000000 1.0
C      1  0.4215470000000  0.4987970000000  0.4914180000000 1.0
C      1  0.4670290000000  0.4991750000000  0.5699460000000 1.0
C      1  0.5558540000000  0.4982430000000  0.5523390000000 1.0
C      1  0.5669400000000  0.4979180000000  0.4622990000000 1.0
C      1  0.5003450000000  0.5805590000000  0.5450510000000 1.0
C      1  0.4518410000000  0.5796230000000  0.5163280000000 1.0
C      1  0.4645800000000  0.5814690000000  0.4620650000000 1.0
C      1  0.5256830000000  0.5814060000000  0.4573890000000 1.0
C      1  0.5458280000000  0.5807330000000  0.5101240000000 1.0
C      1  0.4963030000000  0.4192000000000  0.5488950000000 1.0
C      1  0.5434420000000  0.4180040000000  0.5179170000000 1.0
C      1  0.5292390000000  0.4191900000000  0.4627870000000 1.0
C      1  0.4732520000000  0.4200960000000  0.4601770000000 1.0
C      1  0.4529540000000  0.4199180000000  0.5128770000000 1.0
C      1  0.4742520000000  0.5029640000000  0.4904450000000 1.0
C      1  0.5338600000000  0.4998770000000  0.4928430000000 1.0
C      1  0.4877280000000  0.5041620000000  0.5199240000000 1.0
C      1  0.5195350000000  0.5026250000000  0.5220160000000 1.0
C      1  0.5032960000000  0.5044930000000  0.4770750000000 1.0
C      1  0.5183190000000  0.5481220000000  0.4971670000000 1.0
C      1  0.5002960000000  0.4628280000000  0.5009010000000 1.0
END
