TITL C-862133-5440-436 17.3403891598035 125000 -850.661336425557 0 0 155 (C3) n - 1
REM
REM in /home/nfs/bkarasulu/CARBON/AIRSS/Generating-Clusters/TERSOFF/Higher-Symm/FIRE-HFTN
REM
REM
REM
REM
REM
REM ./C.cell (b20cbc046b6831c77cfcea5457e17084)
REM AIRSS Version 0.9.1 bugfix July 2018 build 013d7b7c2542+ Fri, 06 Jul 2018 19:26:36 +0100
REM compiler GCC version 9.2.1 20190827 (Red Hat 9.2.1-1)
REM options -cpp -mtune=generic -march=x86-64 -g -O0 -fpre-include=/usr/include/finclude/math-vector-fortran.h
REM seed 1728519293 -1017818251 -141250182 -1885678926 29929460 -1368051053 -1312633134 -508099954 -199618386 440957276 384819910 -1701865250 2021502320 -1732012601 -423832924 -1693324569 1945360331 -1808469000 -961820469 -1328307465 -561605758 -1677331573 1358034741 -355108999 547005946 -852631308 47370996 1620697743 1937647532 -1321005039 1580787100 455920453 1817399720
REM
CELL 1.54180   50.00000   50.00000   50.00000   90.00000   90.00000   90.00000
LATT -1
SFAC C  
C      1  0.6030120000000  0.4690050000000  0.4853650000000 1.0
C      1  0.4358640000000  0.4690050000000  0.4181980000000 1.0
C      1  0.4612700000000  0.4690030000000  0.5965360000000 1.0
C      1  0.6050190000000  0.5316450000000  0.4794190000000 1.0
C      1  0.4297100000000  0.5316450000000  0.4194340000000 1.0
C      1  0.4654150000000  0.5316430000000  0.6012490000000 1.0
C      1  0.4457630000000  0.4874330000000  0.5495810000000 1.0
C      1  0.5701010000000  0.4874350000000  0.5222720000000 1.0
C      1  0.4842810000000  0.4874350000000  0.4282470000000 1.0
C      1  0.4510390000000  0.5176090000000  0.5550080000000 1.0
C      1  0.5721620000000  0.5176100000000  0.5149890000000 1.0
C      1  0.4769430000000  0.5176110000000  0.4301040000000 1.0
C      1  0.5349840000000  0.4549910000000  0.5252000000000 1.0
C      1  0.5043760000000  0.4549920000000  0.4571950000000 1.0
C      1  0.4607860000000  0.4549910000000  0.5177040000000 1.0
C      1  0.5375750000000  0.5476390000000  0.5216460000000 1.0
C      1  0.5000010000000  0.5476400000000  0.4567290000000 1.0
C      1  0.4625680000000  0.5476390000000  0.5217270000000 1.0
C      1  0.5346060000000  0.6052850000000  0.4691990000000 1.0
C      1  0.4560630000000  0.6052840000000  0.4855240000000 1.0
C      1  0.5094730000000  0.6052840000000  0.5453810000000 1.0
C      1  0.5377230000000  0.3982200000000  0.4719020000000 1.0
C      1  0.4568500000000  0.3982190000000  0.4814710000000 1.0
C      1  0.5055730000000  0.3982190000000  0.5467240000000 1.0
C      1  0.5453680000000  0.5868080000000  0.4908360000000 1.0
C      1  0.4694210000000  0.5868080000000  0.4653850000000 1.0
C      1  0.4853540000000  0.5868070000000  0.5438820000000 1.0
C      1  0.5462570000000  0.4167750000000  0.4947650000000 1.0
C      1  0.4723830000000  0.4167740000000  0.4626490000000 1.0
C      1  0.4815070000000  0.4167730000000  0.5426840000000 1.0
C      1  0.4187400000000  0.4843280000000  0.5335200000000 1.0
C      1  0.5697020000000  0.4843280000000  0.5537050000000 1.0
C      1  0.5117020000000  0.4843300000000  0.4128750000000 1.0
C      1  0.4147650000000  0.5203630000000  0.5341100000000 1.0
C      1  0.5722010000000  0.5203640000000  0.5568530000000 1.0
C      1  0.5131790000000  0.5203660000000  0.4091380000000 1.0
C      1  0.4636040000000  0.4861530000000  0.4837210000000 1.0
C      1  0.5041430000000  0.4861530000000  0.5397510000000 1.0
C      1  0.5323970000000  0.4861540000000  0.4766280000000 1.0
C      1  0.4594250000000  0.5142270000000  0.4818560000000 1.0
C      1  0.5046180000000  0.5142270000000  0.5443030000000 1.0
C      1  0.5361020000000  0.5142280000000  0.4739410000000 1.0
C      1  0.5269290000000  0.5673280000000  0.5838680000000 1.0
C      1  0.5592100000000  0.5673300000000  0.4348380000000 1.0
C      1  0.4140050000000  0.5673280000000  0.4813970000000 1.0
C      1  0.5202720000000  0.4371560000000  0.5838140000000 1.0
C      1  0.5624940000000  0.4371580000000  0.4406280000000 1.0
C      1  0.4173800000000  0.4371570000000  0.4756560000000 1.0
C      1  0.4727110000000  0.4753570000000  0.5348840000000 1.0
C      1  0.5438990000000  0.4753580000000  0.5062830000000 1.0
C      1  0.4835350000000  0.4753580000000  0.4589330000000 1.0
C      1  0.4758540000000  0.5289930000000  0.5401630000000 1.0
C      1  0.5468980000000  0.5289940000000  0.5009220000000 1.0
C      1  0.4773920000000  0.5289940000000  0.4590170000000 1.0
C      1  0.6010590000000  0.4901620000000  0.6093810000000 1.0
C      1  0.5442410000000  0.4901650000000  0.3578810000000 1.0
C      1  0.3548450000000  0.4901610000000  0.5328380000000 1.0
C      1  0.6118420000000  0.5164110000000  0.6045590000000 1.0
C      1  0.5346730000000  0.5164130000000  0.3509540000000 1.0
C      1  0.3536290000000  0.5164100000000  0.5445880000000 1.0
C      1  0.5379260000000  0.5965930000000  0.5431310000000 1.0
C      1  0.5184310000000  0.5965940000000  0.4456820000000 1.0
C      1  0.4437850000000  0.5965930000000  0.5112900000000 1.0
C      1  0.5343170000000  0.4065330000000  0.5461760000000 1.0
C      1  0.5228770000000  0.4065340000000  0.4472840000000 1.0
C      1  0.4429530000000  0.4065330000000  0.5066370000000 1.0
C      1  0.5592030000000  0.5507990000000  0.5421890000000 1.0
C      1  0.5069770000000  0.5508000000000  0.4277270000000 1.0
C      1  0.4339630000000  0.5507980000000  0.5301870000000 1.0
C      1  0.5571470000000  0.4509700000000  0.5448980000000 1.0
C      1  0.5103540000000  0.4509710000000  0.4281520000000 1.0
C      1  0.4326450000000  0.4509690000000  0.5270490000000 1.0
C      1  0.4832650000000  0.4830100000000  0.6110230000000 1.0
C      1  0.6045600000000  0.4830130000000  0.4590740000000 1.0
C      1  0.4123200000000  0.4830120000000  0.4300040000000 1.0
C      1  0.4858590000000  0.5129120000000  0.6123800000000 1.0
C      1  0.6044380000000  0.5129140000000  0.4561490000000 1.0
C      1  0.4098480000000  0.5129130000000  0.4315720000000 1.0
C      1  0.3978320000000  0.4684020000000  0.5505770000000 1.0
C      1  0.5949290000000  0.4684030000000  0.5632840000000 1.0
C      1  0.5073850000000  0.4684050000000  0.3862390000000 1.0
C      1  0.4003950000000  0.5315640000000  0.5589050000000 1.0
C      1  0.6008590000000  0.5315660000000  0.5569000000000 1.0
C      1  0.4988900000000  0.5315670000000  0.3842960000000 1.0
C      1  0.5926620000000  0.5596540000000  0.4835670000000 1.0
C      1  0.4394800000000  0.5596540000000  0.4280620000000 1.0
C      1  0.4680020000000  0.5596520000000  0.5884740000000 1.0
C      1  0.5936900000000  0.4405310000000  0.4898940000000 1.0
C      1  0.4444480000000  0.4405310000000  0.4240060000000 1.0
C      1  0.4620080000000  0.4405290000000  0.5861980000000 1.0
C      1  0.4153620000000  0.5515510000000  0.5739340000000 1.0
C      1  0.6063900000000  0.5515530000000  0.5364240000000 1.0
C      1  0.4783920000000  0.5515540000000  0.3897440000000 1.0
C      1  0.4099150000000  0.4474930000000  0.5669830000000 1.0
C      1  0.6030960000000  0.4474950000000  0.5446150000000 1.0
C      1  0.4871340000000  0.4474960000000  0.3885000000000 1.0
C      1  0.4739070000000  0.5622460000000  0.4177310000000 1.0
C      1  0.4418410000000  0.5622440000000  0.5638250000000 1.0
C      1  0.5843950000000  0.5622450000000  0.5185470000000 1.0
C      1  0.4789320000000  0.4374020000000  0.4159600000000 1.0
C      1  0.4377980000000  0.4374000000000  0.5603570000000 1.0
C      1  0.5834160000000  0.4374010000000  0.5237820000000 1.0
C      1  0.5598240000000  0.4589640000000  0.4601820000000 1.0
C      1  0.4356480000000  0.4589630000000  0.4681910000000 1.0
C      1  0.5046730000000  0.4589630000000  0.5717260000000 1.0
C      1  0.5557650000000  0.5455380000000  0.4540630000000 1.0
C      1  0.4323770000000  0.5455360000000  0.4747670000000 1.0
C      1  0.5120010000000  0.5455360000000  0.5712720000000 1.0
C      1  0.4246850000000  0.5779380000000  0.4491870000000 1.0
C      1  0.4936930000000  0.5779370000000  0.5907240000000 1.0
C      1  0.5817640000000  0.5779390000000  0.4601930000000 1.0
C      1  0.4294420000000  0.4238900000000  0.4459540000000 1.0
C      1  0.4885190000000  0.4238890000000  0.5882190000000 1.0
C      1  0.5821850000000  0.4238910000000  0.4659250000000 1.0
C      1  0.5339970000000  0.4291170000000  0.4319860000000 1.0
C      1  0.4241440000000  0.4291160000000  0.5046560000000 1.0
C      1  0.5420050000000  0.4291160000000  0.5634560000000 1.0
C      1  0.5289700000000  0.5740700000000  0.4297850000000 1.0
C      1  0.4247490000000  0.5740680000000  0.5101110000000 1.0
C      1  0.5464240000000  0.5740690000000  0.5602060000000 1.0
C      1  0.5992760000000  0.4863670000000  0.5079440000000 1.0
C      1  0.4572850000000  0.4863670000000  0.4101450000000 1.0
C      1  0.4435840000000  0.4863650000000  0.5820110000000 1.0
C      1  0.6011690000000  0.5180530000000  0.5046300000000 1.0
C      1  0.4534680000000  0.5180530000000  0.4101620000000 1.0
C      1  0.4455070000000  0.5180500000000  0.5853090000000 1.0
C      1  0.4974080000000  0.4321180000000  0.4728520000000 1.0
C      1  0.4778300000000  0.4321170000000  0.5159100000000 1.0
C      1  0.5249080000000  0.4321170000000  0.5113360000000 1.0
C      1  0.4951480000000  0.5707800000000  0.4730240000000 1.0
C      1  0.4791060000000  0.5707790000000  0.5177830000000 1.0
C      1  0.5258900000000  0.5707790000000  0.5092960000000 1.0
C      1  0.4579860000000  0.6014780000000  0.5371050000000 1.0
C      1  0.5531820000000  0.6014790000000  0.5179260000000 1.0
C      1  0.4889740000000  0.6014790000000  0.4450730000000 1.0
C      1  0.4552610000000  0.4013240000000  0.5333470000000 1.0
C      1  0.5512940000000  0.4013250000000  0.5221630000000 1.0
C      1  0.4935920000000  0.4013250000000  0.4445880000000 1.0
C      1  0.4906000000000  0.5526290000000  0.5538350000000 1.0
C      1  0.5513650000000  0.5526300000000  0.4813160000000 1.0
C      1  0.4581790000000  0.5526300000000  0.4649510000000 1.0
C      1  0.4846260000000  0.4513210000000  0.5525960000000 1.0
C      1  0.5532810000000  0.4513220000000  0.4871080000000 1.0
C      1  0.4622390000000  0.4513220000000  0.4603950000000 1.0
C      1  0.3723370000000  0.5265730000000  0.5640260000000 1.0
C      1  0.6193220000000  0.5265750000000  0.5786390000000 1.0
C      1  0.5084850000000  0.5265770000000  0.3574370000000 1.0
C      1  0.3695650000000  0.4678940000000  0.5438210000000 1.0
C      1  0.6032110000000  0.4678950000000  0.5911410000000 1.0
C      1  0.5273690000000  0.4678980000000  0.3651370000000 1.0
C      1  0.4713330000000  0.5041680000000  0.5207980000000 1.0
C      1  0.4964230000000  0.5041690000000  0.4647830000000 1.0
C      1  0.5323890000000  0.5041690000000  0.5145200000000 1.0
C      1  0.5000480000000  0.5696470000000  0.5000340000000 1.0
C      1  0.5000490000000  0.4329160000000  0.5000330000000 1.0
END
