TITL C-862134-6730-664 -7.88821356491552 125000 -722.483851517973 0 0 122 (C1) n - 1
REM
REM in /home/nfs/bkarasulu/CARBON/AIRSS/Generating-Clusters/TERSOFF/Higher-Symm/FIRE-HFTN
REM
REM
REM
REM
REM
REM ./C.cell (b20cbc046b6831c77cfcea5457e17084)
REM AIRSS Version 0.9.1 bugfix July 2018 build 013d7b7c2542+ Fri, 06 Jul 2018 19:26:36 +0100
REM compiler GCC version 9.2.1 20190827 (Red Hat 9.2.1-1)
REM options -cpp -mtune=generic -march=x86-64 -g -O0 -fpre-include=/usr/include/finclude/math-vector-fortran.h
REM seed 719261234 1073033756 -1212968145 700701781 312230423 1320946144 1454887654 -1776321217 -2101237587 368635002 -245406563 676851831 -1033000056 -1018954591 266569293 422170701 -277598491 -343497236 -80106130 235791004 551854497 1396243609 2048179231 -977067775 1300722120 -248386281 -1673464551 -383325634 -977259814 -1410232008 2127955223 -79819466 1323486911
REM
CELL 1.54180   50.00000   50.00000   50.00000   90.00000   90.00000   90.00000
LATT -1
SFAC C  
C      1  0.4585200000000  0.4962890000000  0.5396460000000 1.0
C      1  0.4409620000000  0.5441150000000  0.4362490000000 1.0
C      1  0.5907900000000  0.4601980000000  0.5098300000000 1.0
C      1  0.4875550000000  0.5498780000000  0.4456660000000 1.0
C      1  0.4553550000000  0.5805580000000  0.5013130000000 1.0
C      1  0.4769890000000  0.4760960000000  0.4139880000000 1.0
C      1  0.4132110000000  0.5525350000000  0.5111420000000 1.0
C      1  0.5193370000000  0.5815260000000  0.5531160000000 1.0
C      1  0.4661440000000  0.4398350000000  0.5703790000000 1.0
C      1  0.6095860000000  0.5076400000000  0.5106460000000 1.0
C      1  0.5623340000000  0.4379140000000  0.5451920000000 1.0
C      1  0.4133150000000  0.4343800000000  0.4812730000000 1.0
C      1  0.5488630000000  0.4135870000000  0.5380360000000 1.0
C      1  0.5178540000000  0.5070340000000  0.4122730000000 1.0
C      1  0.4506040000000  0.4285610000000  0.5243550000000 1.0
C      1  0.5580360000000  0.5324660000000  0.4411450000000 1.0
C      1  0.4603930000000  0.5588820000000  0.4528510000000 1.0
C      1  0.4019500000000  0.5484180000000  0.4846550000000 1.0
C      1  0.5869900000000  0.5513500000000  0.5300670000000 1.0
C      1  0.4476170000000  0.5421630000000  0.5591590000000 1.0
C      1  0.4535960000000  0.4990590000000  0.4147640000000 1.0
C      1  0.5024290000000  0.4821720000000  0.5317000000000 1.0
C      1  0.5426690000000  0.4952180000000  0.4529890000000 1.0
C      1  0.5299660000000  0.3941310000000  0.4736860000000 1.0
C      1  0.5452530000000  0.5590810000000  0.4455750000000 1.0
C      1  0.5730050000000  0.4673850000000  0.4610410000000 1.0
C      1  0.4419600000000  0.4332730000000  0.4722460000000 1.0
C      1  0.5217600000000  0.6358770000000  0.4767150000000 1.0
C      1  0.4103210000000  0.5225410000000  0.4737610000000 1.0
C      1  0.5150320000000  0.4030720000000  0.5013170000000 1.0
C      1  0.5347410000000  0.4195110000000  0.4599630000000 1.0
C      1  0.5881760000000  0.4438220000000  0.5336150000000 1.0
C      1  0.5009850000000  0.5621210000000  0.4222950000000 1.0
C      1  0.4233360000000  0.5217450000000  0.4473160000000 1.0
C      1  0.4572190000000  0.4887370000000  0.5695990000000 1.0
C      1  0.4616990000000  0.4527990000000  0.4266750000000 1.0
C      1  0.4979140000000  0.4459440000000  0.4518930000000 1.0
C      1  0.5081930000000  0.4756490000000  0.5826420000000 1.0
C      1  0.5139380000000  0.4265510000000  0.5731890000000 1.0
C      1  0.5606900000000  0.5656480000000  0.5212520000000 1.0
C      1  0.5549920000000  0.5008570000000  0.5748420000000 1.0
C      1  0.5030310000000  0.5691840000000  0.4968370000000 1.0
C      1  0.5279280000000  0.5220290000000  0.4935230000000 1.0
C      1  0.4309990000000  0.5750340000000  0.5163980000000 1.0
C      1  0.5569780000000  0.4553610000000  0.4365330000000 1.0
C      1  0.5324560000000  0.4688580000000  0.4219340000000 1.0
C      1  0.5442320000000  0.5980980000000  0.5945480000000 1.0
C      1  0.4672980000000  0.4020570000000  0.5228390000000 1.0
C      1  0.4133900000000  0.4505590000000  0.5584510000000 1.0
C      1  0.4065130000000  0.4494900000000  0.5060040000000 1.0
C      1  0.4317930000000  0.5271510000000  0.5807510000000 1.0
C      1  0.4934700000000  0.5416850000000  0.5828010000000 1.0
C      1  0.3982790000000  0.4780580000000  0.5037530000000 1.0
C      1  0.4761150000000  0.5357190000000  0.5028710000000 1.0
C      1  0.4917710000000  0.5207840000000  0.4501740000000 1.0
C      1  0.5056680000000  0.5401010000000  0.5025250000000 1.0
C      1  0.5100170000000  0.5608730000000  0.5969710000000 1.0
C      1  0.5134360000000  0.5352270000000  0.5306680000000 1.0
C      1  0.5162340000000  0.4391360000000  0.5016490000000 1.0
C      1  0.5885320000000  0.4941100000000  0.4592780000000 1.0
C      1  0.4961690000000  0.5497110000000  0.3967920000000 1.0
C      1  0.5425700000000  0.4596360000000  0.5480940000000 1.0
C      1  0.4169820000000  0.5008730000000  0.4986870000000 1.0
C      1  0.5223910000000  0.5850220000000  0.4820970000000 1.0
C      1  0.5276700000000  0.6119400000000  0.4919200000000 1.0
C      1  0.4549320000000  0.4418290000000  0.4978020000000 1.0
C      1  0.4731780000000  0.5042650000000  0.4655330000000 1.0
C      1  0.4894500000000  0.5753050000000  0.5440010000000 1.0
C      1  0.4260400000000  0.4725990000000  0.4475640000000 1.0
C      1  0.5316180000000  0.5099660000000  0.5886900000000 1.0
C      1  0.4655440000000  0.4686000000000  0.4983440000000 1.0
C      1  0.5658170000000  0.4968010000000  0.4077990000000 1.0
C      1  0.5779090000000  0.5227130000000  0.4610140000000 1.0
C      1  0.4217200000000  0.5255350000000  0.5196140000000 1.0
C      1  0.5657660000000  0.4212390000000  0.4881900000000 1.0
C      1  0.4655980000000  0.4466120000000  0.5421820000000 1.0
C      1  0.4869710000000  0.4246750000000  0.5827050000000 1.0
C      1  0.5032190000000  0.4661600000000  0.4307520000000 1.0
C      1  0.5393220000000  0.6123820000000  0.5181950000000 1.0
C      1  0.5017290000000  0.3973550000000  0.5329650000000 1.0
C      1  0.5449200000000  0.5088180000000  0.4253170000000 1.0
C      1  0.5071670000000  0.5168120000000  0.5746540000000 1.0
C      1  0.5459200000000  0.4103480000000  0.5089760000000 1.0
C      1  0.5236650000000  0.5022140000000  0.4731340000000 1.0
C      1  0.4752090000000  0.4731970000000  0.5289650000000 1.0
C      1  0.5540720000000  0.4868860000000  0.5494860000000 1.0
C      1  0.5249250000000  0.5804870000000  0.5819700000000 1.0
C      1  0.4495530000000  0.4569930000000  0.4535580000000 1.0
C      1  0.4313980000000  0.4966690000000  0.5801580000000 1.0
C      1  0.5450200000000  0.5701910000000  0.4722760000000 1.0
C      1  0.4210310000000  0.4403800000000  0.5306170000000 1.0
C      1  0.4577690000000  0.4128480000000  0.4580670000000 1.0
C      1  0.4561380000000  0.5290120000000  0.4140260000000 1.0
C      1  0.4823660000000  0.4211460000000  0.4449720000000 1.0
C      1  0.4539040000000  0.5815070000000  0.4713120000000 1.0
C      1  0.5195540000000  0.4416500000000  0.4712650000000 1.0
C      1  0.4629800000000  0.5146370000000  0.4901320000000 1.0
C      1  0.5081120000000  0.5244190000000  0.3913290000000 1.0
C      1  0.4096730000000  0.4795250000000  0.5676410000000 1.0
C      1  0.4711160000000  0.4745700000000  0.4685540000000 1.0
C      1  0.4830160000000  0.3979350000000  0.4954630000000 1.0
C      1  0.5887240000000  0.4885630000000  0.5146800000000 1.0
C      1  0.4788390000000  0.4763270000000  0.5867490000000 1.0
C      1  0.5841650000000  0.5413850000000  0.4836160000000 1.0
C      1  0.4476340000000  0.4952010000000  0.5061860000000 1.0
C      1  0.5081080000000  0.5106800000000  0.5453620000000 1.0
C      1  0.6015440000000  0.5352280000000  0.5072690000000 1.0
C      1  0.5541320000000  0.4261500000000  0.4398840000000 1.0
C      1  0.4445390000000  0.5235940000000  0.5369730000000 1.0
C      1  0.5641310000000  0.4987560000000  0.5247100000000 1.0
C      1  0.4749010000000  0.5542460000000  0.5632870000000 1.0
C      1  0.5229070000000  0.4620260000000  0.5245850000000 1.0
C      1  0.5767590000000  0.4495830000000  0.4861920000000 1.0
C      1  0.4957030000000  0.6427000000000  0.4661200000000 1.0
C      1  0.5637680000000  0.5607520000000  0.4913670000000 1.0
C      1  0.4293770000000  0.4966530000000  0.4335170000000 1.0
C      1  0.5225950000000  0.4081150000000  0.5521700000000 1.0
C      1  0.5279010000000  0.5708510000000  0.4262610000000 1.0
C      1  0.4824550000000  0.5801050000000  0.5142230000000 1.0
C      1  0.5236230000000  0.4538000000000  0.5707550000000 1.0
C      1  0.5418160000000  0.5876400000000  0.5334130000000 1.0
C      1  0.5518560000000  0.5220500000000  0.5112990000000 1.0
END
