TITL C-862127-1500-141 0.103054098437407 125000 -130.070970089392 0 0 25 (C1) n - 1
REM
REM in /home/nfs/bkarasulu/CARBON/AIRSS/Generating-Clusters/TERSOFF/Higher-Symm/FIRE-HFTN
REM
REM
REM
REM
REM
REM ./C.cell (b20cbc046b6831c77cfcea5457e17084)
REM AIRSS Version 0.9.1 bugfix July 2018 build 013d7b7c2542+ Fri, 06 Jul 2018 19:26:36 +0100
REM compiler GCC version 9.2.1 20190827 (Red Hat 9.2.1-1)
REM options -cpp -mtune=generic -march=x86-64 -g -O0 -fpre-include=/usr/include/finclude/math-vector-fortran.h
REM seed 1610740500 -725505069 404355463 -539707073 -493277401 1944519222 774844271 1554374499 -1878916889 1152152086 -1572987154 811548344 -1203182872 -1619648825 -1373136184 -1958433645 -1757237724 -1334863672 421012251 -693192519 79988294 -126813497 738473045 626086702 2080553180 1646747103 2136287640 872829023 1208579809 -65923227 1070900693 1720845210 482996047
REM
CELL 1.54180   50.00000   50.00000   50.00000   90.00000   90.00000   90.00000
LATT -1
SFAC C  
C      1  0.4592830000000  0.5025250000000  0.4673400000000 1.0
C      1  0.5430100000000  0.5028420000000  0.5316040000000 1.0
C      1  0.5164880000000  0.4769290000000  0.4967750000000 1.0
C      1  0.4842920000000  0.4787390000000  0.5050750000000 1.0
C      1  0.5189870000000  0.5435850000000  0.4674400000000 1.0
C      1  0.4834820000000  0.5420140000000  0.5351210000000 1.0
C      1  0.4774690000000  0.5309890000000  0.5082870000000 1.0
C      1  0.5264760000000  0.5332420000000  0.4942570000000 1.0
C      1  0.5212210000000  0.5103550000000  0.5489010000000 1.0
C      1  0.4823860000000  0.5104310000000  0.4520450000000 1.0
C      1  0.4973190000000  0.4424970000000  0.4764680000000 1.0
C      1  0.5047300000000  0.4426070000000  0.5263560000000 1.0
C      1  0.5119610000000  0.5387760000000  0.5429570000000 1.0
C      1  0.4907080000000  0.5387670000000  0.4597880000000 1.0
C      1  0.5091250000000  0.4587570000000  0.5512180000000 1.0
C      1  0.4943220000000  0.4587280000000  0.4514350000000 1.0
C      1  0.4619500000000  0.4944610000000  0.4945770000000 1.0
C      1  0.5382680000000  0.4943480000000  0.5047700000000 1.0
C      1  0.4727810000000  0.5465550000000  0.4829970000000 1.0
C      1  0.5294600000000  0.5486130000000  0.5201020000000 1.0
C      1  0.4807010000000  0.4481590000000  0.5051360000000 1.0
C      1  0.5219480000000  0.4465270000000  0.4976520000000 1.0
C      1  0.5025470000000  0.4878910000000  0.5547680000000 1.0
C      1  0.5014300000000  0.4878060000000  0.4482420000000 1.0
C      1  0.5026380000000  0.5163040000000  0.5012590000000 1.0
END
