TITL C-862133-5440-626 -0.0124040673584381 125000 -688.20007663706 0 0 129 (C1) n - 1
REM
REM in /home/nfs/bkarasulu/CARBON/AIRSS/Generating-Clusters/TERSOFF/Higher-Symm/FIRE-HFTN
REM
REM
REM
REM
REM
REM ./C.cell (b20cbc046b6831c77cfcea5457e17084)
REM AIRSS Version 0.9.1 bugfix July 2018 build 013d7b7c2542+ Fri, 06 Jul 2018 19:26:36 +0100
REM compiler GCC version 9.2.1 20190827 (Red Hat 9.2.1-1)
REM options -cpp -mtune=generic -march=x86-64 -g -O0 -fpre-include=/usr/include/finclude/math-vector-fortran.h
REM seed 1872401584 835207853 -1645324721 965532889 877786372 436705669 627255584 1663445355 -315205809 -1689313334 380873867 133096644 1078599547 -1860947769 1302662052 -266945543 -1944468028 -617864923 1411729249 -7115576 1922734113 931986020 -1530907293 -1958698713 -1257315616 -1619038814 1196537395 1561594876 879653411 1473506511 570437303 764974090 -264471614
REM
CELL 1.54180   50.00000   50.00000   50.00000   90.00000   90.00000   90.00000
LATT -1
SFAC C  
C      1  0.5121160000000  0.4795140000000  0.4011620000000 1.0
C      1  0.5839730000000  0.4811930000000  0.4478360000000 1.0
C      1  0.5925020000000  0.4819670000000  0.5323350000000 1.0
C      1  0.5329910000000  0.4801780000000  0.5898740000000 1.0
C      1  0.4476730000000  0.4790590000000  0.5835390000000 1.0
C      1  0.4053890000000  0.4822230000000  0.5104930000000 1.0
C      1  0.4346640000000  0.4824350000000  0.4320810000000 1.0
C      1  0.3861500000000  0.5197830000000  0.4809750000000 1.0
C      1  0.4447500000000  0.5183840000000  0.3997340000000 1.0
C      1  0.5438240000000  0.5193210000000  0.3902580000000 1.0
C      1  0.6124000000000  0.5208250000000  0.4652040000000 1.0
C      1  0.5954500000000  0.5196830000000  0.5644810000000 1.0
C      1  0.5101730000000  0.5169930000000  0.6168470000000 1.0
C      1  0.4154140000000  0.5191280000000  0.5775490000000 1.0
C      1  0.5494170000000  0.4532280000000  0.5814880000000 1.0
C      1  0.4641340000000  0.4508830000000  0.5902110000000 1.0
C      1  0.4093800000000  0.4546900000000  0.5280690000000 1.0
C      1  0.4229050000000  0.4550100000000  0.4452630000000 1.0
C      1  0.4939170000000  0.4520590000000  0.4032660000000 1.0
C      1  0.5713520000000  0.4532050000000  0.4340710000000 1.0
C      1  0.5960520000000  0.4531570000000  0.5152730000000 1.0
C      1  0.5343220000000  0.5675650000000  0.5608570000000 1.0
C      1  0.4749900000000  0.5686320000000  0.5668590000000 1.0
C      1  0.4333020000000  0.5681120000000  0.5215180000000 1.0
C      1  0.4415940000000  0.5700520000000  0.4501170000000 1.0
C      1  0.4943060000000  0.5658140000000  0.4279780000000 1.0
C      1  0.5515230000000  0.5670790000000  0.4505320000000 1.0
C      1  0.5659160000000  0.5691010000000  0.5093710000000 1.0
C      1  0.4938500000000  0.5010010000000  0.4726350000000 1.0
C      1  0.5250680000000  0.4891950000000  0.4694070000000 1.0
C      1  0.5362560000000  0.5002180000000  0.4950630000000 1.0
C      1  0.5224300000000  0.4879590000000  0.5192440000000 1.0
C      1  0.4966000000000  0.5020870000000  0.5366580000000 1.0
C      1  0.4735470000000  0.4872950000000  0.5180960000000 1.0
C      1  0.4640110000000  0.5035610000000  0.4898240000000 1.0
C      1  0.5390460000000  0.4889640000000  0.5472710000000 1.0
C      1  0.4871040000000  0.4888680000000  0.5623560000000 1.0
C      1  0.4437930000000  0.4893210000000  0.5286670000000 1.0
C      1  0.4433770000000  0.4918570000000  0.4727430000000 1.0
C      1  0.4900270000000  0.4893650000000  0.4427440000000 1.0
C      1  0.5427270000000  0.4883580000000  0.4455540000000 1.0
C      1  0.5641980000000  0.4894990000000  0.4984260000000 1.0
C      1  0.5173350000000  0.5369590000000  0.4686330000000 1.0
C      1  0.5340500000000  0.5308680000000  0.4925240000000 1.0
C      1  0.5260350000000  0.5391690000000  0.5215200000000 1.0
C      1  0.5001700000000  0.5313870000000  0.5355750000000 1.0
C      1  0.4756040000000  0.5406530000000  0.5225690000000 1.0
C      1  0.4538530000000  0.5269590000000  0.5032840000000 1.0
C      1  0.4882530000000  0.5339320000000  0.4723210000000 1.0
C      1  0.6088050000000  0.5164490000000  0.4970460000000 1.0
C      1  0.5682000000000  0.5158420000000  0.5801490000000 1.0
C      1  0.4792740000000  0.5144590000000  0.6071170000000 1.0
C      1  0.4077470000000  0.5213030000000  0.5460240000000 1.0
C      1  0.4033970000000  0.5212400000000  0.4542750000000 1.0
C      1  0.4755500000000  0.5128000000000  0.3988700000000 1.0
C      1  0.5667530000000  0.5194680000000  0.4135930000000 1.0
C      1  0.4620020000000  0.4760660000000  0.4465360000000 1.0
C      1  0.5172980000000  0.4749990000000  0.4307500000000 1.0
C      1  0.5642650000000  0.4738280000000  0.4719120000000 1.0
C      1  0.5622520000000  0.4758300000000  0.5298050000000 1.0
C      1  0.5134100000000  0.4734780000000  0.5665150000000 1.0
C      1  0.4568680000000  0.4753000000000  0.5547200000000 1.0
C      1  0.4327360000000  0.4756350000000  0.4971130000000 1.0
C      1  0.4418740000000  0.4323680000000  0.4649780000000 1.0
C      1  0.4911370000000  0.4321730000000  0.4318130000000 1.0
C      1  0.5474840000000  0.4313260000000  0.4498370000000 1.0
C      1  0.5690250000000  0.4313410000000  0.5057520000000 1.0
C      1  0.5398620000000  0.4311800000000  0.5557170000000 1.0
C      1  0.4798870000000  0.4299060000000  0.5655280000000 1.0
C      1  0.4368900000000  0.4322160000000  0.5247150000000 1.0
C      1  0.4576850000000  0.5426820000000  0.5718510000000 1.0
C      1  0.4174020000000  0.5477920000000  0.5049950000000 1.0
C      1  0.4469560000000  0.5432080000000  0.4383820000000 1.0
C      1  0.5113540000000  0.5422780000000  0.4191960000000 1.0
C      1  0.5688210000000  0.5428500000000  0.4579980000000 1.0
C      1  0.5744850000000  0.5438620000000  0.5266820000000 1.0
C      1  0.5251720000000  0.5434020000000  0.5772380000000 1.0
C      1  0.4410330000000  0.5454700000000  0.4840370000000 1.0
C      1  0.4734550000000  0.5335220000000  0.4447800000000 1.0
C      1  0.5275200000000  0.5338290000000  0.4415500000000 1.0
C      1  0.5628520000000  0.5349820000000  0.4850790000000 1.0
C      1  0.5492750000000  0.5356820000000  0.5380010000000 1.0
C      1  0.5002600000000  0.5351220000000  0.5652770000000 1.0
C      1  0.4536280000000  0.5382210000000  0.5436760000000 1.0
C      1  0.4871540000000  0.5134370000000  0.5781000000000 1.0
C      1  0.4350920000000  0.5177540000000  0.5322460000000 1.0
C      1  0.4301180000000  0.5195370000000  0.4686310000000 1.0
C      1  0.4825850000000  0.5130300000000  0.4280670000000 1.0
C      1  0.5470110000000  0.5145840000000  0.4358780000000 1.0
C      1  0.5787710000000  0.5141650000000  0.4950300000000 1.0
C      1  0.5491890000000  0.5144800000000  0.5564890000000 1.0
C      1  0.5532950000000  0.4464320000000  0.5294400000000 1.0
C      1  0.5100630000000  0.4437630000000  0.5608050000000 1.0
C      1  0.4588440000000  0.4454850000000  0.5460000000000 1.0
C      1  0.4398610000000  0.4463370000000  0.4950680000000 1.0
C      1  0.4672870000000  0.4463750000000  0.4497570000000 1.0
C      1  0.5188590000000  0.4460540000000  0.4412430000000 1.0
C      1  0.5579610000000  0.4447280000000  0.4777550000000 1.0
C      1  0.4606740000000  0.5784720000000  0.5121460000000 1.0
C      1  0.4622850000000  0.5743880000000  0.4759180000000 1.0
C      1  0.4938080000000  0.5748680000000  0.4577430000000 1.0
C      1  0.5283900000000  0.5774530000000  0.4679930000000 1.0
C      1  0.5334770000000  0.5790040000000  0.5038380000000 1.0
C      1  0.5187130000000  0.5781470000000  0.5368420000000 1.0
C      1  0.4852940000000  0.5781350000000  0.5386430000000 1.0
C      1  0.4470160000000  0.5136540000000  0.5904050000000 1.0
C      1  0.3987280000000  0.5175920000000  0.5113390000000 1.0
C      1  0.4263140000000  0.5159920000000  0.4269870000000 1.0
C      1  0.5103910000000  0.5151060000000  0.3955700000000 1.0
C      1  0.5883470000000  0.5166040000000  0.4426480000000 1.0
C      1  0.5986680000000  0.5175160000000  0.5318220000000 1.0
C      1  0.5368010000000  0.5153370000000  0.5965910000000 1.0
C      1  0.4839300000000  0.4526090000000  0.4735920000000 1.0
C      1  0.5121310000000  0.4580980000000  0.4688320000000 1.0
C      1  0.5307050000000  0.4500060000000  0.4886230000000 1.0
C      1  0.5274980000000  0.4566680000000  0.5161890000000 1.0
C      1  0.5049110000000  0.4489820000000  0.5321440000000 1.0
C      1  0.4782900000000  0.4547760000000  0.5250420000000 1.0
C      1  0.4689500000000  0.4508360000000  0.4978080000000 1.0
C      1  0.5224710000000  0.4109070000000  0.5312960000000 1.0
C      1  0.4884060000000  0.4106330000000  0.5361250000000 1.0
C      1  0.4649020000000  0.4121900000000  0.5136050000000 1.0
C      1  0.4682990000000  0.4127980000000  0.4801280000000 1.0
C      1  0.4956540000000  0.4138470000000  0.4624960000000 1.0
C      1  0.5266380000000  0.4117310000000  0.4720010000000 1.0
C      1  0.5388630000000  0.4115580000000  0.5033030000000 1.0
C      1  0.4883740000000  0.5502720000000  0.4980340000000 1.0
C      1  0.5004920000000  0.5755600000000  0.4991760000000 1.0
C      1  0.4980580000000  0.4818900000000  0.5001740000000 1.0
END
