TITL C-862507-1800-283 -5.84393456515843e-05 125000 -251.485928159222 0 0 50 (C3) n - 1
REM
REM in /home/nfs/bkarasulu/CARBON/AIRSS/Generating-Clusters/TERSOFF/Higher-Symm/FIRE-HFTN
REM
REM
REM
REM
REM
REM ./C.cell (b20cbc046b6831c77cfcea5457e17084)
REM AIRSS Version 0.9.1 bugfix July 2018 build 013d7b7c2542+ Fri, 06 Jul 2018 19:26:36 +0100
REM compiler GCC version 9.2.1 20190827 (Red Hat 9.2.1-1)
REM options -cpp -mtune=generic -march=x86-64 -g -O0 -fpre-include=/usr/include/finclude/math-vector-fortran.h
REM seed 2130609789 1568960180 -324349625 996136266 1429751361 -1717145265 1850864909 -1962973848 -1874911757 1080056787 -1918848308 -1624656138 -1651953992 -176315134 -69662260 -1626528423 -1764016779 1281618039 173164889 1269263555 -1764155738 596128771 1777383363 1698150236 2060735769 2083675011 -107193742 -1169725739 -1545591197 -1900178229 -1848885550 -1868784492 979238241
REM
CELL 1.54180   50.00000   50.00000   50.00000   90.00000   90.00000   90.00000
LATT -1
SFAC C  
C      1  0.5022530000000  0.5182330000000  0.4643210000000 1.0
C      1  0.5022530000000  0.4599970000000  0.5031070000000 1.0
C      1  0.5022530000000  0.5227060000000  0.5341480000000 1.0
C      1  0.5615210000000  0.4915330000000  0.4703020000000 1.0
C      1  0.5615210000000  0.4785270000000  0.5232400000000 1.0
C      1  0.5615210000000  0.5308760000000  0.5080340000000 1.0
C      1  0.4456960000000  0.4824830000000  0.4514920000000 1.0
C      1  0.4456960000000  0.4667630000000  0.5404820000000 1.0
C      1  0.4456960000000  0.5516910000000  0.5096010000000 1.0
C      1  0.4738080000000  0.4576810000000  0.4831480000000 1.0
C      1  0.4738080000000  0.5065790000000  0.5461340000000 1.0
C      1  0.4738080000000  0.5366770000000  0.4722940000000 1.0
C      1  0.4468150000000  0.4946190000000  0.5308870000000 1.0
C      1  0.4468150000000  0.5294530000000  0.4902750000000 1.0
C      1  0.4468150000000  0.4768650000000  0.4804140000000 1.0
C      1  0.5371900000000  0.4659950000000  0.5380960000000 1.0
C      1  0.5371900000000  0.5500080000000  0.5114600000000 1.0
C      1  0.5371900000000  0.4849340000000  0.4520200000000 1.0
C      1  0.5243070000000  0.4753070000000  0.4808950000000 1.0
C      1  0.5243070000000  0.4958140000000  0.5319960000000 1.0
C      1  0.5243060000000  0.5298160000000  0.4886850000000 1.0
C      1  0.4859620000000  0.4916460000000  0.4781230000000 1.0
C      1  0.4859620000000  0.4852440000000  0.5192320000000 1.0
C      1  0.4859620000000  0.5240470000000  0.5042210000000 1.0
C      1  0.5009810000000  0.5570150000000  0.4833590000000 1.0
C      1  0.5009820000000  0.4570940000000  0.4600020000000 1.0
C      1  0.5009820000000  0.4868270000000  0.5582150000000 1.0
C      1  0.5380810000000  0.5342850000000  0.4494170000000 1.0
C      1  0.5380810000000  0.4390650000000  0.4966580000000 1.0
C      1  0.5380810000000  0.5275870000000  0.5555010000000 1.0
C      1  0.4953550000000  0.5625930000000  0.5177540000000 1.0
C      1  0.4953550000000  0.4840920000000  0.4379740000000 1.0
C      1  0.4953550000000  0.4542510000000  0.5458480000000 1.0
C      1  0.5216260000000  0.5082310000000  0.5720120000000 1.0
C      1  0.5216260000000  0.5582620000000  0.4579240000000 1.0
C      1  0.5216260000000  0.4344430000000  0.4716400000000 1.0
C      1  0.5200090000000  0.5506670000000  0.5374510000000 1.0
C      1  0.5200090000000  0.5071140000000  0.4384540000000 1.0
C      1  0.5200100000000  0.4431560000000  0.5256710000000 1.0
C      1  0.4664760000000  0.5369360000000  0.5508690000000 1.0
C      1  0.4664760000000  0.5256000000000  0.4436360000000 1.0
C      1  0.4664760000000  0.4384010000000  0.5070700000000 1.0
C      1  0.4674210000000  0.4480640000000  0.5347570000000 1.0
C      1  0.4674210000000  0.5560820000000  0.5286570000000 1.0
C      1  0.4674210000000  0.4967910000000  0.4381610000000 1.0
C      1  0.5568990000000  0.5211460000000  0.4760060000000 1.0
C      1  0.5568990000000  0.4686620000000  0.4947430000000 1.0
C      1  0.5568990000000  0.5111300000000  0.5308270000000 1.0
C      1  0.5127030000000  0.5003120000000  0.5005250000000 1.0
C      1  0.4435000000000  0.5003120000000  0.5005250000000 1.0
END
