TITL C-862507-1800-298 8.32083589848883e-06 125000 -569.945288929687 0 0 107 (T23) n - 1
REM
REM in /home/nfs/bkarasulu/CARBON/AIRSS/Generating-Clusters/TERSOFF/Higher-Symm/FIRE-HFTN
REM
REM
REM
REM
REM
REM ./C.cell (b20cbc046b6831c77cfcea5457e17084)
REM AIRSS Version 0.9.1 bugfix July 2018 build 013d7b7c2542+ Fri, 06 Jul 2018 19:26:36 +0100
REM compiler GCC version 9.2.1 20190827 (Red Hat 9.2.1-1)
REM options -cpp -mtune=generic -march=x86-64 -g -O0 -fpre-include=/usr/include/finclude/math-vector-fortran.h
REM seed 705971169 197966621 961278766 1484620084 -984738395 1745760408 1913207950 -1672002859 1524082924 -1542788938 -1779886781 -1623617152 -412542952 -270020490 -1801362260 283659485 2054284975 -600826093 -1663857165 679445203 475618918 -2082586900 -1499295553 -1434458837 51049992 828699057 291608537 -225118869 -2087571527 -589552328 -1953091686 -844081566 -427755029
REM
CELL 1.54180   50.00000   50.00000   50.00000   90.00000   90.00000   90.00000
LATT -1
SFAC C  
C      1  0.5054170000000  0.4469590000000  0.5810720000000 1.0
C      1  0.4475320000000  0.5804700000000  0.5054450000000 1.0
C      1  0.5810440000000  0.5048440000000  0.4475600000000 1.0
C      1  0.4954140000000  0.5527260000000  0.5810720000000 1.0
C      1  0.5054170000000  0.5527260000000  0.4198160000000 1.0
C      1  0.4954150000000  0.4469590000000  0.4198160000000 1.0
C      1  0.5532990000000  0.4192140000000  0.5054450000000 1.0
C      1  0.4475320000000  0.4192140000000  0.4954420000000 1.0
C      1  0.5532990000000  0.5804710000000  0.4954430000000 1.0
C      1  0.4197880000000  0.4948410000000  0.4475600000000 1.0
C      1  0.5810440000000  0.4948410000000  0.5533270000000 1.0
C      1  0.4197880000000  0.5048440000000  0.5533270000000 1.0
C      1  0.5352060000000  0.5003300000000  0.5467420000000 1.0
C      1  0.5009040000000  0.5461400000000  0.5352340000000 1.0
C      1  0.5467140000000  0.5346330000000  0.5009320000000 1.0
C      1  0.4656250000000  0.4993540000000  0.5467420000000 1.0
C      1  0.5352060000000  0.4993540000000  0.4541460000000 1.0
C      1  0.4656250000000  0.5003300000000  0.4541460000000 1.0
C      1  0.4999280000000  0.4535440000000  0.5352340000000 1.0
C      1  0.5009040000000  0.4535450000000  0.4656530000000 1.0
C      1  0.4999280000000  0.5461400000000  0.4656530000000 1.0
C      1  0.4541180000000  0.4650520000000  0.5009320000000 1.0
C      1  0.5467140000000  0.4650520000000  0.4999560000000 1.0
C      1  0.4541180000000  0.5346330000000  0.4999560000000 1.0
C      1  0.4129530000000  0.5358250000000  0.5067020000000 1.0
C      1  0.5363980000000  0.5061000000000  0.4129810000000 1.0
C      1  0.5066740000000  0.4123800000000  0.5364260000000 1.0
C      1  0.5878780000000  0.4638600000000  0.5067020000000 1.0
C      1  0.4129530000000  0.4638600000000  0.4941860000000 1.0
C      1  0.5878780000000  0.5358250000000  0.4941860000000 1.0
C      1  0.4644330000000  0.4935840000000  0.4129810000000 1.0
C      1  0.5363980000000  0.4935840000000  0.5879060000000 1.0
C      1  0.4644330000000  0.5061000000000  0.5879060000000 1.0
C      1  0.4941580000000  0.5873050000000  0.5364260000000 1.0
C      1  0.5066740000000  0.5873050000000  0.4644610000000 1.0
C      1  0.4941580000000  0.4123800000000  0.4644610000000 1.0
C      1  0.4595780000000  0.5248780000000  0.4310670000000 1.0
C      1  0.5254520000000  0.4304650000000  0.4596060000000 1.0
C      1  0.4310390000000  0.4590040000000  0.5254790000000 1.0
C      1  0.5412540000000  0.4748070000000  0.4310670000000 1.0
C      1  0.4595780000000  0.4748070000000  0.5698210000000 1.0
C      1  0.5412540000000  0.5248780000000  0.5698210000000 1.0
C      1  0.4753800000000  0.5692190000000  0.4596060000000 1.0
C      1  0.5254510000000  0.5692190000000  0.5412820000000 1.0
C      1  0.4753800000000  0.4304650000000  0.5412820000000 1.0
C      1  0.5697930000000  0.5406810000000  0.5254800000000 1.0
C      1  0.4310390000000  0.5406810000000  0.4754080000000 1.0
C      1  0.5697930000000  0.4590040000000  0.4754080000000 1.0
C      1  0.4482070000000  0.4308780000000  0.5246920000000 1.0
C      1  0.4314510000000  0.5240910000000  0.4482350000000 1.0
C      1  0.5246650000000  0.4476340000000  0.4314790000000 1.0
C      1  0.5526240000000  0.5688070000000  0.5246930000000 1.0
C      1  0.4482070000000  0.5688070000000  0.4761950000000 1.0
C      1  0.5526250000000  0.4308780000000  0.4761950000000 1.0
C      1  0.5693800000000  0.4755940000000  0.4482350000000 1.0
C      1  0.4314510000000  0.4755940000000  0.5526520000000 1.0
C      1  0.5693800000000  0.5240910000000  0.5526520000000 1.0
C      1  0.4761670000000  0.5520510000000  0.4314790000000 1.0
C      1  0.5246640000000  0.5520510000000  0.5694080000000 1.0
C      1  0.4761670000000  0.4476340000000  0.5694080000000 1.0
C      1  0.5520880000000  0.5001350000000  0.4775900000000 1.0
C      1  0.5007090000000  0.4769880000000  0.5521160000000 1.0
C      1  0.4775620000000  0.5515140000000  0.5007370000000 1.0
C      1  0.4487440000000  0.4995490000000  0.4775900000000 1.0
C      1  0.5520880000000  0.4995490000000  0.5232980000000 1.0
C      1  0.4487440000000  0.5001350000000  0.5232980000000 1.0
C      1  0.5001230000000  0.5226960000000  0.5521160000000 1.0
C      1  0.5007090000000  0.5226960000000  0.4487720000000 1.0
C      1  0.5001230000000  0.4769880000000  0.4487720000000 1.0
C      1  0.5232700000000  0.4481700000000  0.5007370000000 1.0
C      1  0.4775620000000  0.4481700000000  0.5001510000000 1.0
C      1  0.5232700000000  0.5515140000000  0.5001510000000 1.0
C      1  0.5552980000000  0.4773830000000  0.5635470000000 1.0
C      1  0.4779560000000  0.5629460000000  0.5553260000000 1.0
C      1  0.5635190000000  0.5547250000000  0.4779840000000 1.0
C      1  0.4455330000000  0.5223020000000  0.5635470000000 1.0
C      1  0.5552980000000  0.5223020000000  0.4373400000000 1.0
C      1  0.4455330000000  0.4773830000000  0.4373400000000 1.0
C      1  0.5228760000000  0.4367390000000  0.5553260000000 1.0
C      1  0.4779560000000  0.4367390000000  0.4455610000000 1.0
C      1  0.5228760000000  0.5629460000000  0.4455610000000 1.0
C      1  0.4373130000000  0.4449600000000  0.4779840000000 1.0
C      1  0.5635190000000  0.4449600000000  0.5229040000000 1.0
C      1  0.4373120000000  0.5547250000000  0.5229040000000 1.0
C      1  0.5104000000000  0.5217930000000  0.4194510000000 1.0
C      1  0.5223670000000  0.4188500000000  0.5104280000000 1.0
C      1  0.4194230000000  0.5098260000000  0.5223950000000 1.0
C      1  0.4904320000000  0.4778910000000  0.4194510000000 1.0
C      1  0.5104000000000  0.4778910000000  0.5814370000000 1.0
C      1  0.4904320000000  0.5217930000000  0.5814370000000 1.0
C      1  0.4784650000000  0.5808350000000  0.5104280000000 1.0
C      1  0.5223670000000  0.5808350000000  0.4904600000000 1.0
C      1  0.4784650000000  0.4188500000000  0.4904600000000 1.0
C      1  0.5814090000000  0.4898580000000  0.5223950000000 1.0
C      1  0.4194230000000  0.4898580000000  0.4784930000000 1.0
C      1  0.5814090000000  0.5098260000000  0.4784930000000 1.0
C      1  0.5355040000000  0.4998420000000  0.5004440000000 1.0
C      1  0.4653270000000  0.4998420000000  0.5004440000000 1.0
C      1  0.5004160000000  0.4647540000000  0.5004440000000 1.0
C      1  0.5004160000000  0.5349310000000  0.5004440000000 1.0
C      1  0.5004160000000  0.4998420000000  0.5355320000000 1.0
C      1  0.5004160000000  0.4998420000000  0.4653550000000 1.0
C      1  0.5506450000000  0.5500710000000  0.4502150000000 1.0
C      1  0.5506450000000  0.4496130000000  0.5506730000000 1.0
C      1  0.4501870000000  0.5500710000000  0.5506730000000 1.0
C      1  0.4501870000000  0.4496130000000  0.4502150000000 1.0
C      1  0.5004160000000  0.4998420000000  0.5004440000000 1.0
END
