TITL C-862129-6180-937 0.00174401280253992 125000 -897.565161349522 0 0 151 (C1) n - 1
REM
REM in /home/nfs/bkarasulu/CARBON/AIRSS/Generating-Clusters/TERSOFF/Higher-Symm/FIRE-HFTN
REM
REM
REM
REM
REM
REM ./C.cell (b20cbc046b6831c77cfcea5457e17084)
REM AIRSS Version 0.9.1 bugfix July 2018 build 013d7b7c2542+ Fri, 06 Jul 2018 19:26:36 +0100
REM compiler GCC version 9.2.1 20190827 (Red Hat 9.2.1-1)
REM options -cpp -mtune=generic -march=x86-64 -g -O0 -fpre-include=/usr/include/finclude/math-vector-fortran.h
REM seed 1219089306 -170281421 -1141590126 583473319 1576245608 -360904602 1361629074 -1927319064 -506246768 -429205528 -1918008017 1618970229 -1745328391 1486643091 771463179 959743907 1995948837 -743097420 2064056673 -726391057 -109242089 1495411916 965913115 1337614290 1908376947 -290072875 -1610133237 -1393115618 286222822 24889055 1615551321 513444133 1626187435
REM
CELL 1.54180   50.00000   50.00000   50.00000   90.00000   90.00000   90.00000
LATT -1
SFAC C  
C      1  0.5707380000000  0.4734960000000  0.5773570000000 1.0
C      1  0.4401990000000  0.4729620000000  0.5949490000000 1.0
C      1  0.3936850000000  0.4742470000000  0.4797170000000 1.0
C      1  0.4862560000000  0.4734420000000  0.3985390000000 1.0
C      1  0.6044860000000  0.4743710000000  0.4550510000000 1.0
C      1  0.5719400000000  0.5247350000000  0.5854140000000 1.0
C      1  0.4451320000000  0.5242910000000  0.5944450000000 1.0
C      1  0.3914200000000  0.5255320000000  0.4759770000000 1.0
C      1  0.4871250000000  0.5248530000000  0.3927860000000 1.0
C      1  0.5993330000000  0.5260920000000  0.4535350000000 1.0
C      1  0.5766290000000  0.5639830000000  0.5377730000000 1.0
C      1  0.4872350000000  0.5643470000000  0.5828710000000 1.0
C      1  0.4168420000000  0.5642110000000  0.5128820000000 1.0
C      1  0.4625680000000  0.5631370000000  0.4231260000000 1.0
C      1  0.5617360000000  0.5629190000000  0.4386490000000 1.0
C      1  0.5758880000000  0.4390340000000  0.5382710000000 1.0
C      1  0.4861220000000  0.4324060000000  0.5839460000000 1.0
C      1  0.4139970000000  0.4321420000000  0.5134900000000 1.0
C      1  0.4617760000000  0.4379340000000  0.4254380000000 1.0
C      1  0.5604280000000  0.4372170000000  0.4395640000000 1.0
C      1  0.4484750000000  0.5733340000000  0.5504890000000 1.0
C      1  0.4361190000000  0.5737530000000  0.4651510000000 1.0
C      1  0.5139830000000  0.5733070000000  0.4268030000000 1.0
C      1  0.5728190000000  0.5732540000000  0.4885200000000 1.0
C      1  0.5332400000000  0.5721740000000  0.5649440000000 1.0
C      1  0.4447350000000  0.4229520000000  0.5531480000000 1.0
C      1  0.4346530000000  0.4246670000000  0.4657440000000 1.0
C      1  0.5124870000000  0.4281830000000  0.4292350000000 1.0
C      1  0.5727880000000  0.4286470000000  0.4890990000000 1.0
C      1  0.5321800000000  0.4277020000000  0.5629370000000 1.0
C      1  0.5158150000000  0.5149090000000  0.3942920000000 1.0
C      1  0.6044770000000  0.5165410000000  0.4819040000000 1.0
C      1  0.5449320000000  0.5136790000000  0.5922820000000 1.0
C      1  0.4243650000000  0.5156850000000  0.5739750000000 1.0
C      1  0.4052900000000  0.5147680000000  0.4516720000000 1.0
C      1  0.5149510000000  0.4831320000000  0.3963030000000 1.0
C      1  0.6064050000000  0.4855010000000  0.4828340000000 1.0
C      1  0.5440800000000  0.4833730000000  0.5878470000000 1.0
C      1  0.4209070000000  0.4835590000000  0.5747390000000 1.0
C      1  0.4065520000000  0.4832910000000  0.4537210000000 1.0
C      1  0.5435890000000  0.5161660000000  0.4353900000000 1.0
C      1  0.5747110000000  0.5170210000000  0.5209770000000 1.0
C      1  0.4997080000000  0.5167560000000  0.5738980000000 1.0
C      1  0.4324710000000  0.5144150000000  0.5250170000000 1.0
C      1  0.4541850000000  0.5158100000000  0.4452340000000 1.0
C      1  0.5434190000000  0.4842080000000  0.4361930000000 1.0
C      1  0.5748250000000  0.4849530000000  0.5206970000000 1.0
C      1  0.4979380000000  0.4843360000000  0.5678070000000 1.0
C      1  0.4295210000000  0.4820780000000  0.5266990000000 1.0
C      1  0.4555420000000  0.4853420000000  0.4498620000000 1.0
C      1  0.4572660000000  0.4719880000000  0.5215750000000 1.0
C      1  0.4702970000000  0.4790000000000  0.4771400000000 1.0
C      1  0.5216840000000  0.4830360000000  0.4602050000000 1.0
C      1  0.5458900000000  0.4834650000000  0.5068470000000 1.0
C      1  0.5027600000000  0.4874560000000  0.5341570000000 1.0
C      1  0.4614720000000  0.5209350000000  0.5166870000000 1.0
C      1  0.4699710000000  0.5269060000000  0.4669370000000 1.0
C      1  0.5223350000000  0.5189970000000  0.4594060000000 1.0
C      1  0.5457300000000  0.5183390000000  0.5072620000000 1.0
C      1  0.5060080000000  0.5194220000000  0.5428150000000 1.0
C      1  0.5237050000000  0.5598270000000  0.4856410000000 1.0
C      1  0.5217680000000  0.5598910000000  0.5155280000000 1.0
C      1  0.4928580000000  0.5612350000000  0.5231330000000 1.0
C      1  0.4767450000000  0.5625160000000  0.4983500000000 1.0
C      1  0.4956950000000  0.5617180000000  0.4750880000000 1.0
C      1  0.5224010000000  0.4413730000000  0.4858680000000 1.0
C      1  0.5202850000000  0.4415910000000  0.5159840000000 1.0
C      1  0.4921800000000  0.4366600000000  0.5250220000000 1.0
C      1  0.4762170000000  0.4349900000000  0.4998380000000 1.0
C      1  0.4941270000000  0.4396150000000  0.4756870000000 1.0
C      1  0.5147220000000  0.4406850000000  0.5824620000000 1.0
C      1  0.4206370000000  0.4378190000000  0.5422790000000 1.0
C      1  0.4371080000000  0.4416520000000  0.4415680000000 1.0
C      1  0.5372860000000  0.4413230000000  0.4211640000000 1.0
C      1  0.5870910000000  0.4423690000000  0.5107130000000 1.0
C      1  0.5163320000000  0.5587270000000  0.5850320000000 1.0
C      1  0.4245100000000  0.5589130000000  0.5412430000000 1.0
C      1  0.4376060000000  0.5585870000000  0.4396960000000 1.0
C      1  0.5386980000000  0.5589090000000  0.4198610000000 1.0
C      1  0.5872550000000  0.5597460000000  0.5100120000000 1.0
C      1  0.5745510000000  0.5115480000000  0.4428350000000 1.0
C      1  0.5777260000000  0.5208110000000  0.5548100000000 1.0
C      1  0.4710180000000  0.5103040000000  0.5868070000000 1.0
C      1  0.4097080000000  0.5192590000000  0.5005620000000 1.0
C      1  0.4748700000000  0.5178700000000  0.4202700000000 1.0
C      1  0.5757180000000  0.4798560000000  0.4441440000000 1.0
C      1  0.5777490000000  0.4891300000000  0.5521750000000 1.0
C      1  0.4685600000000  0.4791850000000  0.5832460000000 1.0
C      1  0.4093530000000  0.4879010000000  0.5021460000000 1.0
C      1  0.4762110000000  0.4867250000000  0.4244630000000 1.0
C      1  0.4357800000000  0.4851480000000  0.6217070000000 1.0
C      1  0.3654550000000  0.4840310000000  0.4808410000000 1.0
C      1  0.4705970000000  0.4823730000000  0.3748670000000 1.0
C      1  0.6248280000000  0.4874640000000  0.4374670000000 1.0
C      1  0.5917450000000  0.4810330000000  0.5975530000000 1.0
C      1  0.4374380000000  0.5143660000000  0.6215690000000 1.0
C      1  0.3644500000000  0.5132490000000  0.4791310000000 1.0
C      1  0.4717860000000  0.5113310000000  0.3711650000000 1.0
C      1  0.6223510000000  0.5167020000000  0.4366290000000 1.0
C      1  0.5926030000000  0.5101450000000  0.6015050000000 1.0
C      1  0.5353820000000  0.4698190000000  0.4127400000000 1.0
C      1  0.5954440000000  0.4708740000000  0.5064570000000 1.0
C      1  0.5186670000000  0.4697210000000  0.5817830000000 1.0
C      1  0.4175860000000  0.4683320000000  0.5491360000000 1.0
C      1  0.4316260000000  0.4704850000000  0.4453230000000 1.0
C      1  0.5363120000000  0.5299240000000  0.4110270000000 1.0
C      1  0.5944220000000  0.5311200000000  0.5056420000000 1.0
C      1  0.5201340000000  0.5293660000000  0.5897220000000 1.0
C      1  0.4235650000000  0.5294940000000  0.5478140000000 1.0
C      1  0.4291180000000  0.5291240000000  0.4407440000000 1.0
C      1  0.4858130000000  0.4141680000000  0.4603560000000 1.0
C      1  0.5333570000000  0.4154490000000  0.4741930000000 1.0
C      1  0.5362320000000  0.4159810000000  0.5217550000000 1.0
C      1  0.4914170000000  0.4095480000000  0.5396240000000 1.0
C      1  0.4614370000000  0.4074440000000  0.5024830000000 1.0
C      1  0.4873400000000  0.5876110000000  0.4606010000000 1.0
C      1  0.5343760000000  0.5857900000000  0.4732630000000 1.0
C      1  0.5364450000000  0.5857650000000  0.5224220000000 1.0
C      1  0.4908240000000  0.5869060000000  0.5394930000000 1.0
C      1  0.4610050000000  0.5886350000000  0.5014570000000 1.0
C      1  0.5203800000000  0.5953560000000  0.5478520000000 1.0
C      1  0.4612100000000  0.5959410000000  0.5326380000000 1.0
C      1  0.4579220000000  0.5956500000000  0.4708620000000 1.0
C      1  0.5157300000000  0.5952350000000  0.4492630000000 1.0
C      1  0.5525570000000  0.5959470000000  0.4968760000000 1.0
C      1  0.5217520000000  0.4032240000000  0.5464960000000 1.0
C      1  0.4605950000000  0.4023980000000  0.5348040000000 1.0
C      1  0.4576440000000  0.4045770000000  0.4712360000000 1.0
C      1  0.5145790000000  0.4052800000000  0.4507450000000 1.0
C      1  0.5526480000000  0.4059010000000  0.4970000000000 1.0
C      1  0.4585270000000  0.5388280000000  0.4926280000000 1.0
C      1  0.4953530000000  0.5371750000000  0.4566370000000 1.0
C      1  0.5402460000000  0.5337990000000  0.4794750000000 1.0
C      1  0.5317980000000  0.5340790000000  0.5300540000000 1.0
C      1  0.4812040000000  0.5365850000000  0.5372680000000 1.0
C      1  0.4557860000000  0.4561090000000  0.4963910000000 1.0
C      1  0.4939110000000  0.4668000000000  0.4592960000000 1.0
C      1  0.5398660000000  0.4676140000000  0.4796540000000 1.0
C      1  0.5293870000000  0.4691800000000  0.5274660000000 1.0
C      1  0.4755250000000  0.4562510000000  0.5410680000000 1.0
C      1  0.4891130000000  0.4465720000000  0.4338700000000 1.0
C      1  0.5615490000000  0.4466390000000  0.4679760000000 1.0
C      1  0.5482120000000  0.4474630000000  0.5467900000000 1.0
C      1  0.4653410000000  0.4415940000000  0.5648120000000 1.0
C      1  0.4303990000000  0.4413550000000  0.4904130000000 1.0
C      1  0.4905500000000  0.5552200000000  0.4314780000000 1.0
C      1  0.5619620000000  0.5546510000000  0.4675540000000 1.0
C      1  0.5498540000000  0.5541770000000  0.5476780000000 1.0
C      1  0.4698010000000  0.5552040000000  0.5604980000000 1.0
C      1  0.4329030000000  0.5559460000000  0.4892300000000 1.0
C      1  0.4765490000000  0.4937290000000  0.5100430000000 1.0
END
