TITL C-862128-1543-957 -0.000463720903431639 125000 -488.395932000102 0 0 92 (C1) n - 1
REM
REM in /home/nfs/bkarasulu/CARBON/AIRSS/Generating-Clusters/TERSOFF/Higher-Symm/FIRE-HFTN
REM
REM
REM
REM
REM
REM ./C.cell (b20cbc046b6831c77cfcea5457e17084)
REM AIRSS Version 0.9.1 bugfix July 2018 build 013d7b7c2542+ Fri, 06 Jul 2018 19:26:36 +0100
REM compiler GCC version 9.2.1 20190827 (Red Hat 9.2.1-1)
REM options -cpp -mtune=generic -march=x86-64 -g -O0 -fpre-include=/usr/include/finclude/math-vector-fortran.h
REM seed 1859345044 635320105 -1954984276 99027541 -1768860169 -960013728 1008663347 641474408 -1891031917 -828561422 1863109993 -869701806 858778466 -416235593 669479907 -712138431 -2091424530 -2058761878 -883880077 -815571678 1817505855 -265612329 -1003723655 -1100096763 -1873552241 -883371993 -2065548841 -1272848463 -1772026434 1353072038 1115092974 -1248984502 -887839023
REM
CELL 1.54180   50.00000   50.00000   50.00000   90.00000   90.00000   90.00000
LATT -1
SFAC C  
C      1  0.4586880000000  0.5246790000000  0.4949340000000 1.0
C      1  0.5004900000000  0.4525490000000  0.4963320000000 1.0
C      1  0.5428190000000  0.5248010000000  0.4950050000000 1.0
C      1  0.4943030000000  0.4450090000000  0.5464250000000 1.0
C      1  0.5530090000000  0.5246110000000  0.5441190000000 1.0
C      1  0.4568340000000  0.5332900000000  0.5462310000000 1.0
C      1  0.5147980000000  0.4083100000000  0.5067990000000 1.0
C      1  0.5743200000000  0.5597290000000  0.5043410000000 1.0
C      1  0.4133550000000  0.5340600000000  0.5056310000000 1.0
C      1  0.4831960000000  0.4790950000000  0.4958900000000 1.0
C      1  0.5279490000000  0.4967800000000  0.4956930000000 1.0
C      1  0.4904920000000  0.5253360000000  0.4950860000000 1.0
C      1  0.4700870000000  0.4145300000000  0.5163180000000 1.0
C      1  0.5912090000000  0.5172690000000  0.5148460000000 1.0
C      1  0.4411820000000  0.5695330000000  0.5166820000000 1.0
C      1  0.5534850000000  0.4344210000000  0.5220920000000 1.0
C      1  0.5311420000000  0.5790160000000  0.5209270000000 1.0
C      1  0.4151370000000  0.4885630000000  0.5197670000000 1.0
C      1  0.4608840000000  0.4389120000000  0.5344790000000 1.0
C      1  0.5739550000000  0.4980480000000  0.5336290000000 1.0
C      1  0.4668430000000  0.5641500000000  0.5350290000000 1.0
C      1  0.5561780000000  0.5526730000000  0.5564160000000 1.0
C      1  0.4282480000000  0.5240400000000  0.5553630000000 1.0
C      1  0.5170000000000  0.4270710000000  0.5575900000000 1.0
C      1  0.4505070000000  0.4551930000000  0.5113640000000 1.0
C      1  0.5637450000000  0.4809780000000  0.5113440000000 1.0
C      1  0.4860340000000  0.5642010000000  0.5120370000000 1.0
C      1  0.4709810000000  0.5285820000000  0.5738740000000 1.0
C      1  0.4870340000000  0.4587210000000  0.5734180000000 1.0
C      1  0.5490430000000  0.5108350000000  0.5713250000000 1.0
C      1  0.5011390000000  0.5944830000000  0.4794320000000 1.0
C      1  0.4172990000000  0.4544400000000  0.4783520000000 1.0
C      1  0.5819220000000  0.4517180000000  0.4796060000000 1.0
C      1  0.4778530000000  0.5767950000000  0.4854720000000 1.0
C      1  0.4440710000000  0.4417280000000  0.4845840000000 1.0
C      1  0.5783990000000  0.4810590000000  0.4845670000000 1.0
C      1  0.5158720000000  0.4101290000000  0.4777230000000 1.0
C      1  0.5706990000000  0.5585150000000  0.4753680000000 1.0
C      1  0.4148190000000  0.5326750000000  0.4764650000000 1.0
C      1  0.5296900000000  0.5032910000000  0.4233040000000 1.0
C      1  0.4826470000000  0.5242650000000  0.4231440000000 1.0
C      1  0.4881330000000  0.4729130000000  0.4234430000000 1.0
C      1  0.5037350000000  0.4572230000000  0.4452210000000 1.0
C      1  0.5352630000000  0.5244390000000  0.4452730000000 1.0
C      1  0.4614370000000  0.5184030000000  0.4449540000000 1.0
C      1  0.4510160000000  0.4918660000000  0.4552390000000 1.0
C      1  0.5318660000000  0.4617110000000  0.4554160000000 1.0
C      1  0.5176830000000  0.5471500000000  0.4549770000000 1.0
C      1  0.5306760000000  0.5674070000000  0.5526520000000 1.0
C      1  0.4240910000000  0.4947510000000  0.5510630000000 1.0
C      1  0.5444570000000  0.4393560000000  0.5542870000000 1.0
C      1  0.4350620000000  0.5544260000000  0.4641570000000 1.0
C      1  0.4868800000000  0.4169500000000  0.4644400000000 1.0
C      1  0.5792790000000  0.5295440000000  0.4629990000000 1.0
C      1  0.4760600000000  0.4853750000000  0.5747430000000 1.0
C      1  0.5265190000000  0.4937720000000  0.5758710000000 1.0
C      1  0.4975780000000  0.5101960000000  0.5781280000000 1.0
C      1  0.4600880000000  0.4131580000000  0.4882660000000 1.0
C      1  0.5965530000000  0.5085690000000  0.4867670000000 1.0
C      1  0.4453690000000  0.5790100000000  0.4884570000000 1.0
C      1  0.4907930000000  0.5483100000000  0.4423510000000 1.0
C      1  0.4632750000000  0.4680970000000  0.4424750000000 1.0
C      1  0.5463290000000  0.4840510000000  0.4422390000000 1.0
C      1  0.5193150000000  0.5058320000000  0.4658510000000 1.0
C      1  0.4860720000000  0.5134140000000  0.4651810000000 1.0
C      1  0.4958870000000  0.4808090000000  0.4656440000000 1.0
C      1  0.4113500000000  0.5046580000000  0.4679960000000 1.0
C      1  0.5421650000000  0.4207450000000  0.4698160000000 1.0
C      1  0.5472950000000  0.5749800000000  0.4681460000000 1.0
C      1  0.4406440000000  0.5376730000000  0.5159030000000 1.0
C      1  0.4976480000000  0.4298820000000  0.5165760000000 1.0
C      1  0.5645660000000  0.5341380000000  0.5145850000000 1.0
C      1  0.4452570000000  0.4838480000000  0.5132670000000 1.0
C      1  0.5415320000000  0.4618820000000  0.5146390000000 1.0
C      1  0.5136570000000  0.5544970000000  0.5144280000000 1.0
C      1  0.5621610000000  0.4318500000000  0.4893920000000 1.0
C      1  0.5284160000000  0.5872080000000  0.4883090000000 1.0
C      1  0.4102030000000  0.4818490000000  0.4874690000000 1.0
C      1  0.5662150000000  0.4970060000000  0.4602420000000 1.0
C      1  0.4697010000000  0.5583710000000  0.4612410000000 1.0
C      1  0.4642750000000  0.4441690000000  0.4603600000000 1.0
C      1  0.5092090000000  0.5395230000000  0.5603800000000 1.0
C      1  0.4553760000000  0.4890340000000  0.5537280000000 1.0
C      1  0.5279470000000  0.4687190000000  0.5588980000000 1.0
C      1  0.5189720000000  0.5284300000000  0.5326680000000 1.0
C      1  0.4679340000000  0.5031520000000  0.5297590000000 1.0
C      1  0.5144640000000  0.4710450000000  0.5313550000000 1.0
C      1  0.4544360000000  0.4952340000000  0.4859260000000 1.0
C      1  0.5280390000000  0.4631410000000  0.4864330000000 1.0
C      1  0.5190000000000  0.5428320000000  0.4860660000000 1.0
C      1  0.5001610000000  0.5001170000000  0.4178910000000 1.0
C      1  0.5007760000000  0.5004480000000  0.5191460000000 1.0
END
