TITL C-862134-6730-721 -0.000145469830934418 125000 -122.880635448947 0 0 22 (C3) n - 1
REM
REM in /home/nfs/bkarasulu/CARBON/AIRSS/Generating-Clusters/TERSOFF/Higher-Symm/FIRE-HFTN
REM
REM
REM
REM
REM
REM ./C.cell (b20cbc046b6831c77cfcea5457e17084)
REM AIRSS Version 0.9.1 bugfix July 2018 build 013d7b7c2542+ Fri, 06 Jul 2018 19:26:36 +0100
REM compiler GCC version 9.2.1 20190827 (Red Hat 9.2.1-1)
REM options -cpp -mtune=generic -march=x86-64 -g -O0 -fpre-include=/usr/include/finclude/math-vector-fortran.h
REM seed 1100418552 -143765958 -1786962223 -994114880 -1105966672 716238759 2107179165 1061023221 -2076090673 67090782 -1576516724 1757229959 1265025505 -1201007525 1815744280 1598938667 1588522515 -1531100751 -1047805684 549819491 213167552 -1940098801 -746832057 -586408681 1568329722 -647584685 1948951400 954024544 -855822166 1702620718 1348292489 -2066898575 1391312189
REM
CELL 1.54180   50.00000   50.00000   50.00000   90.00000   90.00000   90.00000
LATT -1
SFAC C  
C      1  0.5253020000000  0.5386140000000  0.5306670000000 1.0
C      1  0.4605920000000  0.5386140000000  0.5066130000000 1.0
C      1  0.5137780000000  0.5386140000000  0.4625990000000 1.0
C      1  0.4715590000000  0.4534530000000  0.5000230000000 1.0
C      1  0.5140010000000  0.4534530000000  0.4753920000000 1.0
C      1  0.5141120000000  0.4534530000000  0.5244640000000 1.0
C      1  0.4783650000000  0.5220120000000  0.5243430000000 1.0
C      1  0.4895370000000  0.5220120000000  0.4691260000000 1.0
C      1  0.5317700000000  0.5220120000000  0.5064090000000 1.0
C      1  0.4640150000000  0.5015370000000  0.5401720000000 1.0
C      1  0.4830040000000  0.5015370000000  0.4487840000000 1.0
C      1  0.5526530000000  0.5015370000000  0.5109230000000 1.0
C      1  0.4661720000000  0.5384730000000  0.4784490000000 1.0
C      1  0.5353790000000  0.5384730000000  0.4815140000000 1.0
C      1  0.4981210000000  0.5384730000000  0.5399160000000 1.0
C      1  0.4736580000000  0.4747900000000  0.4546270000000 1.0
C      1  0.5522660000000  0.4747900000000  0.4999080000000 1.0
C      1  0.4737480000000  0.4747900000000  0.5453440000000 1.0
C      1  0.4851450000000  0.4573720000000  0.4745740000000 1.0
C      1  0.5292480000000  0.4573720000000  0.4998820000000 1.0
C      1  0.4852790000000  0.4573720000000  0.5254220000000 1.0
C      1  0.4998910000000  0.5130630000000  0.4999600000000 1.0
END
