TITL C-862502-1143-766 347737.076088146 125000 -847.673257607229 0 0 153 (C3) n - 1
REM
REM in /home/nfs/bkarasulu/CARBON/AIRSS/Generating-Clusters/TERSOFF/Higher-Symm/FIRE-HFTN
REM
REM
REM
REM
REM
REM ./C.cell (b20cbc046b6831c77cfcea5457e17084)
REM AIRSS Version 0.9.1 bugfix July 2018 build 013d7b7c2542+ Fri, 06 Jul 2018 19:26:36 +0100
REM compiler GCC version 9.2.1 20190827 (Red Hat 9.2.1-1)
REM options -cpp -mtune=generic -march=x86-64 -g -O0 -fpre-include=/usr/include/finclude/math-vector-fortran.h
REM seed -596302699 1529037705 1696658739 422546643 835370221 1086508075 1339607440 1951696355 -1471432035 496974431 1120324467 -1807455211 -1210280620 -781740397 1513005023 600893118 1768792883 -724582121 -1005085822 1172713869 442235721 1005062636 -1878450496 -389759865 1662619449 1170801271 323465913 -139864053 1764312120 176364920 -492146753 1058894438 1815889856
REM
CELL 1.54180   50.00000   50.00000   50.00000   90.00000   90.00000   90.00000
LATT -1
SFAC C  
C      1  0.4705540000000  0.4880230000000  0.5885530000000 1.0
C      1  0.5250950000000  0.4804850000000  0.5885530000000 1.0
C      1  0.5043520000000  0.5314900000000  0.5885520000000 1.0
C      1  0.4506060000000  0.4771030000000  0.5190710000000 1.0
C      1  0.5445250000000  0.4686710000000  0.5190700000000 1.0
C      1  0.5048690000000  0.5542230000000  0.5190700000000 1.0
C      1  0.5176870000000  0.5839490000000  0.4293750000000 1.0
C      1  0.4184550000000  0.4733440000000  0.4293760000000 1.0
C      1  0.5638570000000  0.4427080000000  0.4293750000000 1.0
C      1  0.4766520000000  0.5630660000000  0.4892480000000 1.0
C      1  0.4570580000000  0.4482460000000  0.4892480000000 1.0
C      1  0.5662900000000  0.4886880000000  0.4892480000000 1.0
C      1  0.4036680000000  0.4917250000000  0.5243770000000 1.0
C      1  0.5553330000000  0.4207100000000  0.5243770000000 1.0
C      1  0.5410000000000  0.5875630000000  0.5243760000000 1.0
C      1  0.5883060000000  0.5039430000000  0.4453810000000 1.0
C      1  0.4524320000000  0.5745070000000  0.4453800000000 1.0
C      1  0.4592600000000  0.4215520000000  0.4453810000000 1.0
C      1  0.5522010000000  0.5540580000000  0.5761450000000 1.0
C      1  0.4270840000000  0.5181780000000  0.5761450000000 1.0
C      1  0.5207160000000  0.4277620000000  0.5761460000000 1.0
C      1  0.4074380000000  0.5197000000000  0.4861590000000 1.0
C      1  0.5292200000000  0.4099880000000  0.4861590000000 1.0
C      1  0.5633420000000  0.5703120000000  0.4861580000000 1.0
C      1  0.4158830000000  0.5390150000000  0.5278210000000 1.0
C      1  0.5082700000000  0.4076440000000  0.5278220000000 1.0
C      1  0.5758460000000  0.5533380000000  0.5278200000000 1.0
C      1  0.4765990000000  0.4937170000000  0.5475460000000 1.0
C      1  0.5171410000000  0.4828740000000  0.5475460000000 1.0
C      1  0.5062600000000  0.5234060000000  0.5475450000000 1.0
C      1  0.4680070000000  0.5173900000000  0.4722930000000 1.0
C      1  0.5009400000000  0.4635980000000  0.4722940000000 1.0
C      1  0.5310540000000  0.5190180000000  0.4722950000000 1.0
C      1  0.4142250000000  0.5443970000000  0.4722950000000 1.0
C      1  0.5044380000000  0.4035170000000  0.4722950000000 1.0
C      1  0.5813380000000  0.5520860000000  0.4722940000000 1.0
C      1  0.5187450000000  0.4634190000000  0.4137580000000 1.0
C      1  0.5223070000000  0.5345250000000  0.4137580000000 1.0
C      1  0.4589460000000  0.5020580000000  0.4137580000000 1.0
C      1  0.4407450000000  0.4590080000000  0.4417790000000 1.0
C      1  0.5651280000000  0.4691790000000  0.4417790000000 1.0
C      1  0.4941270000000  0.5718140000000  0.4417790000000 1.0
C      1  0.4231840000000  0.4941540000000  0.4778240000000 1.0
C      1  0.5434700000000  0.4363970000000  0.4778230000000 1.0
C      1  0.5333460000000  0.5694490000000  0.4778220000000 1.0
C      1  0.5297490000000  0.5724580000000  0.5725240000000 1.0
C      1  0.4223760000000  0.4895330000000  0.5725240000000 1.0
C      1  0.5478770000000  0.4380080000000  0.5725250000000 1.0
C      1  0.5306660000000  0.5187880000000  0.6044280000000 1.0
C      1  0.4683960000000  0.5171650000000  0.6044280000000 1.0
C      1  0.5009370000000  0.4640450000000  0.6044280000000 1.0
C      1  0.4775190000000  0.3998310000000  0.4889890000000 1.0
C      1  0.5979880000000  0.5306150000000  0.4889890000000 1.0
C      1  0.4244930000000  0.5695540000000  0.4889890000000 1.0
C      1  0.5420550000000  0.4950200000000  0.5049600000000 1.0
C      1  0.4832850000000  0.5389130000000  0.5049620000000 1.0
C      1  0.4746590000000  0.4660670000000  0.5049620000000 1.0
C      1  0.5440610000000  0.5104400000000  0.4088620000000 1.0
C      1  0.4689280000000  0.5329400000000  0.4088610000000 1.0
C      1  0.4870090000000  0.4566230000000  0.4088620000000 1.0
C      1  0.3855800000000  0.4370870000000  0.5264500000000 1.0
C      1  0.6116940000000  0.4323660000000  0.5264490000000 1.0
C      1  0.5027270000000  0.6305470000000  0.5264500000000 1.0
C      1  0.4438280000000  0.4669920000000  0.4693660000000 1.0
C      1  0.5566720000000  0.4678570000000  0.4693660000000 1.0
C      1  0.4995010000000  0.5651510000000  0.4693650000000 1.0
C      1  0.4282140000000  0.5386160000000  0.4471240000000 1.0
C      1  0.5024510000000  0.4185230000000  0.4471240000000 1.0
C      1  0.5693350000000  0.5428610000000  0.4471240000000 1.0
C      1  0.3981130000000  0.4080420000000  0.4861930000000 1.0
C      1  0.6305810000000  0.4577430000000  0.4861920000000 1.0
C      1  0.4713050000000  0.6342160000000  0.4861940000000 1.0
C      1  0.5330400000000  0.4030750000000  0.5147030000000 1.0
C      1  0.5674190000000  0.5770760000000  0.5147030000000 1.0
C      1  0.3995410000000  0.5198480000000  0.5147030000000 1.0
C      1  0.5197400000000  0.5776860000000  0.5066700000000 1.0
C      1  0.4228510000000  0.4782510000000  0.5066710000000 1.0
C      1  0.5574090000000  0.4440610000000  0.5066700000000 1.0
C      1  0.3922740000000  0.4342130000000  0.4978600000000 1.0
C      1  0.6108360000000  0.4396000000000  0.4978590000000 1.0
C      1  0.4968910000000  0.6261880000000  0.4978600000000 1.0
C      1  0.5663960000000  0.4268230000000  0.5514730000000 1.0
C      1  0.5301760000000  0.5940880000000  0.5514730000000 1.0
C      1  0.4034300000000  0.4790880000000  0.5514730000000 1.0
C      1  0.4506330000000  0.6148890000000  0.4783830000000 1.0
C      1  0.4251870000000  0.3998020000000  0.4783820000000 1.0
C      1  0.6241790000000  0.4853100000000  0.4783820000000 1.0
C      1  0.4512650000000  0.5641520000000  0.4734000000000 1.0
C      1  0.4688110000000  0.4257180000000  0.4734000000000 1.0
C      1  0.5799230000000  0.5101310000000  0.4734000000000 1.0
C      1  0.4425130000000  0.5951560000000  0.5003080000000 1.0
C      1  0.4463360000000  0.4026360000000  0.5003070000000 1.0
C      1  0.6111500000000  0.5022080000000  0.5003070000000 1.0
C      1  0.5350780000000  0.5624000000000  0.4181400000000 1.0
C      1  0.4284210000000  0.4991790000000  0.4181400000000 1.0
C      1  0.5365000000000  0.4384220000000  0.4181400000000 1.0
C      1  0.5712400000000  0.4286130000000  0.4573420000000 1.0
C      1  0.5262020000000  0.5973900000000  0.4573420000000 1.0
C      1  0.4025580000000  0.4739970000000  0.4573430000000 1.0
C      1  0.4451550000000  0.4734820000000  0.5817950000000 1.0
C      1  0.5503880000000  0.4657610000000  0.5817950000000 1.0
C      1  0.5044580000000  0.5607570000000  0.5817950000000 1.0
C      1  0.4988240000000  0.4558310000000  0.5165260000000 1.0
C      1  0.5388370000000  0.5210650000000  0.5165260000000 1.0
C      1  0.4623380000000  0.5231040000000  0.5165250000000 1.0
C      1  0.4346750000000  0.4048550000000  0.4499430000000 1.0
C      1  0.6150580000000  0.4910000000000  0.4499430000000 1.0
C      1  0.4502640000000  0.6041460000000  0.4499440000000 1.0
C      1  0.4956830000000  0.4469960000000  0.4491680000000 1.0
C      1  0.5480600000000  0.5227650000000  0.4491680000000 1.0
C      1  0.4562560000000  0.5302420000000  0.4491670000000 1.0
C      1  0.5286330000000  0.5076000000000  0.5640630000000 1.0
C      1  0.4791010000000  0.5209950000000  0.5640620000000 1.0
C      1  0.4922660000000  0.4714010000000  0.5640630000000 1.0
C      1  0.4999740000000  0.4339400000000  0.5351100000000 1.0
C      1  0.5572200000000  0.5330070000000  0.5351080000000 1.0
C      1  0.4428050000000  0.5330510000000  0.5351090000000 1.0
C      1  0.5122590000000  0.4836500000000  0.4371690000000 1.0
C      1  0.5080290000000  0.5187930000000  0.4371690000000 1.0
C      1  0.4797100000000  0.4975580000000  0.4371680000000 1.0
C      1  0.4675640000000  0.5835100000000  0.5158990000000 1.0
C      1  0.4438970000000  0.4301530000000  0.5159000000000 1.0
C      1  0.5885390000000  0.4863370000000  0.5158990000000 1.0
C      1  0.4736730000000  0.4292600000000  0.4181140000000 1.0
C      1  0.5744250000000  0.5125720000000  0.4181150000000 1.0
C      1  0.4519000000000  0.5581720000000  0.4181130000000 1.0
C      1  0.4714570000000  0.4487610000000  0.6032510000000 1.0
C      1  0.5586450000000  0.5009010000000  0.6032490000000 1.0
C      1  0.4698980000000  0.5503380000000  0.6032510000000 1.0
C      1  0.4040990000000  0.4492290000000  0.5460550000000 1.0
C      1  0.5919190000000  0.4423320000000  0.5460550000000 1.0
C      1  0.5039830000000  0.6084390000000  0.5460550000000 1.0
C      1  0.4807320000000  0.5904250000000  0.5461160000000 1.0
C      1  0.4313250000000  0.4381000000000  0.5461160000000 1.0
C      1  0.5879440000000  0.4714750000000  0.5461150000000 1.0
C      1  0.5542990000000  0.5272490000000  0.5628980000000 1.0
C      1  0.4492530000000  0.5333990000000  0.5628970000000 1.0
C      1  0.4964490000000  0.4393500000000  0.5628990000000 1.0
C      1  0.4761820000000  0.5736180000000  0.5756810000000 1.0
C      1  0.4481540000000  0.4425630000000  0.5756820000000 1.0
C      1  0.5756640000000  0.4838180000000  0.5756810000000 1.0
C      1  0.4496430000000  0.5616840000000  0.5683110000000 1.0
C      1  0.4717590000000  0.4255450000000  0.5683130000000 1.0
C      1  0.5786000000000  0.5127690000000  0.5683100000000 1.0
C      1  0.4701570000000  0.4784960000000  0.3975270000000 1.0
C      1  0.5335440000000  0.4849080000000  0.3975280000000 1.0
C      1  0.4962980000000  0.5365980000000  0.3975270000000 1.0
C      1  0.5628870000000  0.5617970000000  0.4263380000000 1.0
C      1  0.4150390000000  0.5235640000000  0.4263390000000 1.0
C      1  0.5220730000000  0.4146390000000  0.4263390000000 1.0
C      1  0.4073160000000  0.4565720000000  0.4872390000000 1.0
C      1  0.5839510000000  0.4414460000000  0.4872390000000 1.0
C      1  0.5087330000000  0.6019810000000  0.4872390000000 1.0
END
