TITL C-862500-986-1379 -0.0255398647921861 125000 -487.383605027687 0 0 92 (C5) n - 1
REM
REM in /home/nfs/bkarasulu/CARBON/AIRSS/Generating-Clusters/TERSOFF/Higher-Symm/FIRE-HFTN
REM
REM
REM
REM
REM
REM ./C.cell (b20cbc046b6831c77cfcea5457e17084)
REM AIRSS Version 0.9.1 bugfix July 2018 build 013d7b7c2542+ Fri, 06 Jul 2018 19:26:36 +0100
REM compiler GCC version 9.2.1 20190827 (Red Hat 9.2.1-1)
REM options -cpp -mtune=generic -march=x86-64 -g -O0 -fpre-include=/usr/include/finclude/math-vector-fortran.h
REM seed 980693854 -1811531177 1618534295 448271141 -1340463466 -1239491249 2121148116 -931936600 -588417329 -2022499548 1797261383 1158517561 1603397057 1275383070 922450411 -362057566 -728061464 -1265707253 -645585700 -1970970851 -148560736 -1318813208 353599161 607465577 -768526289 -250733612 -1891393558 -182206613 -17391902 1237756414 425720770 139027296 -1331644031
REM
CELL 1.54180   50.00000   50.00000   50.00000   90.00000   90.00000   90.00000
LATT -1
SFAC C  
C      1  0.4683370000000  0.5446020000000  0.5496080000000 1.0
C      1  0.4683380000000  0.4666780000000  0.5569760000000 1.0
C      1  0.4683380000000  0.4355910000000  0.4851420000000 1.0
C      1  0.4683370000000  0.4943020000000  0.4333790000000 1.0
C      1  0.4683370000000  0.5616750000000  0.4732210000000 1.0
C      1  0.5491870000000  0.5453580000000  0.4942360000000 1.0
C      1  0.5491870000000  0.5195730000000  0.5405830000000 1.0
C      1  0.5491880000000  0.4675270000000  0.5303820000000 1.0
C      1  0.5491870000000  0.4611450000000  0.4777310000000 1.0
C      1  0.5491870000000  0.5092470000000  0.4553910000000 1.0
C      1  0.4470030000000  0.5711910000000  0.4938320000000 1.0
C      1  0.4470030000000  0.5279400000000  0.5650280000000 1.0
C      1  0.4470040000000  0.4468640000000  0.5458950000000 1.0
C      1  0.4470030000000  0.4400070000000  0.4628740000000 1.0
C      1  0.4470030000000  0.5168450000000  0.4306980000000 1.0
C      1  0.4269170000000  0.4622370000000  0.5273180000000 1.0
C      1  0.4269170000000  0.4624240000000  0.4717550000000 1.0
C      1  0.4269170000000  0.5153270000000  0.4547620000000 1.0
C      1  0.4269170000000  0.5478350000000  0.4998240000000 1.0
C      1  0.4269170000000  0.5150240000000  0.5446660000000 1.0
C      1  0.5173250000000  0.5944690000000  0.5200360000000 1.0
C      1  0.5173260000000  0.5102120000000  0.5952630000000 1.0
C      1  0.5173260000000  0.4126300000000  0.5383770000000 1.0
C      1  0.5173260000000  0.4365780000000  0.4279920000000 1.0
C      1  0.5173250000000  0.5489600000000  0.4166570000000 1.0
C      1  0.5013420000000  0.4670310000000  0.4529230000000 1.0
C      1  0.5013420000000  0.5346600000000  0.4533240000000 1.0
C      1  0.5013420000000  0.5551770000000  0.5177660000000 1.0
C      1  0.5013420000000  0.5002290000000  0.5571930000000 1.0
C      1  0.5013430000000  0.4457520000000  0.5171180000000 1.0
C      1  0.4968720000000  0.5039090000000  0.4159860000000 1.0
C      1  0.4968720000000  0.5811850000000  0.4769830000000 1.0
C      1  0.4968720000000  0.5470530000000  0.5693250000000 1.0
C      1  0.4968730000000  0.4486830000000  0.5654000000000 1.0
C      1  0.4968730000000  0.4220180000000  0.4706310000000 1.0
C      1  0.4708000000000  0.4879310000000  0.5275950000000 1.0
C      1  0.4708000000000  0.4701010000000  0.4962750000000 1.0
C      1  0.4707990000000  0.4943780000000  0.4696410000000 1.0
C      1  0.4707990000000  0.5272110000000  0.4844990000000 1.0
C      1  0.4707990000000  0.5232270000000  0.5203160000000 1.0
C      1  0.5422430000000  0.4514970000000  0.4433550000000 1.0
C      1  0.5422420000000  0.5389590000000  0.4355930000000 1.0
C      1  0.5422430000000  0.5733690000000  0.5163760000000 1.0
C      1  0.5422430000000  0.5071730000000  0.5740640000000 1.0
C      1  0.5422430000000  0.4318520000000  0.5289350000000 1.0
C      1  0.5732530000000  0.5065870000000  0.4740500000000 1.0
C      1  0.5732530000000  0.5267910000000  0.4974710000000 1.0
C      1  0.5732530000000  0.5107590000000  0.5239240000000 1.0
C      1  0.5732530000000  0.4806470000000  0.5168510000000 1.0
C      1  0.5732530000000  0.4780680000000  0.4860270000000 1.0
C      1  0.4396940000000  0.4887160000000  0.5356300000000 1.0
C      1  0.4396940000000  0.4627020000000  0.4995060000000 1.0
C      1  0.4396940000000  0.4890190000000  0.4636020000000 1.0
C      1  0.4396930000000  0.5312980000000  0.4775360000000 1.0
C      1  0.4396940000000  0.5311110000000  0.5220520000000 1.0
C      1  0.4920950000000  0.5189960000000  0.5796690000000 1.0
C      1  0.4920950000000  0.4301760000000  0.5419120000000 1.0
C      1  0.4920950000000  0.4386380000000  0.4457710000000 1.0
C      1  0.4920940000000  0.5326880000000  0.4241100000000 1.0
C      1  0.4920940000000  0.5823520000000  0.5068630000000 1.0
C      1  0.5311360000000  0.4252360000000  0.4659410000000 1.0
C      1  0.5311350000000  0.5093630000000  0.4175970000000 1.0
C      1  0.5311350000000  0.5813390000000  0.4826680000000 1.0
C      1  0.5311360000000  0.5416940000000  0.5712280000000 1.0
C      1  0.5311360000000  0.4452180000000  0.5608910000000 1.0
C      1  0.4587460000000  0.4679370000000  0.4236450000000 1.0
C      1  0.4587450000000  0.5627850000000  0.4451380000000 1.0
C      1  0.4587460000000  0.5716530000000  0.5419860000000 1.0
C      1  0.4587460000000  0.4822870000000  0.5803480000000 1.0
C      1  0.4587460000000  0.4181860000000  0.5072090000000 1.0
C      1  0.5186080000000  0.4699430000000  0.5179670000000 1.0
C      1  0.5186080000000  0.4737000000000  0.4761930000000 1.0
C      1  0.5186080000000  0.5145900000000  0.4668570000000 1.0
C      1  0.5186080000000  0.5361050000000  0.5028610000000 1.0
C      1  0.5186080000000  0.5085120000000  0.5344480000000 1.0
C      1  0.5464760000000  0.4745290000000  0.5621690000000 1.0
C      1  0.5464760000000  0.4330770000000  0.4942130000000 1.0
C      1  0.5464760000000  0.4848990000000  0.4337910000000 1.0
C      1  0.5464750000000  0.5583770000000  0.4644040000000 1.0
C      1  0.5464760000000  0.5519680000000  0.5437470000000 1.0
C      1  0.5058940000000  0.5628780000000  0.5452250000000 1.0
C      1  0.5058950000000  0.4764940000000  0.5730020000000 1.0
C      1  0.5058950000000  0.4233820000000  0.4994300000000 1.0
C      1  0.5058940000000  0.4769410000000  0.4261820000000 1.0
C      1  0.5058940000000  0.5631540000000  0.4544850000000 1.0
C      1  0.4631100000000  0.5414580000000  0.4261530000000 1.0
C      1  0.4631100000000  0.5831190000000  0.5158360000000 1.0
C      1  0.4631100000000  0.5106990000000  0.5831710000000 1.0
C      1  0.4631110000000  0.4242810000000  0.5351040000000 1.0
C      1  0.4631100000000  0.4432910000000  0.4380610000000 1.0
C      1  0.5106490000000  0.5005700000000  0.4996650000000 1.0
C      1  0.5407150000000  0.5005700000000  0.4996650000000 1.0
END
