TITL C-862503-991-1495 -0.00020532273038236 125000 -892.598736097698 0 0 172 (C3) n - 1
REM
REM in /home/nfs/bkarasulu/CARBON/AIRSS/Generating-Clusters/TERSOFF/Higher-Symm/FIRE-HFTN
REM
REM
REM
REM
REM
REM ./C.cell (b20cbc046b6831c77cfcea5457e17084)
REM AIRSS Version 0.9.1 bugfix July 2018 build 013d7b7c2542+ Fri, 06 Jul 2018 19:26:36 +0100
REM compiler GCC version 9.2.1 20190827 (Red Hat 9.2.1-1)
REM options -cpp -mtune=generic -march=x86-64 -g -O0 -fpre-include=/usr/include/finclude/math-vector-fortran.h
REM seed 864724466 -1757381277 -1590377807 -1969306053 2074554998 -1207500827 1984356038 -1421282020 32190272 -527073091 -1478584568 93916479 -1381647536 -521003369 -1772191231 246263930 984086371 -179177249 438493145 795939414 -331595912 -1405630242 -1601324656 -629053900 -106584023 592287455 -1244925169 1500900576 721101694 527567654 -271477888 -1955976494 -498404359
REM
CELL 1.54180   50.00000   50.00000   50.00000   90.00000   90.00000   90.00000
LATT -1
SFAC C  
C      1  0.4899770000000  0.4560550000000  0.4042150000000 1.0
C      1  0.4041340000000  0.4900720000000  0.4560380000000 1.0
C      1  0.4559590000000  0.4042300000000  0.4900560000000 1.0
C      1  0.5125130000000  0.4593320000000  0.5929220000000 1.0
C      1  0.4941670000000  0.5499660000000  0.5972460000000 1.0
C      1  0.5103670000000  0.5447820000000  0.4072150000000 1.0
C      1  0.5971640000000  0.4942650000000  0.5499530000000 1.0
C      1  0.4071330000000  0.5104620000000  0.5447650000000 1.0
C      1  0.5928410000000  0.5126110000000  0.4593180000000 1.0
C      1  0.5446850000000  0.4072300000000  0.5104470000000 1.0
C      1  0.4592350000000  0.5929370000000  0.5125950000000 1.0
C      1  0.5498700000000  0.5972610000000  0.4942500000000 1.0
C      1  0.5518100000000  0.5820200000000  0.4368050000000 1.0
C      1  0.4367220000000  0.5519050000000  0.5820040000000 1.0
C      1  0.5819230000000  0.4368200000000  0.5518910000000 1.0
C      1  0.4495170000000  0.5812580000000  0.5670030000000 1.0
C      1  0.5527750000000  0.4207550000000  0.5658410000000 1.0
C      1  0.4483250000000  0.4190360000000  0.4349580000000 1.0
C      1  0.5657600000000  0.5528730000000  0.4207410000000 1.0
C      1  0.4348790000000  0.4484200000000  0.4190200000000 1.0
C      1  0.5669210000000  0.4496140000000  0.5812440000000 1.0
C      1  0.4189410000000  0.4349740000000  0.4484040000000 1.0
C      1  0.5811620000000  0.5670190000000  0.4496000000000 1.0
C      1  0.4206570000000  0.5658550000000  0.5528560000000 1.0
C      1  0.5760950000000  0.5220400000000  0.5589610000000 1.0
C      1  0.5588780000000  0.5761920000000  0.5220260000000 1.0
C      1  0.5219430000000  0.5589750000000  0.5761770000000 1.0
C      1  0.4173820000000  0.5204450000000  0.4415290000000 1.0
C      1  0.5787640000000  0.4825510000000  0.4474320000000 1.0
C      1  0.4250610000000  0.4809560000000  0.5550060000000 1.0
C      1  0.4473500000000  0.5788600000000  0.4825350000000 1.0
C      1  0.5549260000000  0.4251580000000  0.4809420000000 1.0
C      1  0.4414490000000  0.4174770000000  0.5204290000000 1.0
C      1  0.4808610000000  0.5550220000000  0.4251430000000 1.0
C      1  0.5203500000000  0.4415450000000  0.4174620000000 1.0
C      1  0.4824540000000  0.4474460000000  0.5788440000000 1.0
C      1  0.5102570000000  0.4894110000000  0.5614230000000 1.0
C      1  0.5613420000000  0.5103550000000  0.4893970000000 1.0
C      1  0.4893150000000  0.5614380000000  0.5103390000000 1.0
C      1  0.4792960000000  0.4893790000000  0.4276910000000 1.0
C      1  0.5154540000000  0.5100480000000  0.4313820000000 1.0
C      1  0.4820660000000  0.5183920000000  0.5726860000000 1.0
C      1  0.4313010000000  0.5155490000000  0.5100320000000 1.0
C      1  0.5726050000000  0.4821630000000  0.5183780000000 1.0
C      1  0.4276110000000  0.4793910000000  0.4893630000000 1.0
C      1  0.5182960000000  0.5727010000000  0.4821480000000 1.0
C      1  0.4892830000000  0.4277070000000  0.4793760000000 1.0
C      1  0.5099510000000  0.4313970000000  0.5155340000000 1.0
C      1  0.4235180000000  0.4818070000000  0.4263770000000 1.0
C      1  0.4262970000000  0.4236130000000  0.4817910000000 1.0
C      1  0.4817120000000  0.4263930000000  0.4235980000000 1.0
C      1  0.5704520000000  0.4821900000000  0.5708880000000 1.0
C      1  0.4294080000000  0.5195820000000  0.5721030000000 1.0
C      1  0.5732540000000  0.5200760000000  0.4295030000000 1.0
C      1  0.5720230000000  0.4295050000000  0.5195690000000 1.0
C      1  0.4294200000000  0.5733490000000  0.5200600000000 1.0
C      1  0.5708060000000  0.5705490000000  0.4821760000000 1.0
C      1  0.5199790000000  0.4295170000000  0.5733350000000 1.0
C      1  0.4820930000000  0.5709020000000  0.5705340000000 1.0
C      1  0.5194870000000  0.5721190000000  0.4294900000000 1.0
C      1  0.4650270000000  0.5982330000000  0.5436400000000 1.0
C      1  0.5435580000000  0.4651240000000  0.5982190000000 1.0
C      1  0.5981370000000  0.5436560000000  0.4651110000000 1.0
C      1  0.5419130000000  0.6018590000000  0.4619750000000 1.0
C      1  0.4628360000000  0.4017140000000  0.4582190000000 1.0
C      1  0.5383440000000  0.4032560000000  0.5422700000000 1.0
C      1  0.4581390000000  0.4629320000000  0.4016980000000 1.0
C      1  0.5421900000000  0.5384410000000  0.4032420000000 1.0
C      1  0.4618920000000  0.5420090000000  0.6018430000000 1.0
C      1  0.4031590000000  0.5422850000000  0.5384240000000 1.0
C      1  0.6017620000000  0.4619890000000  0.5419950000000 1.0
C      1  0.4016190000000  0.4582340000000  0.4629150000000 1.0
C      1  0.4395790000000  0.4531630000000  0.4801360000000 1.0
C      1  0.4800560000000  0.4396750000000  0.4531470000000 1.0
C      1  0.4530670000000  0.4801520000000  0.4396590000000 1.0
C      1  0.5577160000000  0.4577090000000  0.5164400000000 1.0
C      1  0.4401490000000  0.5425900000000  0.5185710000000 1.0
C      1  0.5575210000000  0.5405430000000  0.4812670000000 1.0
C      1  0.5184900000000  0.4402460000000  0.5425750000000 1.0
C      1  0.4811840000000  0.5576170000000  0.5405270000000 1.0
C      1  0.5163580000000  0.5578130000000  0.4576940000000 1.0
C      1  0.5404460000000  0.4812810000000  0.5576030000000 1.0
C      1  0.4576120000000  0.5164540000000  0.5577970000000 1.0
C      1  0.5424940000000  0.5185870000000  0.4402310000000 1.0
C      1  0.4849220000000  0.3992110000000  0.5363880000000 1.0
C      1  0.5363080000000  0.4850180000000  0.3991970000000 1.0
C      1  0.3991150000000  0.5364030000000  0.4850020000000 1.0
C      1  0.5163190000000  0.3997640000000  0.4635020000000 1.0
C      1  0.4887680000000  0.6001320000000  0.4668550000000 1.0
C      1  0.5192460000000  0.5992350000000  0.5396650000000 1.0
C      1  0.4667730000000  0.4888640000000  0.6001160000000 1.0
C      1  0.5395820000000  0.5193430000000  0.5992200000000 1.0
C      1  0.4634220000000  0.5164150000000  0.3997480000000 1.0
C      1  0.5991380000000  0.5396800000000  0.5193290000000 1.0
C      1  0.3996670000000  0.4635170000000  0.5163980000000 1.0
C      1  0.6000360000000  0.4668700000000  0.4888500000000 1.0
C      1  0.3961700000000  0.4931960000000  0.5148660000000 1.0
C      1  0.5147860000000  0.3962660000000  0.4931810000000 1.0
C      1  0.4931010000000  0.5148820000000  0.3962510000000 1.0
C      1  0.6011960000000  0.4964500000000  0.4906080000000 1.0
C      1  0.3960930000000  0.5069760000000  0.4869960000000 1.0
C      1  0.6034910000000  0.5105860000000  0.5182300000000 1.0
C      1  0.4869170000000  0.3961890000000  0.5069610000000 1.0
C      1  0.5181470000000  0.6035880000000  0.5105710000000 1.0
C      1  0.4905260000000  0.6012920000000  0.4964350000000 1.0
C      1  0.5104880000000  0.5182430000000  0.6035730000000 1.0
C      1  0.4963520000000  0.4906220000000  0.6012770000000 1.0
C      1  0.5068810000000  0.4870130000000  0.3961740000000 1.0
C      1  0.5987730000000  0.4498370000000  0.5125720000000 1.0
C      1  0.5124900000000  0.5988690000000  0.4498220000000 1.0
C      1  0.4497390000000  0.5125850000000  0.5988530000000 1.0
C      1  0.3999870000000  0.4463180000000  0.4921910000000 1.0
C      1  0.5983870000000  0.5560030000000  0.4950580000000 1.0
C      1  0.4009510000000  0.5539800000000  0.5088350000000 1.0
C      1  0.4949740000000  0.5984830000000  0.5559880000000 1.0
C      1  0.5087540000000  0.4010470000000  0.5539650000000 1.0
C      1  0.4921130000000  0.4000830000000  0.4463030000000 1.0
C      1  0.5538850000000  0.5088510000000  0.4010330000000 1.0
C      1  0.4462240000000  0.4922080000000  0.4000670000000 1.0
C      1  0.5559050000000  0.4950710000000  0.5984690000000 1.0
C      1  0.5460640000000  0.5441060000000  0.5851910000000 1.0
C      1  0.5851080000000  0.5461620000000  0.5440920000000 1.0
C      1  0.5440090000000  0.5852050000000  0.5461470000000 1.0
C      1  0.4571670000000  0.5413230000000  0.4137510000000 1.0
C      1  0.5434710000000  0.4581170000000  0.4081910000000 1.0
C      1  0.4594670000000  0.4629530000000  0.5889370000000 1.0
C      1  0.4081090000000  0.5435660000000  0.4581010000000 1.0
C      1  0.5888570000000  0.4595640000000  0.4629390000000 1.0
C      1  0.4136700000000  0.4572620000000  0.5413060000000 1.0
C      1  0.4628570000000  0.5889520000000  0.4595490000000 1.0
C      1  0.5412270000000  0.4137670000000  0.4572480000000 1.0
C      1  0.4580200000000  0.4082050000000  0.5435500000000 1.0
C      1  0.4934790000000  0.4775440000000  0.4652600000000 1.0
C      1  0.4651790000000  0.4935740000000  0.4775290000000 1.0
C      1  0.4774480000000  0.4652750000000  0.4935590000000 1.0
C      1  0.4898980000000  0.4788300000000  0.5175040000000 1.0
C      1  0.5023930000000  0.5169910000000  0.5296940000000 1.0
C      1  0.5060350000000  0.5173540000000  0.4761320000000 1.0
C      1  0.5296120000000  0.5024900000000  0.5169770000000 1.0
C      1  0.4760500000000  0.5061310000000  0.5173390000000 1.0
C      1  0.5174240000000  0.4899950000000  0.4788160000000 1.0
C      1  0.5172580000000  0.4761470000000  0.5061160000000 1.0
C      1  0.4787340000000  0.5175200000000  0.4899790000000 1.0
C      1  0.5168950000000  0.5297090000000  0.5024750000000 1.0
C      1  0.4561000000000  0.4875860000000  0.5494820000000 1.0
C      1  0.5494020000000  0.4561970000000  0.4875720000000 1.0
C      1  0.4874910000000  0.5494980000000  0.4561810000000 1.0
C      1  0.5473980000000  0.4861170000000  0.4442620000000 1.0
C      1  0.4499490000000  0.5140170000000  0.4448020000000 1.0
C      1  0.5453400000000  0.5132480000000  0.5543310000000 1.0
C      1  0.4447210000000  0.4500440000000  0.5140010000000 1.0
C      1  0.5542490000000  0.5454370000000  0.5132340000000 1.0
C      1  0.4441800000000  0.5474930000000  0.4861010000000 1.0
C      1  0.5131510000000  0.5543450000000  0.5454220000000 1.0
C      1  0.4860200000000  0.4442760000000  0.5474780000000 1.0
C      1  0.5139220000000  0.4448180000000  0.4500290000000 1.0
C      1  0.4776830000000  0.4367870000000  0.5124730000000 1.0
C      1  0.5123930000000  0.4777800000000  0.4367720000000 1.0
C      1  0.4366910000000  0.5124880000000  0.4777640000000 1.0
C      1  0.5188780000000  0.4459490000000  0.4861490000000 1.0
C      1  0.4745380000000  0.5470540000000  0.4860170000000 1.0
C      1  0.5221870000000  0.5592920000000  0.5106870000000 1.0
C      1  0.4859360000000  0.4746340000000  0.5470390000000 1.0
C      1  0.5106040000000  0.5222830000000  0.5592770000000 1.0
C      1  0.4860680000000  0.5189740000000  0.4459340000000 1.0
C      1  0.5591960000000  0.5107020000000  0.5222690000000 1.0
C      1  0.4458530000000  0.4861630000000  0.5189580000000 1.0
C      1  0.5469580000000  0.4860330000000  0.4746200000000 1.0
C      1  0.5385430000000  0.4599740000000  0.5384530000000 1.0
C      1  0.4598770000000  0.5384680000000  0.5386240000000 1.0
C      1  0.5383720000000  0.5386400000000  0.4599600000000 1.0
C      1  0.4574140000000  0.4575100000000  0.4574940000000 1.0
END
