TITL C-862502-1143-1367 -848458.635807615 125000 -1051.66190699801 0 0 189 (C1) n - 1
REM
REM in /home/nfs/bkarasulu/CARBON/AIRSS/Generating-Clusters/TERSOFF/Higher-Symm/FIRE-HFTN
REM
REM
REM
REM
REM
REM ./C.cell (b20cbc046b6831c77cfcea5457e17084)
REM AIRSS Version 0.9.1 bugfix July 2018 build 013d7b7c2542+ Fri, 06 Jul 2018 19:26:36 +0100
REM compiler GCC version 9.2.1 20190827 (Red Hat 9.2.1-1)
REM options -cpp -mtune=generic -march=x86-64 -g -O0 -fpre-include=/usr/include/finclude/math-vector-fortran.h
REM seed -1388180325 2130418526 1535120410 -1700502153 2040263677 -117718790 -666205240 -2144985445 -177776249 -624916189 1010534801 -90147887 1450678410 -1024991513 266242084 -1563714353 -1986732684 1722803369 -1272312864 -1732033890 1643605064 -798928412 1915279262 -1261970251 -2057455144 1634169343 838497726 -1971060137 -1667640610 1858156158 2076644738 -179814870 -1403764901
REM
CELL 1.54180   50.00000   50.00000   50.00000   90.00000   90.00000   90.00000
LATT -1
SFAC C  
C      1  0.5317780000000  0.5589880000000  0.5460840000000 1.0
C      1  0.5341980000000  0.4439840000000  0.4541320000000 1.0
C      1  0.5348070000000  0.5583890000000  0.4524560000000 1.0
C      1  0.5344280000000  0.4424930000000  0.5471730000000 1.0
C      1  0.5246150000000  0.4832280000000  0.5162950000000 1.0
C      1  0.5262430000000  0.5183350000000  0.4834800000000 1.0
C      1  0.5262180000000  0.4860090000000  0.4832640000000 1.0
C      1  0.5242600000000  0.5171260000000  0.5165220000000 1.0
C      1  0.4535530000000  0.4821970000000  0.5533720000000 1.0
C      1  0.4561030000000  0.5163970000000  0.4447970000000 1.0
C      1  0.4564290000000  0.4858900000000  0.4490370000000 1.0
C      1  0.4541490000000  0.5131790000000  0.5503330000000 1.0
C      1  0.5313950000000  0.3907030000000  0.5422370000000 1.0
C      1  0.5318850000000  0.6108970000000  0.4580410000000 1.0
C      1  0.5323360000000  0.3903080000000  0.4599660000000 1.0
C      1  0.5309440000000  0.6114040000000  0.5415350000000 1.0
C      1  0.5841870000000  0.4232630000000  0.4823420000000 1.0
C      1  0.5803520000000  0.5779850000000  0.5166940000000 1.0
C      1  0.5828590000000  0.4228500000000  0.5183390000000 1.0
C      1  0.5839060000000  0.5778190000000  0.4808360000000 1.0
C      1  0.5215490000000  0.5740500000000  0.5693670000000 1.0
C      1  0.5229850000000  0.4281650000000  0.4314290000000 1.0
C      1  0.5237550000000  0.5735930000000  0.4292350000000 1.0
C      1  0.5239990000000  0.4276990000000  0.5710200000000 1.0
C      1  0.5264500000000  0.4719530000000  0.6015300000000 1.0
C      1  0.5270840000000  0.5294890000000  0.3973160000000 1.0
C      1  0.5261820000000  0.4707250000000  0.3982660000000 1.0
C      1  0.5253930000000  0.5301670000000  0.6000560000000 1.0
C      1  0.5121920000000  0.4021280000000  0.5639930000000 1.0
C      1  0.5121930000000  0.5993100000000  0.4368280000000 1.0
C      1  0.5138030000000  0.4015900000000  0.4381140000000 1.0
C      1  0.5117340000000  0.6008270000000  0.5635720000000 1.0
C      1  0.4686560000000  0.5826500000000  0.3912040000000 1.0
C      1  0.4689590000000  0.4186010000000  0.6095610000000 1.0
C      1  0.4650420000000  0.5815050000000  0.6033650000000 1.0
C      1  0.4667360000000  0.4187790000000  0.3950390000000 1.0
C      1  0.4660690000000  0.5815470000000  0.5321890000000 1.0
C      1  0.4672220000000  0.4083890000000  0.4680710000000 1.0
C      1  0.4628000000000  0.5903320000000  0.4752900000000 1.0
C      1  0.4619330000000  0.4063920000000  0.5255820000000 1.0
C      1  0.4858050000000  0.5997100000000  0.4897730000000 1.0
C      1  0.4804170000000  0.3885240000000  0.5121620000000 1.0
C      1  0.4879680000000  0.5940170000000  0.5177530000000 1.0
C      1  0.4829180000000  0.3893550000000  0.4834290000000 1.0
C      1  0.4243070000000  0.4702730000000  0.5809780000000 1.0
C      1  0.4254620000000  0.5326190000000  0.4211580000000 1.0
C      1  0.4258920000000  0.4719570000000  0.4235980000000 1.0
C      1  0.4246220000000  0.5308430000000  0.5793990000000 1.0
C      1  0.5005550000000  0.4863960000000  0.6124770000000 1.0
C      1  0.5010860000000  0.5148090000000  0.3865390000000 1.0
C      1  0.5006190000000  0.4854840000000  0.3873420000000 1.0
C      1  0.5000120000000  0.5155580000000  0.6115260000000 1.0
C      1  0.3952290000000  0.4708640000000  0.5352550000000 1.0
C      1  0.3966150000000  0.5325440000000  0.4671110000000 1.0
C      1  0.4001790000000  0.4738950000000  0.4711510000000 1.0
C      1  0.3985280000000  0.5302310000000  0.5321070000000 1.0
C      1  0.5597720000000  0.6106600000000  0.5515480000000 1.0
C      1  0.5610120000000  0.3895920000000  0.4490980000000 1.0
C      1  0.5605970000000  0.6100850000000  0.4458540000000 1.0
C      1  0.5601270000000  0.3907560000000  0.5530610000000 1.0
C      1  0.4425840000000  0.4860470000000  0.4024640000000 1.0
C      1  0.4426390000000  0.5162110000000  0.5990720000000 1.0
C      1  0.4424580000000  0.4856030000000  0.5999780000000 1.0
C      1  0.4425700000000  0.5167310000000  0.4011970000000 1.0
C      1  0.4594480000000  0.5935430000000  0.4473260000000 1.0
C      1  0.4595580000000  0.4083350000000  0.5537830000000 1.0
C      1  0.4588250000000  0.5906660000000  0.5581710000000 1.0
C      1  0.4593230000000  0.4036890000000  0.4406050000000 1.0
C      1  0.5764360000000  0.5332620000000  0.4322480000000 1.0
C      1  0.5761600000000  0.4672950000000  0.5670280000000 1.0
C      1  0.5748030000000  0.5348260000000  0.5654950000000 1.0
C      1  0.5766680000000  0.4659180000000  0.4309470000000 1.0
C      1  0.5238600000000  0.4767610000000  0.5711540000000 1.0
C      1  0.5246680000000  0.5244640000000  0.4275780000000 1.0
C      1  0.5246470000000  0.4768440000000  0.4284580000000 1.0
C      1  0.5232460000000  0.5233510000000  0.5698790000000 1.0
C      1  0.5952830000000  0.4794770000000  0.4810270000000 1.0
C      1  0.5783890000000  0.5103450000000  0.5161640000000 1.0
C      1  0.5880060000000  0.4811140000000  0.5136970000000 1.0
C      1  0.5834400000000  0.5092560000000  0.4828650000000 1.0
C      1  0.5476250000000  0.4685620000000  0.4436980000000 1.0
C      1  0.5451650000000  0.5338370000000  0.5544790000000 1.0
C      1  0.5466210000000  0.4680670000000  0.5557100000000 1.0
C      1  0.5469770000000  0.5331440000000  0.4430330000000 1.0
C      1  0.5862710000000  0.4610500000000  0.5353870000000 1.0
C      1  0.5882870000000  0.5311850000000  0.4632980000000 1.0
C      1  0.5864980000000  0.4595620000000  0.4615520000000 1.0
C      1  0.5881650000000  0.5296180000000  0.5361370000000 1.0
C      1  0.4030850000000  0.5580310000000  0.4821570000000 1.0
C      1  0.4029680000000  0.4462520000000  0.5196780000000 1.0
C      1  0.4041330000000  0.5570970000000  0.5181430000000 1.0
C      1  0.4053590000000  0.4474560000000  0.4856130000000 1.0
C      1  0.4959710000000  0.5135090000000  0.5312840000000 1.0
C      1  0.4976570000000  0.4855520000000  0.4678620000000 1.0
C      1  0.4975410000000  0.5177850000000  0.4675450000000 1.0
C      1  0.4957780000000  0.4814910000000  0.5311430000000 1.0
C      1  0.4230000000000  0.4424980000000  0.4215820000000 1.0
C      1  0.4217280000000  0.5603810000000  0.5820390000000 1.0
C      1  0.4263130000000  0.4404350000000  0.5817930000000 1.0
C      1  0.4258390000000  0.5625120000000  0.4191160000000 1.0
C      1  0.4846450000000  0.4514430000000  0.4905270000000 1.0
C      1  0.4816350000000  0.5480470000000  0.5122250000000 1.0
C      1  0.4814610000000  0.4433200000000  0.5212710000000 1.0
C      1  0.4822630000000  0.5538540000000  0.4825590000000 1.0
C      1  0.4317680000000  0.4231280000000  0.5585670000000 1.0
C      1  0.4307560000000  0.5811430000000  0.4415880000000 1.0
C      1  0.4297740000000  0.4233150000000  0.4428740000000 1.0
C      1  0.4285620000000  0.5800330000000  0.5609970000000 1.0
C      1  0.4419180000000  0.5423890000000  0.4843260000000 1.0
C      1  0.4427850000000  0.4558720000000  0.5108880000000 1.0
C      1  0.4411650000000  0.5375350000000  0.5156810000000 1.0
C      1  0.4453660000000  0.4563820000000  0.4766830000000 1.0
C      1  0.4730350000000  0.4717760000000  0.3975360000000 1.0
C      1  0.4726100000000  0.5289280000000  0.6013630000000 1.0
C      1  0.4732980000000  0.4717560000000  0.6038830000000 1.0
C      1  0.4736520000000  0.5295680000000  0.3953910000000 1.0
C      1  0.4115950000000  0.4229750000000  0.4681470000000 1.0
C      1  0.4100800000000  0.5810020000000  0.5364020000000 1.0
C      1  0.4116040000000  0.4223840000000  0.5358060000000 1.0
C      1  0.4103000000000  0.5818740000000  0.4645430000000 1.0
C      1  0.4782330000000  0.5160860000000  0.4232650000000 1.0
C      1  0.4762420000000  0.4840290000000  0.5751530000000 1.0
C      1  0.4760260000000  0.5143430000000  0.5737400000000 1.0
C      1  0.4778730000000  0.4858580000000  0.4251260000000 1.0
C      1  0.4133840000000  0.5180970000000  0.4457810000000 1.0
C      1  0.4115470000000  0.4852140000000  0.5568230000000 1.0
C      1  0.4125920000000  0.5157910000000  0.5558110000000 1.0
C      1  0.4145020000000  0.4876000000000  0.4472600000000 1.0
C      1  0.5149640000000  0.4457890000000  0.4846270000000 1.0
C      1  0.5104340000000  0.5566540000000  0.5177430000000 1.0
C      1  0.5125420000000  0.4433200000000  0.5207920000000 1.0
C      1  0.5133520000000  0.5581380000000  0.4813730000000 1.0
C      1  0.5801010000000  0.5868850000000  0.4494230000000 1.0
C      1  0.5795480000000  0.4136690000000  0.5494040000000 1.0
C      1  0.5784100000000  0.5872850000000  0.5474790000000 1.0
C      1  0.5802090000000  0.4127360000000  0.4515010000000 1.0
C      1  0.4510550000000  0.4265590000000  0.4820360000000 1.0
C      1  0.4453640000000  0.5684870000000  0.5173910000000 1.0
C      1  0.4447330000000  0.4229600000000  0.5100070000000 1.0
C      1  0.4438040000000  0.5736190000000  0.4884720000000 1.0
C      1  0.5523320000000  0.4654180000000  0.4852450000000 1.0
C      1  0.5483330000000  0.5393450000000  0.5129760000000 1.0
C      1  0.5500700000000  0.4631060000000  0.5141960000000 1.0
C      1  0.5525330000000  0.5377420000000  0.4843340000000 1.0
C      1  0.5588820000000  0.4840650000000  0.4053210000000 1.0
C      1  0.5580920000000  0.5170450000000  0.5923290000000 1.0
C      1  0.5586490000000  0.4855830000000  0.5928660000000 1.0
C      1  0.5592560000000  0.5154860000000  0.4056310000000 1.0
C      1  0.5972680000000  0.5153770000000  0.5772910000000 1.0
C      1  0.6008020000000  0.4854130000000  0.4271080000000 1.0
C      1  0.5984860000000  0.5136270000000  0.4205170000000 1.0
C      1  0.6000240000000  0.4872580000000  0.5706100000000 1.0
C      1  0.4993290000000  0.4734480000000  0.4413190000000 1.0
C      1  0.4976330000000  0.5261720000000  0.5576680000000 1.0
C      1  0.4982660000000  0.4715290000000  0.5592340000000 1.0
C      1  0.4993460000000  0.5287250000000  0.4397130000000 1.0
C      1  0.4856640000000  0.4441260000000  0.5661290000000 1.0
C      1  0.4859080000000  0.5559950000000  0.4337940000000 1.0
C      1  0.4854030000000  0.4461750000000  0.4365660000000 1.0
C      1  0.4849960000000  0.5538260000000  0.5626220000000 1.0
C      1  0.4639880000000  0.4689460000000  0.5285260000000 1.0
C      1  0.4657200000000  0.5307820000000  0.4693080000000 1.0
C      1  0.4688810000000  0.4782360000000  0.4793700000000 1.0
C      1  0.4664490000000  0.5201220000000  0.5212120000000 1.0
C      1  0.5151240000000  0.5591770000000  0.4038350000000 1.0
C      1  0.5151240000000  0.4424240000000  0.5959690000000 1.0
C      1  0.5125730000000  0.5592740000000  0.5937980000000 1.0
C      1  0.5138390000000  0.4418360000000  0.4060070000000 1.0
C      1  0.5497660000000  0.5704180000000  0.5218650000000 1.0
C      1  0.5543610000000  0.4337010000000  0.4770520000000 1.0
C      1  0.5536370000000  0.5687020000000  0.4763960000000 1.0
C      1  0.5527590000000  0.4317470000000  0.5226440000000 1.0
C      1  0.5824290000000  0.4351410000000  0.5711580000000 1.0
C      1  0.5826690000000  0.5649830000000  0.4278400000000 1.0
C      1  0.5826650000000  0.4331840000000  0.4284930000000 1.0
C      1  0.5812960000000  0.5659360000000  0.5692190000000 1.0
C      1  0.4814690000000  0.4415690000000  0.4054170000000 1.0
C      1  0.4804940000000  0.5589350000000  0.5935900000000 1.0
C      1  0.4826610000000  0.4412200000000  0.5975270000000 1.0
C      1  0.4827440000000  0.5598630000000  0.4024670000000 1.0
C      1  0.4863240000000  0.3921840000000  0.4296310000000 1.0
C      1  0.4824200000000  0.6072960000000  0.5688650000000 1.0
C      1  0.4825770000000  0.3971200000000  0.5699290000000 1.0
C      1  0.4826150000000  0.6054920000000  0.4317480000000 1.0
C      1  0.5306730000000  0.5951350000000  0.5139530000000 1.0
C      1  0.5361490000000  0.4095640000000  0.4842830000000 1.0
C      1  0.5363550000000  0.5931550000000  0.4833700000000 1.0
C      1  0.5332480000000  0.4072820000000  0.5150670000000 1.0
C      1  0.4569890000000  0.4986780000000  0.4997540000000 1.0
END
