TITL C-862129-6180-260 0.000140952876420349 125000 -734.493519034877 0 0 137 (T23) n - 1
REM
REM in /home/nfs/bkarasulu/CARBON/AIRSS/Generating-Clusters/TERSOFF/Higher-Symm/FIRE-HFTN
REM
REM
REM
REM
REM
REM ./C.cell (b20cbc046b6831c77cfcea5457e17084)
REM AIRSS Version 0.9.1 bugfix July 2018 build 013d7b7c2542+ Fri, 06 Jul 2018 19:26:36 +0100
REM compiler GCC version 9.2.1 20190827 (Red Hat 9.2.1-1)
REM options -cpp -mtune=generic -march=x86-64 -g -O0 -fpre-include=/usr/include/finclude/math-vector-fortran.h
REM seed -29845009 -1418853053 82616657 -1993467805 2758302 1046118951 -221704604 357526399 1107976678 962700014 -1154924720 1634422096 -166258541 656618770 -1117642236 791679853 570471670 -1556577925 -1414148376 -380499893 -169452853 1172326070 173997866 -10116979 -838143830 1979541868 -1931987515 -2089629300 -1840332668 -506836274 -943050805 522653256 762856833
REM
CELL 1.54180   50.00000   50.00000   50.00000   90.00000   90.00000   90.00000
LATT -1
SFAC C  
C      1  0.5556220000000  0.5262440000000  0.5449490000000 1.0
C      1  0.5452500000000  0.5553070000000  0.5262580000000 1.0
C      1  0.5265590000000  0.5449350000000  0.5553210000000 1.0
C      1  0.4443040000000  0.4730500000000  0.5449490000000 1.0
C      1  0.4443040000000  0.5262430000000  0.4543750000000 1.0
C      1  0.5556230000000  0.4730520000000  0.4543750000000 1.0
C      1  0.4546770000000  0.4439880000000  0.5262580000000 1.0
C      1  0.4546750000000  0.5553060000000  0.4730660000000 1.0
C      1  0.5452510000000  0.4439890000000  0.4730650000000 1.0
C      1  0.4733670000000  0.4543600000000  0.5553210000000 1.0
C      1  0.4733660000000  0.5449340000000  0.4440030000000 1.0
C      1  0.5265600000000  0.4543610000000  0.4440030000000 1.0
C      1  0.5227140000000  0.4391200000000  0.4158510000000 1.0
C      1  0.4161520000000  0.5223970000000  0.4391340000000 1.0
C      1  0.4394360000000  0.4158360000000  0.5224120000000 1.0
C      1  0.4772120000000  0.5601750000000  0.4158510000000 1.0
C      1  0.4772140000000  0.4391190000000  0.5834730000000 1.0
C      1  0.5227130000000  0.5601750000000  0.5834730000000 1.0
C      1  0.5837740000000  0.4768980000000  0.4391340000000 1.0
C      1  0.5837740000000  0.5223980000000  0.5601890000000 1.0
C      1  0.4161530000000  0.4768960000000  0.5601900000000 1.0
C      1  0.5604900000000  0.5834590000000  0.5224120000000 1.0
C      1  0.5604920000000  0.4158370000000  0.4769120000000 1.0
C      1  0.4394350000000  0.5834580000000  0.4769120000000 1.0
C      1  0.4611190000000  0.5987570000000  0.4914140000000 1.0
C      1  0.4917160000000  0.4608040000000  0.5987720000000 1.0
C      1  0.5990730000000  0.4914010000000  0.4608180000000 1.0
C      1  0.5388080000000  0.4005380000000  0.4914140000000 1.0
C      1  0.5388060000000  0.5987580000000  0.5079100000000 1.0
C      1  0.4611210000000  0.4005370000000  0.5079090000000 1.0
C      1  0.5082110000000  0.5384910000000  0.5987720000000 1.0
C      1  0.5082110000000  0.4608040000000  0.4005520000000 1.0
C      1  0.4917150000000  0.5384910000000  0.4005520000000 1.0
C      1  0.4008530000000  0.5078940000000  0.4608180000000 1.0
C      1  0.4008530000000  0.4913990000000  0.5385060000000 1.0
C      1  0.5990730000000  0.5078960000000  0.5385050000000 1.0
C      1  0.5432040000000  0.5899840000000  0.4553580000000 1.0
C      1  0.4556600000000  0.5428890000000  0.5899980000000 1.0
C      1  0.5903000000000  0.4553450000000  0.5429040000000 1.0
C      1  0.4567220000000  0.4093110000000  0.4553580000000 1.0
C      1  0.4567200000000  0.5899830000000  0.5439650000000 1.0
C      1  0.5432060000000  0.4093120000000  0.5439650000000 1.0
C      1  0.5442670000000  0.4564060000000  0.5899970000000 1.0
C      1  0.5442660000000  0.5428900000000  0.4093260000000 1.0
C      1  0.4556600000000  0.4564050000000  0.4093260000000 1.0
C      1  0.4096270000000  0.5439500000000  0.5429040000000 1.0
C      1  0.4096280000000  0.4553430000000  0.4564200000000 1.0
C      1  0.5902990000000  0.5439520000000  0.4564200000000 1.0
C      1  0.4943400000000  0.5365030000000  0.5491180000000 1.0
C      1  0.5494200000000  0.4940250000000  0.5365180000000 1.0
C      1  0.5368190000000  0.5491040000000  0.4940390000000 1.0
C      1  0.5055860000000  0.4627910000000  0.5491180000000 1.0
C      1  0.5055850000000  0.5365030000000  0.4502060000000 1.0
C      1  0.4943410000000  0.4627910000000  0.4502060000000 1.0
C      1  0.4505070000000  0.5052690000000  0.5365180000000 1.0
C      1  0.4505070000000  0.4940240000000  0.4628060000000 1.0
C      1  0.5494190000000  0.5052710000000  0.4628060000000 1.0
C      1  0.4631080000000  0.4501910000000  0.4940390000000 1.0
C      1  0.4631070000000  0.5491030000000  0.5052850000000 1.0
C      1  0.5368200000000  0.4501920000000  0.5052840000000 1.0
C      1  0.5216670000000  0.4858710000000  0.3966130000000 1.0
C      1  0.3969140000000  0.5213500000000  0.4858850000000 1.0
C      1  0.4861870000000  0.3965980000000  0.5213650000000 1.0
C      1  0.4782600000000  0.5134240000000  0.3966130000000 1.0
C      1  0.4782600000000  0.4858700000000  0.6027110000000 1.0
C      1  0.5216670000000  0.5134240000000  0.6027110000000 1.0
C      1  0.6030130000000  0.4779450000000  0.4858850000000 1.0
C      1  0.6030120000000  0.5213520000000  0.5134390000000 1.0
C      1  0.3969140000000  0.4779430000000  0.5134390000000 1.0
C      1  0.5137390000000  0.6026970000000  0.5213650000000 1.0
C      1  0.5137410000000  0.3965980000000  0.4779580000000 1.0
C      1  0.4861850000000  0.6026960000000  0.4779590000000 1.0
C      1  0.5840080000000  0.5045100000000  0.5844270000000 1.0
C      1  0.5847280000000  0.5836930000000  0.5045240000000 1.0
C      1  0.5048250000000  0.5844130000000  0.5837070000000 1.0
C      1  0.4159190000000  0.4947840000000  0.5844280000000 1.0
C      1  0.4159180000000  0.5045090000000  0.4148960000000 1.0
C      1  0.5840080000000  0.4947860000000  0.4148960000000 1.0
C      1  0.4151980000000  0.4156020000000  0.5045240000000 1.0
C      1  0.4151970000000  0.5836910000000  0.4948000000000 1.0
C      1  0.5847300000000  0.4156030000000  0.4947990000000 1.0
C      1  0.4951020000000  0.4148810000000  0.5837070000000 1.0
C      1  0.4951000000000  0.5844130000000  0.4156170000000 1.0
C      1  0.5048260000000  0.4148820000000  0.4156170000000 1.0
C      1  0.5239050000000  0.5828780000000  0.4293490000000 1.0
C      1  0.4296510000000  0.5235890000000  0.5828920000000 1.0
C      1  0.5831940000000  0.4293360000000  0.5236050000000 1.0
C      1  0.4760210000000  0.4164170000000  0.4293490000000 1.0
C      1  0.4760200000000  0.5828770000000  0.5699740000000 1.0
C      1  0.5239070000000  0.4164170000000  0.5699740000000 1.0
C      1  0.5702760000000  0.4757050000000  0.5828920000000 1.0
C      1  0.5702750000000  0.5235910000000  0.4164310000000 1.0
C      1  0.4296510000000  0.4757040000000  0.4164320000000 1.0
C      1  0.4167320000000  0.5699590000000  0.5236050000000 1.0
C      1  0.4167340000000  0.4293340000000  0.4757190000000 1.0
C      1  0.5831930000000  0.5699610000000  0.4757190000000 1.0
C      1  0.5243280000000  0.5046060000000  0.4182510000000 1.0
C      1  0.4185520000000  0.5240110000000  0.5046210000000 1.0
C      1  0.5049230000000  0.4182370000000  0.5240260000000 1.0
C      1  0.4755990000000  0.4946890000000  0.4182510000000 1.0
C      1  0.4755990000000  0.5046060000000  0.5810730000000 1.0
C      1  0.5243280000000  0.4946890000000  0.5810730000000 1.0
C      1  0.5813740000000  0.4752840000000  0.5046200000000 1.0
C      1  0.5813740000000  0.5240130000000  0.4947030000000 1.0
C      1  0.4185530000000  0.4752820000000  0.4947030000000 1.0
C      1  0.4950040000000  0.5810580000000  0.5240270000000 1.0
C      1  0.4950050000000  0.4182360000000  0.4752970000000 1.0
C      1  0.5049210000000  0.5810580000000  0.4752970000000 1.0
C      1  0.4665400000000  0.4175630000000  0.4841120000000 1.0
C      1  0.4844130000000  0.4662230000000  0.4175770000000 1.0
C      1  0.4178790000000  0.4840970000000  0.4662380000000 1.0
C      1  0.5333870000000  0.5817320000000  0.4841120000000 1.0
C      1  0.5333880000000  0.4175630000000  0.5152120000000 1.0
C      1  0.4665380000000  0.5817310000000  0.5152120000000 1.0
C      1  0.5155130000000  0.5330720000000  0.4175770000000 1.0
C      1  0.5155140000000  0.4662230000000  0.5817460000000 1.0
C      1  0.4844130000000  0.5330710000000  0.5817460000000 1.0
C      1  0.5820470000000  0.5151980000000  0.4662380000000 1.0
C      1  0.5820480000000  0.4840980000000  0.5330860000000 1.0
C      1  0.4178790000000  0.5151970000000  0.5330860000000 1.0
C      1  0.5484750000000  0.5082840000000  0.4327110000000 1.0
C      1  0.4330120000000  0.5481580000000  0.5082980000000 1.0
C      1  0.5086000000000  0.4326960000000  0.5481730000000 1.0
C      1  0.4514520000000  0.4910110000000  0.4327110000000 1.0
C      1  0.4514520000000  0.5082830000000  0.5666130000000 1.0
C      1  0.5484750000000  0.4910120000000  0.5666130000000 1.0
C      1  0.5669150000000  0.4511360000000  0.5082980000000 1.0
C      1  0.5669140000000  0.5481600000000  0.4910260000000 1.0
C      1  0.4330130000000  0.4511350000000  0.4910260000000 1.0
C      1  0.4913270000000  0.5665980000000  0.5481740000000 1.0
C      1  0.4913280000000  0.4326960000000  0.4511500000000 1.0
C      1  0.5085990000000  0.5665990000000  0.4511500000000 1.0
C      1  0.5208950000000  0.5205800000000  0.4787290000000 1.0
C      1  0.4790310000000  0.4787150000000  0.4787290000000 1.0
C      1  0.4790310000000  0.5205800000000  0.5205940000000 1.0
C      1  0.5208960000000  0.4787150000000  0.5205940000000 1.0
C      1  0.4999630000000  0.4996470000000  0.4996620000000 1.0
END
