TITL C-862507-1800-241 15.8674317746519 125000 -826.359208872608 0 0 145 (C1) n - 1
REM
REM in /home/nfs/bkarasulu/CARBON/AIRSS/Generating-Clusters/TERSOFF/Higher-Symm/FIRE-HFTN
REM
REM
REM
REM
REM
REM ./C.cell (b20cbc046b6831c77cfcea5457e17084)
REM AIRSS Version 0.9.1 bugfix July 2018 build 013d7b7c2542+ Fri, 06 Jul 2018 19:26:36 +0100
REM compiler GCC version 9.2.1 20190827 (Red Hat 9.2.1-1)
REM options -cpp -mtune=generic -march=x86-64 -g -O0 -fpre-include=/usr/include/finclude/math-vector-fortran.h
REM seed -263279406 -1666835627 -1779591499 -1305099392 -1940977144 1555967828 -1142685945 2072859134 556029653 -1525872490 1090597418 1993193334 -1186839567 -1637211564 861800860 310713416 2037662556 -1135615244 455552282 -1891868764 770365051 857709995 2092478521 534866473 136159484 -974951007 -994199821 -1748951897 -663574371 600454083 -228806309 357789085 335670924
REM
CELL 1.54180   50.00000   50.00000   50.00000   90.00000   90.00000   90.00000
LATT -1
SFAC C  
C      1  0.4754690000000  0.4596030000000  0.4622660000000 1.0
C      1  0.5292880000000  0.4650360000000  0.4572030000000 1.0
C      1  0.4690880000000  0.4370720000000  0.5248400000000 1.0
C      1  0.5340250000000  0.4393250000000  0.5235840000000 1.0
C      1  0.4808790000000  0.4434150000000  0.4010490000000 1.0
C      1  0.5101170000000  0.4452820000000  0.4009950000000 1.0
C      1  0.5174840000000  0.5175250000000  0.3928420000000 1.0
C      1  0.4835960000000  0.5184050000000  0.3931050000000 1.0
C      1  0.5571460000000  0.5358900000000  0.5910620000000 1.0
C      1  0.4423060000000  0.5352880000000  0.5897940000000 1.0
C      1  0.4681990000000  0.5417890000000  0.6004000000000 1.0
C      1  0.5305840000000  0.5409920000000  0.6009240000000 1.0
C      1  0.5576690000000  0.5326690000000  0.5339810000000 1.0
C      1  0.4439500000000  0.5317800000000  0.5325710000000 1.0
C      1  0.5187090000000  0.4121510000000  0.5301880000000 1.0
C      1  0.4872170000000  0.4107560000000  0.5304620000000 1.0
C      1  0.5172340000000  0.5914190000000  0.5915830000000 1.0
C      1  0.4812270000000  0.5920530000000  0.5910850000000 1.0
C      1  0.4176720000000  0.4438140000000  0.5489440000000 1.0
C      1  0.5824950000000  0.4451430000000  0.5503150000000 1.0
C      1  0.5147960000000  0.6050290000000  0.5329500000000 1.0
C      1  0.4856060000000  0.6048310000000  0.5323270000000 1.0
C      1  0.5114690000000  0.4426940000000  0.6801890000000 1.0
C      1  0.4832980000000  0.4471890000000  0.6848100000000 1.0
C      1  0.5617380000000  0.5475400000000  0.4083970000000 1.0
C      1  0.4404520000000  0.5507510000000  0.4084530000000 1.0
C      1  0.5989120000000  0.5129960000000  0.4319960000000 1.0
C      1  0.4020720000000  0.5162160000000  0.4295490000000 1.0
C      1  0.6157880000000  0.4817980000000  0.4944810000000 1.0
C      1  0.3860640000000  0.4809150000000  0.4920710000000 1.0
C      1  0.5320170000000  0.4043260000000  0.4235220000000 1.0
C      1  0.4680130000000  0.4016170000000  0.4269070000000 1.0
C      1  0.5584080000000  0.5060980000000  0.4406520000000 1.0
C      1  0.4417520000000  0.5076060000000  0.4402510000000 1.0
C      1  0.4792980000000  0.4145850000000  0.4500770000000 1.0
C      1  0.5284540000000  0.4169000000000  0.4496920000000 1.0
C      1  0.5835470000000  0.5196090000000  0.5315680000000 1.0
C      1  0.4184690000000  0.5182080000000  0.5298240000000 1.0
C      1  0.5696190000000  0.4424920000000  0.4608420000000 1.0
C      1  0.4327900000000  0.4409820000000  0.4593970000000 1.0
C      1  0.5272390000000  0.4919590000000  0.5461660000000 1.0
C      1  0.4745570000000  0.4914550000000  0.5456280000000 1.0
C      1  0.4354470000000  0.5717390000000  0.4289950000000 1.0
C      1  0.5674710000000  0.5696080000000  0.4275430000000 1.0
C      1  0.5310910000000  0.5877060000000  0.4794630000000 1.0
C      1  0.4704700000000  0.5872150000000  0.4787990000000 1.0
C      1  0.5270380000000  0.4203640000000  0.3990640000000 1.0
C      1  0.4673650000000  0.4166910000000  0.4016660000000 1.0
C      1  0.5861840000000  0.5283140000000  0.4078300000000 1.0
C      1  0.4146770000000  0.5333700000000  0.4066500000000 1.0
C      1  0.4840510000000  0.5242840000000  0.6177950000000 1.0
C      1  0.5139100000000  0.5213630000000  0.6150550000000 1.0
C      1  0.5168050000000  0.4433640000000  0.4438950000000 1.0
C      1  0.4890010000000  0.4416320000000  0.4455070000000 1.0
C      1  0.4537110000000  0.5337340000000  0.4489220000000 1.0
C      1  0.5472740000000  0.5329370000000  0.4485700000000 1.0
C      1  0.4376170000000  0.5066330000000  0.5826180000000 1.0
C      1  0.5632780000000  0.5076360000000  0.5838080000000 1.0
C      1  0.5587850000000  0.4967910000000  0.4121110000000 1.0
C      1  0.4396490000000  0.4999320000000  0.4111630000000 1.0
C      1  0.5863520000000  0.4376950000000  0.5008760000000 1.0
C      1  0.4158990000000  0.4365610000000  0.4993400000000 1.0
C      1  0.4861000000000  0.5609500000000  0.4655880000000 1.0
C      1  0.5163600000000  0.5612270000000  0.4657170000000 1.0
C      1  0.5454760000000  0.5915790000000  0.5691500000000 1.0
C      1  0.4536270000000  0.5911230000000  0.5678560000000 1.0
C      1  0.5873110000000  0.4655390000000  0.4576230000000 1.0
C      1  0.4161290000000  0.4648760000000  0.4562660000000 1.0
C      1  0.5167280000000  0.4644840000000  0.5318020000000 1.0
C      1  0.4855580000000  0.4638720000000  0.5312950000000 1.0
C      1  0.5151910000000  0.4910980000000  0.4608460000000 1.0
C      1  0.4811150000000  0.4883320000000  0.4637670000000 1.0
C      1  0.4339230000000  0.4777120000000  0.5112510000000 1.0
C      1  0.5694800000000  0.4793690000000  0.5122610000000 1.0
C      1  0.4776630000000  0.4878610000000  0.4312720000000 1.0
C      1  0.5067700000000  0.4884150000000  0.4305660000000 1.0
C      1  0.5652540000000  0.5616690000000  0.5742450000000 1.0
C      1  0.4342980000000  0.5608110000000  0.5723540000000 1.0
C      1  0.4329560000000  0.4893240000000  0.4611880000000 1.0
C      1  0.5701990000000  0.4900630000000  0.4620600000000 1.0
C      1  0.4353600000000  0.5569530000000  0.4544470000000 1.0
C      1  0.5663150000000  0.5558400000000  0.4535700000000 1.0
C      1  0.5616300000000  0.4951160000000  0.4893240000000 1.0
C      1  0.4426620000000  0.4930870000000  0.4883070000000 1.0
C      1  0.6013820000000  0.5289390000000  0.5104600000000 1.0
C      1  0.4001120000000  0.5277300000000  0.5092840000000 1.0
C      1  0.4056900000000  0.4700750000000  0.5503950000000 1.0
C      1  0.5956110000000  0.4708760000000  0.5526070000000 1.0
C      1  0.5206690000000  0.5612240000000  0.5837640000000 1.0
C      1  0.4789020000000  0.5617620000000  0.5836530000000 1.0
C      1  0.4706810000000  0.5073350000000  0.6375150000000 1.0
C      1  0.5264660000000  0.4988270000000  0.6288270000000 1.0
C      1  0.5910130000000  0.5499280000000  0.4673510000000 1.0
C      1  0.4100600000000  0.5508860000000  0.4671890000000 1.0
C      1  0.5181280000000  0.4057080000000  0.4795970000000 1.0
C      1  0.4853460000000  0.4028900000000  0.4798450000000 1.0
C      1  0.5996790000000  0.4602440000000  0.4841790000000 1.0
C      1  0.4029940000000  0.4595600000000  0.4824260000000 1.0
C      1  0.4540870000000  0.4060550000000  0.3781390000000 1.0
C      1  0.5383030000000  0.4122060000000  0.3735470000000 1.0
C      1  0.5562970000000  0.5586260000000  0.5455360000000 1.0
C      1  0.4444890000000  0.5577830000000  0.5440740000000 1.0
C      1  0.5460150000000  0.4508480000000  0.4750160000000 1.0
C      1  0.4554580000000  0.4464620000000  0.4760320000000 1.0
C      1  0.4736040000000  0.5473770000000  0.4916000000000 1.0
C      1  0.5287490000000  0.5477220000000  0.4919760000000 1.0
C      1  0.5344910000000  0.4919490000000  0.3955040000000 1.0
C      1  0.4638600000000  0.4946410000000  0.3922200000000 1.0
C      1  0.3970240000000  0.5254500000000  0.4582090000000 1.0
C      1  0.6043300000000  0.5243590000000  0.4597070000000 1.0
C      1  0.4851990000000  0.5581590000000  0.5543850000000 1.0
C      1  0.5152120000000  0.5578240000000  0.5542130000000 1.0
C      1  0.5258260000000  0.4596660000000  0.6616170000000 1.0
C      1  0.4697260000000  0.4686100000000  0.6708080000000 1.0
C      1  0.6109590000000  0.5102630000000  0.4887380000000 1.0
C      1  0.3908770000000  0.5096560000000  0.4869440000000 1.0
C      1  0.5125010000000  0.4813980000000  0.6473210000000 1.0
C      1  0.4838490000000  0.4859290000000  0.6519710000000 1.0
C      1  0.5329180000000  0.5170300000000  0.5288930000000 1.0
C      1  0.4690670000000  0.5165450000000  0.5282400000000 1.0
C      1  0.4678430000000  0.5794900000000  0.5362190000000 1.0
C      1  0.5327470000000  0.5798050000000  0.5369080000000 1.0
C      1  0.5680750000000  0.4395410000000  0.5255170000000 1.0
C      1  0.4330810000000  0.4374390000000  0.5249560000000 1.0
C      1  0.4707320000000  0.5402230000000  0.4103210000000 1.0
C      1  0.5311060000000  0.5388930000000  0.4099860000000 1.0
C      1  0.5207700000000  0.4714260000000  0.4110940000000 1.0
C      1  0.4668750000000  0.4679870000000  0.4097250000000 1.0
C      1  0.4863970000000  0.5260150000000  0.5066490000000 1.0
C      1  0.5159730000000  0.5262130000000  0.5068970000000 1.0
C      1  0.4232280000000  0.4894660000000  0.5364710000000 1.0
C      1  0.5789300000000  0.4907260000000  0.5380890000000 1.0
C      1  0.4604920000000  0.5721130000000  0.5060960000000 1.0
C      1  0.5409140000000  0.5727950000000  0.5068560000000 1.0
C      1  0.4064060000000  0.5535410000000  0.4961790000000 1.0
C      1  0.5941300000000  0.5539650000000  0.4962600000000 1.0
C      1  0.4802640000000  0.3909870000000  0.5089200000000 1.0
C      1  0.5271670000000  0.3942570000000  0.5074450000000 1.0
C      1  0.4825730000000  0.5418310000000  0.4391140000000 1.0
C      1  0.5186690000000  0.5417400000000  0.4387550000000 1.0
C      1  0.5328230000000  0.4332530000000  0.4929370000000 1.0
C      1  0.4662410000000  0.4277360000000  0.4942620000000 1.0
C      1  0.5562490000000  0.4941270000000  0.5579770000000 1.0
C      1  0.4453380000000  0.4932250000000  0.5568890000000 1.0
C      1  0.5006900000000  0.4978760000000  0.5605770000000 1.0
END
