TITL C-862131-2149-1401 11.7680163942893 125000 -923.624839528278 0 0 164 (C1) n - 1
REM
REM in /home/nfs/bkarasulu/CARBON/AIRSS/Generating-Clusters/TERSOFF/Higher-Symm/FIRE-HFTN
REM
REM
REM
REM
REM
REM ./C.cell (b20cbc046b6831c77cfcea5457e17084)
REM AIRSS Version 0.9.1 bugfix July 2018 build 013d7b7c2542+ Fri, 06 Jul 2018 19:26:36 +0100
REM compiler GCC version 9.2.1 20190827 (Red Hat 9.2.1-1)
REM options -cpp -mtune=generic -march=x86-64 -g -O0 -fpre-include=/usr/include/finclude/math-vector-fortran.h
REM seed -66377645 1093293780 1912449143 1689123853 -1101573009 1024931103 1327829962 -1681024394 1562526644 -137180999 708934841 -1737786916 662989650 827972154 594228121 805431798 472568434 -1506821667 1079901720 -2077733495 -1527188032 327253060 -1969216961 -2031652663 -96624642 -328856331 -701331289 -102102331 -2014233240 -1544211728 -224446220 -325584977 -95876463
REM
CELL 1.54180   50.00000   50.00000   50.00000   90.00000   90.00000   90.00000
LATT -1
SFAC C  
C      1  0.5818650000000  0.4563330000000  0.5452570000000 1.0
C      1  0.3863580000000  0.5201860000000  0.4878250000000 1.0
C      1  0.4535280000000  0.4898080000000  0.3887210000000 1.0
C      1  0.5747830000000  0.5605130000000  0.4575360000000 1.0
C      1  0.4918300000000  0.5085170000000  0.4535790000000 1.0
C      1  0.5331130000000  0.5698980000000  0.4411560000000 1.0
C      1  0.4473710000000  0.4848890000000  0.4551950000000 1.0
C      1  0.4677980000000  0.5385950000000  0.4034570000000 1.0
C      1  0.5719060000000  0.4911110000000  0.5239230000000 1.0
C      1  0.5166720000000  0.4192830000000  0.5672770000000 1.0
C      1  0.5597410000000  0.5830620000000  0.4708440000000 1.0
C      1  0.4472800000000  0.3964720000000  0.5282100000000 1.0
C      1  0.5529320000000  0.4961190000000  0.4436620000000 1.0
C      1  0.5457070000000  0.5427950000000  0.5934110000000 1.0
C      1  0.4589510000000  0.4988600000000  0.5925410000000 1.0
C      1  0.4005020000000  0.5086880000000  0.5395060000000 1.0
C      1  0.5544390000000  0.4013900000000  0.4912330000000 1.0
C      1  0.5058940000000  0.3733330000000  0.5098760000000 1.0
C      1  0.5292950000000  0.4502450000000  0.5004150000000 1.0
C      1  0.4788830000000  0.6041600000000  0.5407580000000 1.0
C      1  0.4545640000000  0.4343700000000  0.4612090000000 1.0
C      1  0.5794460000000  0.5415270000000  0.5396230000000 1.0
C      1  0.4839060000000  0.5906010000000  0.4514780000000 1.0
C      1  0.5182490000000  0.4853510000000  0.4033620000000 1.0
C      1  0.5304710000000  0.3946490000000  0.5099400000000 1.0
C      1  0.4313150000000  0.4882370000000  0.4068970000000 1.0
C      1  0.5076050000000  0.4903430000000  0.4703550000000 1.0
C      1  0.4800690000000  0.4426410000000  0.4149490000000 1.0
C      1  0.4387080000000  0.5253160000000  0.5212230000000 1.0
C      1  0.4743570000000  0.5100450000000  0.3906010000000 1.0
C      1  0.4816480000000  0.5094190000000  0.5070110000000 1.0
C      1  0.6090340000000  0.4850100000000  0.4912000000000 1.0
C      1  0.4826750000000  0.5758880000000  0.5316410000000 1.0
C      1  0.4737170000000  0.5417340000000  0.4334020000000 1.0
C      1  0.5540330000000  0.5853660000000  0.5298730000000 1.0
C      1  0.4832720000000  0.5578780000000  0.4874900000000 1.0
C      1  0.4653170000000  0.5728790000000  0.4691950000000 1.0
C      1  0.4441680000000  0.4586280000000  0.5396070000000 1.0
C      1  0.4344030000000  0.4718150000000  0.4310540000000 1.0
C      1  0.4256930000000  0.4867510000000  0.5002520000000 1.0
C      1  0.3744600000000  0.5385160000000  0.4610130000000 1.0
C      1  0.5218970000000  0.5486830000000  0.4592500000000 1.0
C      1  0.4776910000000  0.5001020000000  0.5686820000000 1.0
C      1  0.4686000000000  0.6194870000000  0.4819420000000 1.0
C      1  0.5427300000000  0.4788430000000  0.6050540000000 1.0
C      1  0.3973760000000  0.4508030000000  0.4757780000000 1.0
C      1  0.4460490000000  0.4841220000000  0.5245960000000 1.0
C      1  0.6003500000000  0.5448330000000  0.5202050000000 1.0
C      1  0.4664000000000  0.5105140000000  0.5359360000000 1.0
C      1  0.5271620000000  0.5457240000000  0.5438470000000 1.0
C      1  0.5844870000000  0.4970400000000  0.4463790000000 1.0
C      1  0.5664100000000  0.5141410000000  0.5436460000000 1.0
C      1  0.5135290000000  0.5634110000000  0.4902520000000 1.0
C      1  0.4167840000000  0.5713720000000  0.5113230000000 1.0
C      1  0.6373940000000  0.4899820000000  0.4956560000000 1.0
C      1  0.4958500000000  0.5881670000000  0.4232610000000 1.0
C      1  0.5090550000000  0.4978060000000  0.5000900000000 1.0
C      1  0.5226360000000  0.4334920000000  0.5924450000000 1.0
C      1  0.4026670000000  0.4677820000000  0.4990740000000 1.0
C      1  0.4196120000000  0.5593410000000  0.4288850000000 1.0
C      1  0.4784640000000  0.5331000000000  0.6070190000000 1.0
C      1  0.5358580000000  0.5426280000000  0.4983530000000 1.0
C      1  0.5659630000000  0.5913250000000  0.5010700000000 1.0
C      1  0.5084010000000  0.5623310000000  0.5232870000000 1.0
C      1  0.5398690000000  0.4269780000000  0.5475890000000 1.0
C      1  0.5329870000000  0.5650450000000  0.4110770000000 1.0
C      1  0.5471000000000  0.5324740000000  0.4140060000000 1.0
C      1  0.4300750000000  0.5099520000000  0.5871980000000 1.0
C      1  0.5783920000000  0.4475990000000  0.4909160000000 1.0
C      1  0.4208830000000  0.5242040000000  0.5591650000000 1.0
C      1  0.5196720000000  0.6069960000000  0.4268940000000 1.0
C      1  0.4626410000000  0.4636240000000  0.4684560000000 1.0
C      1  0.5989620000000  0.5527320000000  0.4710190000000 1.0
C      1  0.4876230000000  0.4559500000000  0.5224450000000 1.0
C      1  0.5990970000000  0.4770650000000  0.4626750000000 1.0
C      1  0.4477400000000  0.4451500000000  0.4298710000000 1.0
C      1  0.5276810000000  0.4480930000000  0.4374050000000 1.0
C      1  0.4329470000000  0.4987410000000  0.4755500000000 1.0
C      1  0.5097140000000  0.4575880000000  0.4139980000000 1.0
C      1  0.5113620000000  0.4267150000000  0.6182290000000 1.0
C      1  0.4241570000000  0.4409440000000  0.5291850000000 1.0
C      1  0.5374090000000  0.5193950000000  0.5369490000000 1.0
C      1  0.5696320000000  0.4492820000000  0.4358100000000 1.0
C      1  0.5416860000000  0.4555810000000  0.5877310000000 1.0
C      1  0.5277690000000  0.5960550000000  0.5390590000000 1.0
C      1  0.4863990000000  0.4271550000000  0.5264670000000 1.0
C      1  0.3943360000000  0.4793560000000  0.5449840000000 1.0
C      1  0.4548510000000  0.5536370000000  0.4510070000000 1.0
C      1  0.4791170000000  0.4706680000000  0.5688730000000 1.0
C      1  0.5604860000000  0.5003410000000  0.4847110000000 1.0
C      1  0.4631860000000  0.4238030000000  0.5703350000000 1.0
C      1  0.4482700000000  0.4007660000000  0.5575520000000 1.0
C      1  0.4855690000000  0.5542950000000  0.5673930000000 1.0
C      1  0.5015430000000  0.5329730000000  0.4430300000000 1.0
C      1  0.4870450000000  0.5335980000000  0.5451890000000 1.0
C      1  0.4955480000000  0.5186760000000  0.5871640000000 1.0
C      1  0.4892810000000  0.4193420000000  0.5549120000000 1.0
C      1  0.4680770000000  0.4902090000000  0.6186970000000 1.0
C      1  0.5401920000000  0.5589930000000  0.5690960000000 1.0
C      1  0.5118430000000  0.5780230000000  0.5658410000000 1.0
C      1  0.5616600000000  0.5176180000000  0.5939670000000 1.0
C      1  0.5194400000000  0.4933710000000  0.6147670000000 1.0
C      1  0.3833930000000  0.5230140000000  0.5184620000000 1.0
C      1  0.5683010000000  0.4709250000000  0.4137890000000 1.0
C      1  0.5021320000000  0.4093270000000  0.4829690000000 1.0
C      1  0.4977880000000  0.5597210000000  0.4041050000000 1.0
C      1  0.3989950000000  0.4568570000000  0.5254480000000 1.0
C      1  0.5292130000000  0.4238840000000  0.5204160000000 1.0
C      1  0.4510470000000  0.6108710000000  0.5326150000000 1.0
C      1  0.4330760000000  0.4172860000000  0.5130930000000 1.0
C      1  0.4506940000000  0.5957900000000  0.4852450000000 1.0
C      1  0.5541230000000  0.4654010000000  0.4899890000000 1.0
C      1  0.4545570000000  0.5642660000000  0.5281330000000 1.0
C      1  0.5641670000000  0.5649030000000  0.5488690000000 1.0
C      1  0.5127650000000  0.5287770000000  0.4149200000000 1.0
C      1  0.5875680000000  0.4505510000000  0.4606280000000 1.0
C      1  0.4669240000000  0.5012560000000  0.4423090000000 1.0
C      1  0.5305250000000  0.5163360000000  0.5093320000000 1.0
C      1  0.6481110000000  0.5068980000000  0.5165540000000 1.0
C      1  0.4268660000000  0.4742300000000  0.5815800000000 1.0
C      1  0.4122100000000  0.5348950000000  0.4789200000000 1.0
C      1  0.5000910000000  0.4016800000000  0.4528480000000 1.0
C      1  0.5135480000000  0.4715240000000  0.5136730000000 1.0
C      1  0.5295550000000  0.4128770000000  0.4454260000000 1.0
C      1  0.4950050000000  0.6103140000000  0.4709280000000 1.0
C      1  0.5699620000000  0.4267160000000  0.5358080000000 1.0
C      1  0.4397860000000  0.5903440000000  0.5123160000000 1.0
C      1  0.4523680000000  0.4559230000000  0.5687680000000 1.0
C      1  0.5920170000000  0.4679480000000  0.5136260000000 1.0
C      1  0.5334480000000  0.4760240000000  0.4550110000000 1.0
C      1  0.4707130000000  0.3816070000000  0.5102550000000 1.0
C      1  0.4040740000000  0.5534930000000  0.4543480000000 1.0
C      1  0.5454980000000  0.4963570000000  0.4126120000000 1.0
C      1  0.5830750000000  0.4762910000000  0.5705390000000 1.0
C      1  0.4950330000000  0.4809490000000  0.6246540000000 1.0
C      1  0.5041520000000  0.4444390000000  0.4563210000000 1.0
C      1  0.4818950000000  0.4255430000000  0.4443150000000 1.0
C      1  0.5135070000000  0.6082920000000  0.5174240000000 1.0
C      1  0.5436180000000  0.5200510000000  0.4638140000000 1.0
C      1  0.5723930000000  0.4216120000000  0.5049730000000 1.0
C      1  0.4327960000000  0.5388200000000  0.4119770000000 1.0
C      1  0.5992530000000  0.5179620000000  0.4325470000000 1.0
C      1  0.4976860000000  0.4609380000000  0.5509810000000 1.0
C      1  0.4085670000000  0.4240720000000  0.4719510000000 1.0
C      1  0.5711950000000  0.5032720000000  0.5701770000000 1.0
C      1  0.5257610000000  0.4735940000000  0.5454360000000 1.0
C      1  0.5164720000000  0.4337110000000  0.4794390000000 1.0
C      1  0.4912160000000  0.4663410000000  0.4671840000000 1.0
C      1  0.5393150000000  0.5988780000000  0.4518870000000 1.0
C      1  0.5482050000000  0.4569080000000  0.5573410000000 1.0
C      1  0.4182300000000  0.5137170000000  0.4089300000000 1.0
C      1  0.5118720000000  0.5963860000000  0.4910290000000 1.0
C      1  0.4564840000000  0.5570470000000  0.5766950000000 1.0
C      1  0.5986950000000  0.5348260000000  0.4934200000000 1.0
C      1  0.5895210000000  0.5077780000000  0.4896700000000 1.0
C      1  0.5596940000000  0.5375530000000  0.4440160000000 1.0
C      1  0.4388640000000  0.5524500000000  0.5531440000000 1.0
C      1  0.5016770000000  0.5013870000000  0.3850750000000 1.0
C      1  0.4366510000000  0.4165340000000  0.4801150000000 1.0
C      1  0.4487060000000  0.5388380000000  0.5997230000000 1.0
C      1  0.4246200000000  0.5447540000000  0.5026050000000 1.0
C      1  0.4835230000000  0.4084840000000  0.5047670000000 1.0
C      1  0.4509040000000  0.3880140000000  0.4847080000000 1.0
C      1  0.5523400000000  0.4013260000000  0.4611450000000 1.0
END
