TITL C-862500-986-984 3.81605309350299e-07 125000 -76.9224603875202 0 0 16 (Td) n - 1
REM
REM in /home/nfs/bkarasulu/CARBON/AIRSS/Generating-Clusters/TERSOFF/Higher-Symm/FIRE-HFTN
REM
REM
REM
REM
REM
REM ./C.cell (b20cbc046b6831c77cfcea5457e17084)
REM AIRSS Version 0.9.1 bugfix July 2018 build 013d7b7c2542+ Fri, 06 Jul 2018 19:26:36 +0100
REM compiler GCC version 9.2.1 20190827 (Red Hat 9.2.1-1)
REM options -cpp -mtune=generic -march=x86-64 -g -O0 -fpre-include=/usr/include/finclude/math-vector-fortran.h
REM seed 424330390 -1213364473 -2142085713 -116170618 -634203137 1382521313 1439065306 -1643931313 -1209843154 1362679709 -1802908319 279374317 1998203915 -1899129327 422674570 -46912011 -59871272 -1982460703 -24361986 -322673656 988918220 -980271748 390596331 -1041533215 -1597234897 -1015662471 814012199 -846457571 -305981509 -1742125311 25578440 -931027941 -1655458970
REM
CELL 1.54180   50.00000   50.00000   50.00000   90.00000   90.00000   90.00000
LATT -1
SFAC C  
C      1  0.4708220000000  0.4965030000000  0.4725270000000 1.0
C      1  0.4708220000000  0.4717010000000  0.4973290000000 1.0
C      1  0.4956250000000  0.4717010000000  0.4725270000000 1.0
C      1  0.5308290000000  0.5069050000000  0.4725270000000 1.0
C      1  0.5308290000000  0.4965030000000  0.5325340000000 1.0
C      1  0.4708220000000  0.5069050000000  0.5325340000000 1.0
C      1  0.5308290000000  0.5317080000000  0.4973290000000 1.0
C      1  0.5308290000000  0.4717010000000  0.5077310000000 1.0
C      1  0.4708220000000  0.5317080000000  0.5077310000000 1.0
C      1  0.5060270000000  0.5317080000000  0.4725270000000 1.0
C      1  0.5060270000000  0.4717010000000  0.5325340000000 1.0
C      1  0.4956250000000  0.5317080000000  0.5325340000000 1.0
C      1  0.4785730000000  0.4794510000000  0.5247830000000 1.0
C      1  0.4785730000000  0.5239570000000  0.4802770000000 1.0
C      1  0.5230790000000  0.4794510000000  0.4802770000000 1.0
C      1  0.5230790000000  0.5239570000000  0.5247830000000 1.0
END
