TITL C-862503-991-416 -2.56962537619351e-07 125000 -81.5799799199636 0 0 15 (D2) n - 1
REM
REM in /home/nfs/bkarasulu/CARBON/AIRSS/Generating-Clusters/TERSOFF/Higher-Symm/FIRE-HFTN
REM
REM
REM
REM
REM
REM ./C.cell (b20cbc046b6831c77cfcea5457e17084)
REM AIRSS Version 0.9.1 bugfix July 2018 build 013d7b7c2542+ Fri, 06 Jul 2018 19:26:36 +0100
REM compiler GCC version 9.2.1 20190827 (Red Hat 9.2.1-1)
REM options -cpp -mtune=generic -march=x86-64 -g -O0 -fpre-include=/usr/include/finclude/math-vector-fortran.h
REM seed 1632099470 1504478356 -1004724852 -718868216 431382501 1845114475 -1573314875 1928095674 168033903 1192667754 -1845335445 1875148981 1223757194 165517086 -645608992 1426808759 -1197181473 1703021010 -176284109 -1651186457 -1426464147 -2139030547 183382037 -1223005999 379022765 2073737463 -484762692 1268896777 -462104898 1524931300 571626281 -1719258758 1724564186
REM
CELL 1.54180   50.00000   50.00000   50.00000   90.00000   90.00000   90.00000
LATT -1
SFAC C  
C      1  0.5261300000000  0.4597320000000  0.4664520000000 1.0
C      1  0.4718670000000  0.5463110000000  0.5342840000000 1.0
C      1  0.4563460000000  0.5254730000000  0.5221530000000 1.0
C      1  0.5104820000000  0.4802890000000  0.4540080000000 1.0
C      1  0.5157910000000  0.5301600000000  0.4614120000000 1.0
C      1  0.4653380000000  0.4757310000000  0.5260240000000 1.0
C      1  0.5239720000000  0.5441720000000  0.4855720000000 1.0
C      1  0.4908940000000  0.4620220000000  0.5284640000000 1.0
C      1  0.5289000000000  0.4597210000000  0.4949930000000 1.0
C      1  0.5002660000000  0.5466020000000  0.5303180000000 1.0
C      1  0.5127620000000  0.5306830000000  0.5094180000000 1.0
C      1  0.5113160000000  0.4755940000000  0.5118820000000 1.0
C      1  0.4689150000000  0.5013990000000  0.5117200000000 1.0
C      1  0.5030020000000  0.5044090000000  0.4684530000000 1.0
C      1  0.4989990000000  0.5030210000000  0.5003680000000 1.0
END
