TITL C-862505-1648-110 -13.347544558057 125000 -891.029800863727 0 0 148 (C3) n - 1
REM
REM in /home/nfs/bkarasulu/CARBON/AIRSS/Generating-Clusters/TERSOFF/Higher-Symm/FIRE-HFTN
REM
REM
REM
REM
REM
REM ./C.cell (b20cbc046b6831c77cfcea5457e17084)
REM AIRSS Version 0.9.1 bugfix July 2018 build 013d7b7c2542+ Fri, 06 Jul 2018 19:26:36 +0100
REM compiler GCC version 9.2.1 20190827 (Red Hat 9.2.1-1)
REM options -cpp -mtune=generic -march=x86-64 -g -O0 -fpre-include=/usr/include/finclude/math-vector-fortran.h
REM seed -1626459924 1039805054 1368152889 -1636952448 1480005166 1393724492 100550294 524274880 869057978 -385630017 40747330 247232756 -1418752178 -537238733 -1688227894 -1173127677 -1744824097 -1350011956 -1156552058 422559367 1084773842 1057438643 1251143691 112313406 1038020573 93100767 -822400957 -1382894612 -1098105192 471040129 1718032856 -1751973717 -766704369
REM
CELL 1.54180   50.00000   50.00000   50.00000   90.00000   90.00000   90.00000
LATT -1
SFAC C  
C      1  0.5534410000000  0.4386960000000  0.4858320000000 1.0
C      1  0.5534410000000  0.5431030000000  0.4538530000000 1.0
C      1  0.5534410000000  0.5185950000000  0.5602610000000 1.0
C      1  0.5415230000000  0.5359910000000  0.6052490000000 1.0
C      1  0.5415230000000  0.3910380000000  0.4784040000000 1.0
C      1  0.5415230000000  0.5733660000000  0.4162930000000 1.0
C      1  0.5670640000000  0.6139130000000  0.5365030000000 1.0
C      1  0.5670640000000  0.4116130000000  0.5802590000000 1.0
C      1  0.5670640000000  0.4748690000000  0.3831850000000 1.0
C      1  0.5544720000000  0.5704900000000  0.4429910000000 1.0
C      1  0.5544720000000  0.5143080000000  0.5894100000000 1.0
C      1  0.5544720000000  0.4155960000000  0.4675450000000 1.0
C      1  0.5327630000000  0.4589260000000  0.4806380000000 1.0
C      1  0.5327630000000  0.5374870000000  0.4739690000000 1.0
C      1  0.5327630000000  0.5039820000000  0.5453390000000 1.0
C      1  0.4025480000000  0.5143130000000  0.5499970000000 1.0
C      1  0.4025480000000  0.4497260000000  0.4872560000000 1.0
C      1  0.4025480000000  0.5363550000000  0.4626930000000 1.0
C      1  0.4117190000000  0.5395360000000  0.5098670000000 1.0
C      1  0.4117200000000  0.4718680000000  0.5291650000000 1.0
C      1  0.4117200000000  0.4889900000000  0.4609140000000 1.0
C      1  0.4861100000000  0.5381240000000  0.4590890000000 1.0
C      1  0.4861100000000  0.5165500000000  0.5533310000000 1.0
C      1  0.4861100000000  0.4457210000000  0.4875260000000 1.0
C      1  0.5602180000000  0.4636240000000  0.5538070000000 1.0
C      1  0.5602180000000  0.4717720000000  0.4414530000000 1.0
C      1  0.5602180000000  0.5649990000000  0.5046860000000 1.0
C      1  0.5552390000000  0.5948410000000  0.4616590000000 1.0
C      1  0.5552390000000  0.4859660000000  0.6011640000000 1.0
C      1  0.5552390000000  0.4195880000000  0.4371230000000 1.0
C      1  0.5996690000000  0.4725360000000  0.5061250000000 1.0
C      1  0.5996690000000  0.5086090000000  0.4730120000000 1.0
C      1  0.5996690000000  0.5192490000000  0.5208090000000 1.0
C      1  0.5223880000000  0.5494060000000  0.4076450000000 1.0
C      1  0.5223880000000  0.5554610000000  0.5888240000000 1.0
C      1  0.5223880000000  0.3955280000000  0.5034780000000 1.0
C      1  0.5087990000000  0.4600630000000  0.4967590000000 1.0
C      1  0.5087990000000  0.5229570000000  0.4668930000000 1.0
C      1  0.5087990000000  0.5173740000000  0.5362940000000 1.0
C      1  0.5177860000000  0.4987530000000  0.6325760000000 1.0
C      1  0.5177860000000  0.3859910000000  0.4324910000000 1.0
C      1  0.5177860000000  0.6156510000000  0.4348790000000 1.0
C      1  0.5082170000000  0.4578820000000  0.5509680000000 1.0
C      1  0.5082170000000  0.4771010000000  0.4379000000000 1.0
C      1  0.5082170000000  0.5654120000000  0.5110780000000 1.0
C      1  0.4236610000000  0.4235780000000  0.5243140000000 1.0
C      1  0.4236610000000  0.5173360000000  0.4215190000000 1.0
C      1  0.4236610000000  0.5594800000000  0.5541130000000 1.0
C      1  0.4067510000000  0.5129940000000  0.4455560000000 1.0
C      1  0.4067510000000  0.5408350000000  0.5383350000000 1.0
C      1  0.4067510000000  0.4465650000000  0.5160560000000 1.0
C      1  0.4711560000000  0.5533110000000  0.5396030000000 1.0
C      1  0.4711560000000  0.4392290000000  0.5262270000000 1.0
C      1  0.4711560000000  0.5078540000000  0.4341170000000 1.0
C      1  0.4784640000000  0.4504710000000  0.5903520000000 1.0
C      1  0.4784640000000  0.4466990000000  0.4117900000000 1.0
C      1  0.4784640000000  0.6032240000000  0.4978040000000 1.0
C      1  0.4215370000000  0.4033720000000  0.4264110000000 1.0
C      1  0.4215370000000  0.6122260000000  0.4529710000000 1.0
C      1  0.4215370000000  0.4847970000000  0.6205640000000 1.0
C      1  0.5962450000000  0.4804350000000  0.4784690000000 1.0
C      1  0.5962450000000  0.5286100000000  0.4936810000000 1.0
C      1  0.5962450000000  0.4913490000000  0.5277960000000 1.0
C      1  0.4807260000000  0.5049880000000  0.6011420000000 1.0
C      1  0.4807260000000  0.4100960000000  0.4536080000000 1.0
C      1  0.4807260000000  0.5853100000000  0.4451960000000 1.0
C      1  0.4622210000000  0.5547590000000  0.5111900000000 1.0
C      1  0.4622210000000  0.4631120000000  0.5416870000000 1.0
C      1  0.4622210000000  0.4825240000000  0.4470700000000 1.0
C      1  0.3904330000000  0.4912140000000  0.5356930000000 1.0
C      1  0.3904330000000  0.4736630000000  0.4744040000000 1.0
C      1  0.3904330000000  0.5355170000000  0.4898490000000 1.0
C      1  0.4756610000000  0.5747070000000  0.4179800000000 1.0
C      1  0.4756610000000  0.5338600000000  0.6055680000000 1.0
C      1  0.4756610000000  0.3918280000000  0.4763990000000 1.0
C      1  0.4821960000000  0.5731170000000  0.4945970000000 1.0
C      1  0.4821960000000  0.4683020000000  0.5658820000000 1.0
C      1  0.4821960000000  0.4589750000000  0.4394670000000 1.0
C      1  0.4423810000000  0.5935080000000  0.4602460000000 1.0
C      1  0.4423810000000  0.4878560000000  0.6007170000000 1.0
C      1  0.4423820000000  0.4190300000000  0.4389840000000 1.0
C      1  0.5201700000000  0.5501040000000  0.5599910000000 1.0
C      1  0.5201700000000  0.4231750000000  0.5132550000000 1.0
C      1  0.5201700000000  0.5271150000000  0.4267000000000 1.0
C      1  0.4291680000000  0.4515460000000  0.4746880000000 1.0
C      1  0.4291680000000  0.5463300000000  0.4705530000000 1.0
C      1  0.4291680000000  0.5025190000000  0.5547050000000 1.0
C      1  0.4823640000000  0.4967180000000  0.5734280000000 1.0
C      1  0.4823640000000  0.4382320000000  0.4603020000000 1.0
C      1  0.4823640000000  0.5654450000000  0.4662150000000 1.0
C      1  0.4423210000000  0.4274220000000  0.4668120000000 1.0
C      1  0.4423210000000  0.5652120000000  0.4535990000000 1.0
C      1  0.4423210000000  0.5077600000000  0.5795350000000 1.0
C      1  0.5723160000000  0.4408350000000  0.5085640000000 1.0
C      1  0.5723160000000  0.5223480000000  0.4443390000000 1.0
C      1  0.5723160000000  0.5372120000000  0.5470430000000 1.0
C      1  0.4656150000000  0.6141520000000  0.5214490000000 1.0
C      1  0.4656150000000  0.4245300000000  0.5879940000000 1.0
C      1  0.4656150000000  0.4617120000000  0.3905040000000 1.0
C      1  0.4547210000000  0.5338620000000  0.5836140000000 1.0
C      1  0.4547220000000  0.4108380000000  0.4873780000000 1.0
C      1  0.4547210000000  0.5556940000000  0.4289540000000 1.0
C      1  0.5014530000000  0.5467880000000  0.6117090000000 1.0
C      1  0.5014530000000  0.3800450000000  0.4845240000000 1.0
C      1  0.5014530000000  0.5735620000000  0.4037130000000 1.0
C      1  0.5654640000000  0.4984920000000  0.4280710000000 1.0
C      1  0.5654640000000  0.5632280000000  0.5345180000000 1.0
C      1  0.5654640000000  0.4386740000000  0.5373580000000 1.0
C      1  0.5007990000000  0.5051130000000  0.4274770000000 1.0
C      1  0.5007990000000  0.5604320000000  0.5405480000000 1.0
C      1  0.5007990000000  0.4348500000000  0.5319210000000 1.0
C      1  0.5333180000000  0.4716290000000  0.4542250000000 1.0
C      1  0.5333180000000  0.5540100000000  0.4981770000000 1.0
C      1  0.5333180000000  0.4747560000000  0.5475450000000 1.0
C      1  0.4410640000000  0.5358750000000  0.4986110000000 1.0
C      1  0.4410640000000  0.4834470000000  0.5316230000000 1.0
C      1  0.4410640000000  0.4810720000000  0.4697130000000 1.0
C      1  0.5605380000000  0.5925500000000  0.4911030000000 1.0
C      1  0.5605380000000  0.4616120000000  0.5844590000000 1.0
C      1  0.5605380000000  0.4462320000000  0.4243850000000 1.0
C      1  0.5222240000000  0.5978510000000  0.4112710000000 1.0
C      1  0.5222240000000  0.5280980000000  0.6289650000000 1.0
C      1  0.5222250000000  0.3744460000000  0.4597100000000 1.0
C      1  0.4881900000000  0.4193470000000  0.4072450000000 1.0
C      1  0.4881900000000  0.6208360000000  0.4763900000000 1.0
C      1  0.4881900000000  0.4602110000000  0.6163120000000 1.0
C      1  0.5413900000000  0.6183160000000  0.4515740000000 1.0
C      1  0.5413900000000  0.4829620000000  0.6265370000000 1.0
C      1  0.5413900000000  0.3991160000000  0.4218350000000 1.0
C      1  0.5826860000000  0.5533030000000  0.4880620000000 1.0
C      1  0.5826860000000  0.4838690000000  0.5519900000000 1.0
C      1  0.5826860000000  0.4632220000000  0.4598940000000 1.0
C      1  0.5054580000000  0.4959840000000  0.4753010000000 1.0
C      1  0.5054580000000  0.5235800000000  0.5087310000000 1.0
C      1  0.5054580000000  0.4808310000000  0.5159150000000 1.0
C      1  0.4517910000000  0.4196420000000  0.5153210000000 1.0
C      1  0.4517910000000  0.5270920000000  0.4226060000000 1.0
C      1  0.4517910000000  0.5536600000000  0.5620190000000 1.0
C      1  0.5672870000000  0.5881790000000  0.5494970000000 1.0
C      1  0.5672870000000  0.4132270000000  0.5514760000000 1.0
C      1  0.5672870000000  0.4989890000000  0.3989730000000 1.0
C      1  0.4925280000000  0.6111510000000  0.4492970000000 1.0
C      1  0.4925280000000  0.4885160000000  0.6214710000000 1.0
C      1  0.4925280000000  0.4007270000000  0.4291780000000 1.0
C      1  0.5641540000000  0.6160270000000  0.5079160000000 1.0
C      1  0.5641540000000  0.4353130000000  0.5963830000000 1.0
C      1  0.5641540000000  0.4490550000000  0.3956470000000 1.0
C      1  0.4454280000000  0.5001310000000  0.4999820000000 1.0
END
