TITL C-862130-1496-115 -4.61134686842389e-05 125000 -288.728852281808 0 0 52 (C1) n - 1
REM
REM in /home/nfs/bkarasulu/CARBON/AIRSS/Generating-Clusters/TERSOFF/Higher-Symm/FIRE-HFTN
REM
REM
REM
REM
REM
REM ./C.cell (b20cbc046b6831c77cfcea5457e17084)
REM AIRSS Version 0.9.1 bugfix July 2018 build 013d7b7c2542+ Fri, 06 Jul 2018 19:26:36 +0100
REM compiler GCC version 9.2.1 20190827 (Red Hat 9.2.1-1)
REM options -cpp -mtune=generic -march=x86-64 -g -O0 -fpre-include=/usr/include/finclude/math-vector-fortran.h
REM seed -1369477192 575004494 1593592150 854832253 40206285 -49383727 1976696900 -568923394 1422196381 -1012826255 -1184775969 1164436929 -1602315885 -1850354787 -1134717801 1873124356 -1607075499 1872527517 475264381 -1898091451 23266791 882707028 -2037546766 1311964250 -2087277195 1912012880 -748363951 1717257452 -1704427904 -583493779 190300566 -1540380116 1465555590
REM
CELL 1.54180   50.00000   50.00000   50.00000   90.00000   90.00000   90.00000
LATT -1
SFAC C  
C      1  0.4282310000000  0.5166270000000  0.4914030000000 1.0
C      1  0.4289040000000  0.4850800000000  0.4904790000000 1.0
C      1  0.5363450000000  0.4748750000000  0.5349540000000 1.0
C      1  0.5364930000000  0.5250890000000  0.5349930000000 1.0
C      1  0.4853690000000  0.4440480000000  0.5434800000000 1.0
C      1  0.4859550000000  0.5559850000000  0.5438290000000 1.0
C      1  0.4540290000000  0.4746970000000  0.5018380000000 1.0
C      1  0.4540930000000  0.5260730000000  0.5022180000000 1.0
C      1  0.4755780000000  0.5341100000000  0.4825840000000 1.0
C      1  0.4755670000000  0.4662580000000  0.4825200000000 1.0
C      1  0.5029210000000  0.4653580000000  0.4974700000000 1.0
C      1  0.5029970000000  0.5348750000000  0.4974940000000 1.0
C      1  0.5493540000000  0.4819690000000  0.4690590000000 1.0
C      1  0.5494220000000  0.5179770000000  0.4690750000000 1.0
C      1  0.5061400000000  0.5308530000000  0.4396850000000 1.0
C      1  0.5060400000000  0.4693440000000  0.4396320000000 1.0
C      1  0.5210960000000  0.4854750000000  0.4814680000000 1.0
C      1  0.5211050000000  0.5147000000000  0.4814810000000 1.0
C      1  0.5654580000000  0.5273050000000  0.4932500000000 1.0
C      1  0.5653310000000  0.4725320000000  0.4932310000000 1.0
C      1  0.5166890000000  0.4840310000000  0.5809750000000 1.0
C      1  0.5169270000000  0.5159780000000  0.5810960000000 1.0
C      1  0.5112340000000  0.4845220000000  0.5222550000000 1.0
C      1  0.5113050000000  0.5156100000000  0.5222840000000 1.0
C      1  0.4864410000000  0.5153290000000  0.4578670000000 1.0
C      1  0.4864260000000  0.4849170000000  0.4578590000000 1.0
C      1  0.5272900000000  0.4405330000000  0.4881100000000 1.0
C      1  0.5273970000000  0.5596530000000  0.4880940000000 1.0
C      1  0.4852320000000  0.4841530000000  0.5736590000000 1.0
C      1  0.4855550000000  0.5156760000000  0.5737190000000 1.0
C      1  0.4945870000000  0.4449550000000  0.4288640000000 1.0
C      1  0.4948070000000  0.5552880000000  0.4289100000000 1.0
C      1  0.4617680000000  0.4856700000000  0.5287510000000 1.0
C      1  0.4619260000000  0.5147320000000  0.5288940000000 1.0
C      1  0.4207220000000  0.5134500000000  0.4606220000000 1.0
C      1  0.4205660000000  0.4815550000000  0.4597230000000 1.0
C      1  0.5203880000000  0.4192760000000  0.5114500000000 1.0
C      1  0.5208240000000  0.5807770000000  0.5116470000000 1.0
C      1  0.4681400000000  0.5611120000000  0.4708700000000 1.0
C      1  0.4680310000000  0.4392550000000  0.4708980000000 1.0
C      1  0.5358380000000  0.5296360000000  0.4439830000000 1.0
C      1  0.5357380000000  0.4703870000000  0.4439620000000 1.0
C      1  0.5607680000000  0.4846650000000  0.5202110000000 1.0
C      1  0.5608430000000  0.5151730000000  0.5202170000000 1.0
C      1  0.4747300000000  0.5303350000000  0.5507000000000 1.0
C      1  0.4743660000000  0.4697570000000  0.5504790000000 1.0
C      1  0.4982440000000  0.4400410000000  0.5183410000000 1.0
C      1  0.4986420000000  0.5600740000000  0.5186030000000 1.0
C      1  0.5357470000000  0.4704530000000  0.5636220000000 1.0
C      1  0.5359860000000  0.5294720000000  0.5636790000000 1.0
C      1  0.4763210000000  0.5703210000000  0.4447510000000 1.0
C      1  0.4760960000000  0.4299860000000  0.4447630000000 1.0
END
