TITL C-862133-5440-780 -21.8667946540892 125000 -677.959101967616 0 0 118 (C3) n - 1
REM
REM in /home/nfs/bkarasulu/CARBON/AIRSS/Generating-Clusters/TERSOFF/Higher-Symm/FIRE-HFTN
REM
REM
REM
REM
REM
REM ./C.cell (b20cbc046b6831c77cfcea5457e17084)
REM AIRSS Version 0.9.1 bugfix July 2018 build 013d7b7c2542+ Fri, 06 Jul 2018 19:26:36 +0100
REM compiler GCC version 9.2.1 20190827 (Red Hat 9.2.1-1)
REM options -cpp -mtune=generic -march=x86-64 -g -O0 -fpre-include=/usr/include/finclude/math-vector-fortran.h
REM seed -1623186725 -45384919 1206230337 1354045486 1095074031 -731423977 521901836 -1749021292 -1003450622 168691756 879452049 -1046636749 -85544885 1935330820 -1743501519 -1387431685 -2139742823 -329076153 534972731 -2079343544 1697692978 -1715317325 -1584063127 370820198 427826845 1743819810 1690838348 2011659637 2119506782 -1145013652 1888496004 599391754 599790281
REM
CELL 1.54180   50.00000   50.00000   50.00000   90.00000   90.00000   90.00000
LATT -1
SFAC C  
C      1  0.5535250000000  0.4545900000000  0.5717210000000 1.0
C      1  0.4333960000000  0.4759880000000  0.5717210000000 1.0
C      1  0.5119920000000  0.5693240000000  0.5717210000000 1.0
C      1  0.5453990000000  0.4766650000000  0.4604830000000 1.0
C      1  0.4565770000000  0.4719880000000  0.4604820000000 1.0
C      1  0.4969370000000  0.5512490000000  0.4604830000000 1.0
C      1  0.4297370000000  0.4903850000000  0.5437190000000 1.0
C      1  0.5262900000000  0.5652940000000  0.5437190000000 1.0
C      1  0.5428870000000  0.4442230000000  0.5437190000000 1.0
C      1  0.5774800000000  0.5482440000000  0.5479180000000 1.0
C      1  0.5025260000000  0.4084160000000  0.5479180000000 1.0
C      1  0.4189080000000  0.5432420000000  0.5479170000000 1.0
C      1  0.5118190000000  0.4369670000000  0.5465330000000 1.0
C      1  0.4389880000000  0.5209180000000  0.5465330000000 1.0
C      1  0.5481070000000  0.5420170000000  0.5465330000000 1.0
C      1  0.6003250000000  0.5017070000000  0.4933890000000 1.0
C      1  0.4508010000000  0.4119000000000  0.4933890000000 1.0
C      1  0.4477880000000  0.5862950000000  0.4933890000000 1.0
C      1  0.4491150000000  0.4482300000000  0.5690940000000 1.0
C      1  0.4800940000000  0.5695900000000  0.5690940000000 1.0
C      1  0.5697050000000  0.4820810000000  0.5690940000000 1.0
C      1  0.5834850000000  0.5037800000000  0.4471180000000 1.0
C      1  0.4610160000000  0.4254470000000  0.4471170000000 1.0
C      1  0.4544130000000  0.5706750000000  0.4471170000000 1.0
C      1  0.5196510000000  0.5928120000000  0.4531840000000 1.0
C      1  0.5700380000000  0.4362130000000  0.4531840000000 1.0
C      1  0.4092250000000  0.4708760000000  0.4531840000000 1.0
C      1  0.4871950000000  0.5821740000000  0.4568050000000 1.0
C      1  0.5770520000000  0.4696400000000  0.4568050000000 1.0
C      1  0.4346660000000  0.4480880000000  0.4568050000000 1.0
C      1  0.4781220000000  0.4559580000000  0.4096460000000 1.0
C      1  0.4722830000000  0.5406050000000  0.4096460000000 1.0
C      1  0.5485090000000  0.5033390000000  0.4096460000000 1.0
C      1  0.5483520000000  0.4174820000000  0.4669190000000 1.0
C      1  0.4038470000000  0.4990220000000  0.4669180000000 1.0
C      1  0.5467150000000  0.5833970000000  0.4669190000000 1.0
C      1  0.5405700000000  0.5291950000000  0.5734560000000 1.0
C      1  0.5044840000000  0.4499050000000  0.5734550000000 1.0
C      1  0.4538600000000  0.5208020000000  0.5734550000000 1.0
C      1  0.5977280000000  0.5318360000000  0.5355160000000 1.0
C      1  0.4781920000000  0.3990840000000  0.5355160000000 1.0
C      1  0.4229940000000  0.5689810000000  0.5355160000000 1.0
C      1  0.5792760000000  0.4833000000000  0.5378210000000 1.0
C      1  0.4453850000000  0.4393320000000  0.5378210000000 1.0
C      1  0.4742530000000  0.5772690000000  0.5378210000000 1.0
C      1  0.4667880000000  0.4756890000000  0.5097420000000 1.0
C      1  0.4950370000000  0.5405550000000  0.5097420000000 1.0
C      1  0.5370880000000  0.4836580000000  0.5097420000000 1.0
C      1  0.5208350000000  0.5456100000000  0.5886100000000 1.0
C      1  0.5285670000000  0.4587890000000  0.5886100000000 1.0
C      1  0.4495120000000  0.4955030000000  0.5886100000000 1.0
C      1  0.5690740000000  0.4505960000000  0.4973660000000 1.0
C      1  0.4221630000000  0.4645200000000  0.4973660000000 1.0
C      1  0.5076770000000  0.5847860000000  0.4973660000000 1.0
C      1  0.4723070000000  0.4800010000000  0.5984370000000 1.0
C      1  0.4960120000000  0.5336200000000  0.5984370000000 1.0
C      1  0.5305950000000  0.4862810000000  0.5984370000000 1.0
C      1  0.4726040000000  0.5340970000000  0.4567160000000 1.0
C      1  0.5427120000000  0.5063150000000  0.4567160000000 1.0
C      1  0.4835980000000  0.4594900000000  0.4567160000000 1.0
C      1  0.5937020000000  0.5203830000000  0.4707820000000 1.0
C      1  0.4702870000000  0.4082980000000  0.4707820000000 1.0
C      1  0.4349250000000  0.5712200000000  0.4707820000000 1.0
C      1  0.5487250000000  0.4741850000000  0.5336370000000 1.0
C      1  0.4527660000000  0.4703480000000  0.5336370000000 1.0
C      1  0.4974230000000  0.5553690000000  0.5336370000000 1.0
C      1  0.4162370000000  0.5487640000000  0.4759510000000 1.0
C      1  0.5835970000000  0.5477960000000  0.4759510000000 1.0
C      1  0.4990790000000  0.4033420000000  0.4759510000000 1.0
C      1  0.5202320000000  0.4109770000000  0.4554000000000 1.0
C      1  0.4122730000000  0.5266280000000  0.4554000000000 1.0
C      1  0.5664090000000  0.5622970000000  0.4554010000000 1.0
C      1  0.5559940000000  0.4232710000000  0.5264480000000 1.0
C      1  0.4050390000000  0.4895100000000  0.5264480000000 1.0
C      1  0.5378810000000  0.5871210000000  0.5264480000000 1.0
C      1  0.4986090000000  0.5290550000000  0.4137090000000 1.0
C      1  0.5253440000000  0.4863150000000  0.4137090000000 1.0
C      1  0.4749620000000  0.4845320000000  0.4137090000000 1.0
C      1  0.4570940000000  0.4908350000000  0.4367470000000 1.0
C      1  0.5130010000000  0.5413780000000  0.4367470000000 1.0
C      1  0.5288190000000  0.4676890000000  0.4367470000000 1.0
C      1  0.5516660000000  0.5804950000000  0.4996070000000 1.0
C      1  0.5433630000000  0.4146460000000  0.4996070000000 1.0
C      1  0.4038850000000  0.5047600000000  0.4996060000000 1.0
C      1  0.4853280000000  0.4394280000000  0.4328970000000 1.0
C      1  0.4543650000000  0.5426300000000  0.4328970000000 1.0
C      1  0.5592220000000  0.5178440000000  0.4328970000000 1.0
C      1  0.4739810000000  0.5221040000000  0.5055910000000 1.0
C      1  0.5316380000000  0.5111180000000  0.5055910000000 1.0
C      1  0.4932950000000  0.4666790000000  0.5055910000000 1.0
C      1  0.4287890000000  0.5287550000000  0.4320200000000 1.0
C      1  0.5599930000000  0.5469300000000  0.4320200000000 1.0
C      1  0.5101320000000  0.4242170000000  0.4320200000000 1.0
C      1  0.4477380000000  0.5772710000000  0.5224120000000 1.0
C      1  0.5925350000000  0.5062620000000  0.5224120000000 1.0
C      1  0.4586410000000  0.4163690000000  0.5224120000000 1.0
C      1  0.4289700000000  0.4269350000000  0.4799370000000 1.0
C      1  0.4717240000000  0.5976830000000  0.4799370000000 1.0
C      1  0.5982200000000  0.4752830000000  0.4799370000000 1.0
C      1  0.5356800000000  0.5536280000000  0.4943660000000 1.0
C      1  0.5280890000000  0.4419230000000  0.4943660000000 1.0
C      1  0.4351450000000  0.5043500000000  0.4943660000000 1.0
C      1  0.5499720000000  0.5027600000000  0.5833580000000 1.0
C      1  0.4768890000000  0.4549800000000  0.5833580000000 1.0
C      1  0.4720520000000  0.5421620000000  0.5833580000000 1.0
C      1  0.5085530000000  0.4061920000000  0.5039350000000 1.0
C      1  0.4139690000000  0.5391340000000  0.5039350000000 1.0
C      1  0.5763920000000  0.5545760000000  0.5039350000000 1.0
C      1  0.5433380000000  0.4655980000000  0.4881840000000 1.0
C      1  0.4480240000000  0.4793060000000  0.4881840000000 1.0
C      1  0.5075520000000  0.5549970000000  0.4881840000000 1.0
C      1  0.5488410000000  0.5337920000000  0.5155890000000 1.0
C      1  0.5043290000000  0.4404440000000  0.5155880000000 1.0
C      1  0.4457430000000  0.5256660000000  0.5155880000000 1.0
C      1  0.4932590000000  0.5951010000000  0.5207180000000 1.0
C      1  0.5852160000000  0.4579240000000  0.5207180000000 1.0
C      1  0.4204390000000  0.4468760000000  0.5207180000000 1.0
C      1  0.4996380000000  0.4999670000000  0.4104930000000 1.0
END
