TITL C-862501-1041-1073 0.000462989163834307 125000 -688.232704103604 0 0 127 (C1) n - 1
REM
REM in /home/nfs/bkarasulu/CARBON/AIRSS/Generating-Clusters/TERSOFF/Higher-Symm/FIRE-HFTN
REM
REM
REM
REM
REM
REM ./C.cell (b20cbc046b6831c77cfcea5457e17084)
REM AIRSS Version 0.9.1 bugfix July 2018 build 013d7b7c2542+ Fri, 06 Jul 2018 19:26:36 +0100
REM compiler GCC version 9.2.1 20190827 (Red Hat 9.2.1-1)
REM options -cpp -mtune=generic -march=x86-64 -g -O0 -fpre-include=/usr/include/finclude/math-vector-fortran.h
REM seed 485791617 -1696996275 238255066 1625919931 -927006607 1242233276 1074869904 -2119667749 -704812167 1571242652 1262062214 -256155486 -831086617 1109655295 -2110578215 730101464 2043265266 184346894 -1896534897 448585182 -1225706221 1095190756 -347218472 -1653244843 274117836 511732708 -1817088115 -1166900012 103557799 -1837327710 -315229419 420762425 -931614702
REM
CELL 1.54180   50.00000   50.00000   50.00000   90.00000   90.00000   90.00000
LATT -1
SFAC C  
C      1  0.4951050000000  0.5595240000000  0.5244300000000 1.0
C      1  0.4425570000000  0.4605520000000  0.5216630000000 1.0
C      1  0.5598460000000  0.4771490000000  0.5223730000000 1.0
C      1  0.4950140000000  0.5595890000000  0.4755320000000 1.0
C      1  0.4412590000000  0.4607290000000  0.4785260000000 1.0
C      1  0.5599780000000  0.4769600000000  0.4774000000000 1.0
C      1  0.5390390000000  0.5970820000000  0.5456450000000 1.0
C      1  0.3938450000000  0.4853560000000  0.5419770000000 1.0
C      1  0.5650180000000  0.4201610000000  0.5448750000000 1.0
C      1  0.5387420000000  0.5973700000000  0.4537360000000 1.0
C      1  0.3916640000000  0.4847940000000  0.4550600000000 1.0
C      1  0.5652700000000  0.4199320000000  0.4543340000000 1.0
C      1  0.5831900000000  0.4999370000000  0.5159510000000 1.0
C      1  0.4628750000000  0.5674500000000  0.5158820000000 1.0
C      1  0.4534800000000  0.4295370000000  0.5159350000000 1.0
C      1  0.5831800000000  0.4999340000000  0.4837970000000 1.0
C      1  0.4628260000000  0.5673300000000  0.4842660000000 1.0
C      1  0.4533490000000  0.4296310000000  0.4844270000000 1.0
C      1  0.4963460000000  0.6070850000000  0.5148370000000 1.0
C      1  0.4036070000000  0.4381160000000  0.5146770000000 1.0
C      1  0.5991530000000  0.4504590000000  0.5148080000000 1.0
C      1  0.4961230000000  0.6071960000000  0.4849720000000 1.0
C      1  0.4031170000000  0.4370830000000  0.4838990000000 1.0
C      1  0.5994380000000  0.4504740000000  0.4847410000000 1.0
C      1  0.5503630000000  0.4705340000000  0.5522130000000 1.0
C      1  0.5062370000000  0.5572730000000  0.5553000000000 1.0
C      1  0.4423820000000  0.4713080000000  0.5506050000000 1.0
C      1  0.5503920000000  0.4704880000000  0.4475250000000 1.0
C      1  0.5059100000000  0.5572190000000  0.4445750000000 1.0
C      1  0.4415040000000  0.4712850000000  0.4492340000000 1.0
C      1  0.5398770000000  0.5691480000000  0.4845900000000 1.0
C      1  0.4200870000000  0.5002640000000  0.4815620000000 1.0
C      1  0.5411260000000  0.4361640000000  0.4843750000000 1.0
C      1  0.5400160000000  0.5690980000000  0.5145590000000 1.0
C      1  0.4198530000000  0.4996870000000  0.5124530000000 1.0
C      1  0.5411150000000  0.4361000000000  0.5144690000000 1.0
C      1  0.4516990000000  0.5320170000000  0.4224610000000 1.0
C      1  0.4950020000000  0.4426270000000  0.4241680000000 1.0
C      1  0.5554500000000  0.5258590000000  0.4201070000000 1.0
C      1  0.4522220000000  0.5320890000000  0.5773000000000 1.0
C      1  0.4951960000000  0.4425420000000  0.5759850000000 1.0
C      1  0.5558080000000  0.5258250000000  0.5796890000000 1.0
C      1  0.5480860000000  0.4036860000000  0.4816020000000 1.0
C      1  0.5616720000000  0.5936110000000  0.4815350000000 1.0
C      1  0.3872800000000  0.5092490000000  0.4811150000000 1.0
C      1  0.5479240000000  0.4037230000000  0.5176890000000 1.0
C      1  0.5618550000000  0.5934420000000  0.5177560000000 1.0
C      1  0.3883160000000  0.5096310000000  0.5171070000000 1.0
C      1  0.4543280000000  0.5601130000000  0.4357810000000 1.0
C      1  0.4677970000000  0.4295080000000  0.4357240000000 1.0
C      1  0.5792130000000  0.5098640000000  0.4341010000000 1.0
C      1  0.4547560000000  0.5604180000000  0.5644460000000 1.0
C      1  0.4678090000000  0.4293600000000  0.5645710000000 1.0
C      1  0.5794560000000  0.5097550000000  0.5656510000000 1.0
C      1  0.5103070000000  0.4805340000000  0.5249010000000 1.0
C      1  0.5169760000000  0.5223650000000  0.5237280000000 1.0
C      1  0.4731960000000  0.5032100000000  0.5257950000000 1.0
C      1  0.5104190000000  0.4805660000000  0.4754240000000 1.0
C      1  0.5167510000000  0.5224510000000  0.4762720000000 1.0
C      1  0.4729000000000  0.5030710000000  0.4745910000000 1.0
C      1  0.5036740000000  0.4168700000000  0.5349500000000 1.0
C      1  0.5732130000000  0.5484200000000  0.5389650000000 1.0
C      1  0.4217380000000  0.5382530000000  0.5386790000000 1.0
C      1  0.5037940000000  0.4172660000000  0.4652940000000 1.0
C      1  0.5728350000000  0.5484560000000  0.4608420000000 1.0
C      1  0.4220030000000  0.5372270000000  0.4617280000000 1.0
C      1  0.4761070000000  0.5163110000000  0.5863980000000 1.0
C      1  0.4978380000000  0.4706710000000  0.5859860000000 1.0
C      1  0.5303150000000  0.5129330000000  0.5910170000000 1.0
C      1  0.4756370000000  0.5162520000000  0.4135510000000 1.0
C      1  0.4975030000000  0.4707540000000  0.4142960000000 1.0
C      1  0.5299110000000  0.5128910000000  0.4089190000000 1.0
C      1  0.5139820000000  0.4529440000000  0.4847230000000 1.0
C      1  0.5402010000000  0.5374970000000  0.4848640000000 1.0
C      1  0.4482740000000  0.5146860000000  0.4854130000000 1.0
C      1  0.5137200000000  0.4527560000000  0.5158410000000 1.0
C      1  0.5405120000000  0.5373480000000  0.5150840000000 1.0
C      1  0.4484400000000  0.5155300000000  0.5157170000000 1.0
C      1  0.4406210000000  0.5599240000000  0.4628240000000 1.0
C      1  0.4743250000000  0.4185840000000  0.4637120000000 1.0
C      1  0.5855760000000  0.5221870000000  0.4615220000000 1.0
C      1  0.4406890000000  0.5606230000000  0.5375730000000 1.0
C      1  0.4742330000000  0.4182290000000  0.5366040000000 1.0
C      1  0.5858270000000  0.5221070000000  0.5382450000000 1.0
C      1  0.6006920000000  0.4764300000000  0.5319180000000 1.0
C      1  0.4734680000000  0.5947030000000  0.5317880000000 1.0
C      1  0.4250060000000  0.4239220000000  0.5321850000000 1.0
C      1  0.6007970000000  0.4765440000000  0.4677290000000 1.0
C      1  0.4731320000000  0.5946310000000  0.4682470000000 1.0
C      1  0.4253570000000  0.4235240000000  0.4674430000000 1.0
C      1  0.5555570000000  0.5517420000000  0.5623940000000 1.0
C      1  0.4276760000000  0.5193430000000  0.5608420000000 1.0
C      1  0.5164510000000  0.4314270000000  0.5575150000000 1.0
C      1  0.5551960000000  0.5517640000000  0.4373860000000 1.0
C      1  0.4271710000000  0.5190680000000  0.4387090000000 1.0
C      1  0.5164410000000  0.4315030000000  0.4424230000000 1.0
C      1  0.5243180000000  0.4909760000000  0.5506360000000 1.0
C      1  0.5093270000000  0.5237110000000  0.5539900000000 1.0
C      1  0.4682020000000  0.4846370000000  0.5497320000000 1.0
C      1  0.5242850000000  0.4909330000000  0.4495660000000 1.0
C      1  0.5091360000000  0.5235930000000  0.4459750000000 1.0
C      1  0.4674540000000  0.4846950000000  0.4503410000000 1.0
C      1  0.5797990000000  0.4806470000000  0.4405880000000 1.0
C      1  0.4795420000000  0.5758340000000  0.4400890000000 1.0
C      1  0.4401040000000  0.4409950000000  0.4414780000000 1.0
C      1  0.5798460000000  0.4805430000000  0.5591160000000 1.0
C      1  0.4800060000000  0.5760040000000  0.5599240000000 1.0
C      1  0.4402190000000  0.4411840000000  0.5588410000000 1.0
C      1  0.4202830000000  0.4906070000000  0.5575800000000 1.0
C      1  0.5443030000000  0.4407370000000  0.5567980000000 1.0
C      1  0.5330690000000  0.5700280000000  0.5605760000000 1.0
C      1  0.4194630000000  0.4902180000000  0.4408130000000 1.0
C      1  0.5443380000000  0.4407220000000  0.4427500000000 1.0
C      1  0.5327010000000  0.5700520000000  0.4391140000000 1.0
C      1  0.5147700000000  0.5854860000000  0.4743210000000 1.0
C      1  0.4092030000000  0.4670530000000  0.4771890000000 1.0
C      1  0.5705580000000  0.4461220000000  0.4751110000000 1.0
C      1  0.5149880000000  0.5852210000000  0.5252100000000 1.0
C      1  0.4116480000000  0.4677220000000  0.5202060000000 1.0
C      1  0.5701450000000  0.4463580000000  0.5241710000000 1.0
C      1  0.5240480000000  0.4843240000000  0.5818580000000 1.0
C      1  0.5038040000000  0.5286390000000  0.5859520000000 1.0
C      1  0.4781340000000  0.4893880000000  0.5759790000000 1.0
C      1  0.5236500000000  0.4844260000000  0.4183460000000 1.0
C      1  0.5033350000000  0.5285720000000  0.4139820000000 1.0
C      1  0.4776550000000  0.4893860000000  0.4241360000000 1.0
C      1  0.4987580000000  0.5022600000000  0.5000430000000 1.0
END
