TITL C-862507-1800-842 0.00152496662754405 125000 -206.908880085282 0 0 39 (C3) n - 1
REM
REM in /home/nfs/bkarasulu/CARBON/AIRSS/Generating-Clusters/TERSOFF/Higher-Symm/FIRE-HFTN
REM
REM
REM
REM
REM
REM ./C.cell (b20cbc046b6831c77cfcea5457e17084)
REM AIRSS Version 0.9.1 bugfix July 2018 build 013d7b7c2542+ Fri, 06 Jul 2018 19:26:36 +0100
REM compiler GCC version 9.2.1 20190827 (Red Hat 9.2.1-1)
REM options -cpp -mtune=generic -march=x86-64 -g -O0 -fpre-include=/usr/include/finclude/math-vector-fortran.h
REM seed -638251097 1579841165 -728006859 277543055 -1926235287 1276371433 -1016798882 18880345 303766363 2146942464 733115040 -1474704713 -619603153 -1272758497 446934193 1870641016 -1363907951 503655906 -1437633176 1610645885 -1576751076 1555718570 -239001099 -829085719 1511887901 -2002259056 -731823227 1839270611 964571715 -1488594161 430195368 -1903338757 2096597993
REM
CELL 1.54180   50.00000   50.00000   50.00000   90.00000   90.00000   90.00000
LATT -1
SFAC C  
C      1  0.4304700000000  0.5254890000000  0.4539860000000 1.0
C      1  0.4304680000000  0.5271010000000  0.5450800000000 1.0
C      1  0.4304710000000  0.4474060000000  0.5009290000000 1.0
C      1  0.4737350000000  0.4987980000000  0.4631030000000 1.0
C      1  0.4737330000000  0.5325540000000  0.5174070000000 1.0
C      1  0.4737340000000  0.4686470000000  0.5194880000000 1.0
C      1  0.5433130000000  0.5562770000000  0.5316590000000 1.0
C      1  0.5433150000000  0.4444460000000  0.5329090000000 1.0
C      1  0.5433160000000  0.4992790000000  0.4354350000000 1.0
C      1  0.4547730000000  0.5153240000000  0.5342770000000 1.0
C      1  0.4547750000000  0.4626510000000  0.4961320000000 1.0
C      1  0.4547740000000  0.5220220000000  0.4695880000000 1.0
C      1  0.5065910000000  0.4384030000000  0.5675000000000 1.0
C      1  0.5065930000000  0.4723420000000  0.4129060000000 1.0
C      1  0.5065890000000  0.5892550000000  0.5195950000000 1.0
C      1  0.5043000000000  0.5203810000000  0.5528650000000 1.0
C      1  0.5043030000000  0.4440280000000  0.4912180000000 1.0
C      1  0.5043020000000  0.5355920000000  0.4559180000000 1.0
C      1  0.5450010000000  0.4703670000000  0.4878690000000 1.0
C      1  0.5450000000000  0.5253240000000  0.4804030000000 1.0
C      1  0.5449990000000  0.5043120000000  0.5317310000000 1.0
C      1  0.5171210000000  0.5335330000000  0.4820650000000 1.0
C      1  0.5171210000000  0.4987670000000  0.5380080000000 1.0
C      1  0.5171220000000  0.4677020000000  0.4799280000000 1.0
C      1  0.5550640000000  0.4643050000000  0.5146020000000 1.0
C      1  0.5550650000000  0.5052050000000  0.4617870000000 1.0
C      1  0.5550630000000  0.5304940000000  0.5236150000000 1.0
C      1  0.4993280000000  0.5194420000000  0.5039910000000 1.0
C      1  0.4993290000000  0.4868230000000  0.5148410000000 1.0
C      1  0.4993290000000  0.4937350000000  0.4811680000000 1.0
C      1  0.5146950000000  0.5632300000000  0.5296790000000 1.0
C      1  0.5146970000000  0.4426830000000  0.5399200000000 1.0
C      1  0.5146980000000  0.4940880000000  0.4304030000000 1.0
C      1  0.4610070000000  0.5407650000000  0.4914400000000 1.0
C      1  0.4610070000000  0.4870290000000  0.5395830000000 1.0
C      1  0.4610090000000  0.4722040000000  0.4689750000000 1.0
C      1  0.4945970000000  0.5110470000000  0.4432010000000 1.0
C      1  0.4945950000000  0.5436660000000  0.5379660000000 1.0
C      1  0.4945970000000  0.4452880000000  0.5188320000000 1.0
END
