TITL C-862506-1665-139 -4.15259201559651e-06 125000 -76.1981892370993 0 0 16 (C2v) n - 1
REM
REM in /home/nfs/bkarasulu/CARBON/AIRSS/Generating-Clusters/TERSOFF/Higher-Symm/FIRE-HFTN
REM
REM
REM
REM
REM
REM ./C.cell (b20cbc046b6831c77cfcea5457e17084)
REM AIRSS Version 0.9.1 bugfix July 2018 build 013d7b7c2542+ Fri, 06 Jul 2018 19:26:36 +0100
REM compiler GCC version 9.2.1 20190827 (Red Hat 9.2.1-1)
REM options -cpp -mtune=generic -march=x86-64 -g -O0 -fpre-include=/usr/include/finclude/math-vector-fortran.h
REM seed -432075826 333080738 1013893223 -1977507191 1039494823 -630401926 1165714230 2141033201 2108917252 209075508 837007545 15748957 -2145278924 1338043982 -776752811 -1671261589 1355887180 -1546018278 -672515056 -1927641140 -2050590477 29049212 -494631652 1352491777 1301251093 1434287800 -1175234629 687627256 -569554277 887726927 -712579108 406046959 -388581033
REM
CELL 1.54180   50.00000   50.00000   50.00000   90.00000   90.00000   90.00000
LATT -1
SFAC C  
C      1  0.4758350000000  0.4914500000000  0.5252390000000 1.0
C      1  0.4758350000000  0.5214830000000  0.5154850000000 1.0
C      1  0.4729890000000  0.5265800000000  0.4841050000000 1.0
C      1  0.4746660000000  0.4919320000000  0.4756110000000 1.0
C      1  0.4729890000000  0.4688870000000  0.5028420000000 1.0
C      1  0.5287030000000  0.4919320000000  0.4756100000000 1.0
C      1  0.5303800000000  0.5265800000000  0.4841040000000 1.0
C      1  0.5275350000000  0.5214830000000  0.5154850000000 1.0
C      1  0.5275350000000  0.4914500000000  0.5252380000000 1.0
C      1  0.5303800000000  0.4688870000000  0.5028410000000 1.0
C      1  0.5016850000000  0.5384750000000  0.4749430000000 1.0
C      1  0.5016850000000  0.5336690000000  0.5246900000000 1.0
C      1  0.5016840000000  0.4845590000000  0.4529080000000 1.0
C      1  0.5016850000000  0.4538790000000  0.5024170000000 1.0
C      1  0.5016850000000  0.4869970000000  0.5398470000000 1.0
C      1  0.5016850000000  0.4974930000000  0.4927330000000 1.0
END
