TITL C-862503-991-365 0.926322384538653 125000 -563.140825342877 0 0 105 (C1) n - 1
REM
REM in /home/nfs/bkarasulu/CARBON/AIRSS/Generating-Clusters/TERSOFF/Higher-Symm/FIRE-HFTN
REM
REM
REM
REM
REM
REM ./C.cell (b20cbc046b6831c77cfcea5457e17084)
REM AIRSS Version 0.9.1 bugfix July 2018 build 013d7b7c2542+ Fri, 06 Jul 2018 19:26:36 +0100
REM compiler GCC version 9.2.1 20190827 (Red Hat 9.2.1-1)
REM options -cpp -mtune=generic -march=x86-64 -g -O0 -fpre-include=/usr/include/finclude/math-vector-fortran.h
REM seed -1526961566 343018063 -492427921 -225419674 1616171153 429773912 -367409320 234710530 -1717160689 -1652044353 1593850681 -592963090 1010058404 -733090680 -1931083155 698120884 170302190 1374708987 -713541164 -811341594 -2031303801 -541405591 -1506480772 -1458680634 -2128775788 -997301378 2050302436 -1822297447 2069410071 419878914 1205824645 1491711334 796673625
REM
CELL 1.54180   50.00000   50.00000   50.00000   90.00000   90.00000   90.00000
LATT -1
SFAC C  
C      1  0.4959940000000  0.4596380000000  0.4442010000000 1.0
C      1  0.5305450000000  0.5057220000000  0.4511390000000 1.0
C      1  0.4721830000000  0.5257410000000  0.4541750000000 1.0
C      1  0.5408750000000  0.4841610000000  0.5586460000000 1.0
C      1  0.5162350000000  0.5552350000000  0.5394210000000 1.0
C      1  0.4545960000000  0.4785700000000  0.5361480000000 1.0
C      1  0.4455740000000  0.5175000000000  0.4200580000000 1.0
C      1  0.5254630000000  0.4431610000000  0.4140500000000 1.0
C      1  0.5347480000000  0.5283940000000  0.4133110000000 1.0
C      1  0.5665150000000  0.5294060000000  0.4778990000000 1.0
C      1  0.4449600000000  0.5432570000000  0.4869340000000 1.0
C      1  0.5001610000000  0.4237190000000  0.4768880000000 1.0
C      1  0.5438240000000  0.5122320000000  0.5259030000000 1.0
C      1  0.4756010000000  0.5184760000000  0.5311900000000 1.0
C      1  0.4777820000000  0.4532280000000  0.5120180000000 1.0
C      1  0.4795690000000  0.4744580000000  0.4668270000000 1.0
C      1  0.5253200000000  0.4904190000000  0.4760720000000 1.0
C      1  0.4925250000000  0.5257720000000  0.4753190000000 1.0
C      1  0.5328210000000  0.4256310000000  0.4383200000000 1.0
C      1  0.5470830000000  0.5478660000000  0.4338000000000 1.0
C      1  0.4257700000000  0.5255310000000  0.4418420000000 1.0
C      1  0.5203230000000  0.5092640000000  0.5018470000000 1.0
C      1  0.4890110000000  0.5049650000000  0.5038500000000 1.0
C      1  0.4920460000000  0.4737790000000  0.4953610000000 1.0
C      1  0.4470850000000  0.5400370000000  0.4578970000000 1.0
C      1  0.5062450000000  0.4324570000000  0.4501190000000 1.0
C      1  0.5533630000000  0.5244010000000  0.4513600000000 1.0
C      1  0.5456200000000  0.4242570000000  0.4901150000000 1.0
C      1  0.5458570000000  0.5727310000000  0.4790110000000 1.0
C      1  0.4156840000000  0.5092800000000  0.4893420000000 1.0
C      1  0.4699700000000  0.5124290000000  0.5841970000000 1.0
C      1  0.4689220000000  0.4380450000000  0.5627990000000 1.0
C      1  0.5453410000000  0.5266870000000  0.5760040000000 1.0
C      1  0.4383540000000  0.4484450000000  0.5336880000000 1.0
C      1  0.5683150000000  0.4832480000000  0.5438320000000 1.0
C      1  0.4937190000000  0.5781410000000  0.5429780000000 1.0
C      1  0.4527650000000  0.4221850000000  0.5251100000000 1.0
C      1  0.5857860000000  0.5128150000000  0.5452920000000 1.0
C      1  0.4676520000000  0.5583720000000  0.5504080000000 1.0
C      1  0.4301110000000  0.4760850000000  0.4475270000000 1.0
C      1  0.5626550000000  0.4634080000000  0.4491720000000 1.0
C      1  0.4997860000000  0.5600210000000  0.4430070000000 1.0
C      1  0.4782190000000  0.4612010000000  0.5800050000000 1.0
C      1  0.5347310000000  0.5515230000000  0.5861090000000 1.0
C      1  0.4598050000000  0.4848330000000  0.5821570000000 1.0
C      1  0.4560790000000  0.4362220000000  0.4969390000000 1.0
C      1  0.5606320000000  0.4982010000000  0.5053670000000 1.0
C      1  0.4750010000000  0.5482040000000  0.5204230000000 1.0
C      1  0.4974750000000  0.5458530000000  0.4994540000000 1.0
C      1  0.4509940000000  0.4676760000000  0.4831760000000 1.0
C      1  0.5473220000000  0.4766740000000  0.4918840000000 1.0
C      1  0.4798470000000  0.5282750000000  0.5616670000000 1.0
C      1  0.4849810000000  0.4498710000000  0.5401320000000 1.0
C      1  0.5575270000000  0.5233630000000  0.5499850000000 1.0
C      1  0.5077700000000  0.4147490000000  0.5244110000000 1.0
C      1  0.5802130000000  0.5564120000000  0.5135110000000 1.0
C      1  0.4217420000000  0.5378700000000  0.5296210000000 1.0
C      1  0.4254940000000  0.5087650000000  0.5344930000000 1.0
C      1  0.5246230000000  0.4373040000000  0.5345240000000 1.0
C      1  0.5545930000000  0.5655490000000  0.5257850000000 1.0
C      1  0.4558700000000  0.4787050000000  0.4324230000000 1.0
C      1  0.5480830000000  0.4759640000000  0.4272730000000 1.0
C      1  0.4954130000000  0.5399440000000  0.4222280000000 1.0
C      1  0.4791230000000  0.4086550000000  0.5345930000000 1.0
C      1  0.5964340000000  0.5334940000000  0.5249930000000 1.0
C      1  0.4368490000000  0.5588650000000  0.5451140000000 1.0
C      1  0.5027900000000  0.5854020000000  0.5123400000000 1.0
C      1  0.4201400000000  0.4632740000000  0.5113170000000 1.0
C      1  0.5727290000000  0.4616180000000  0.5217270000000 1.0
C      1  0.5077850000000  0.4644960000000  0.5774750000000 1.0
C      1  0.5370640000000  0.5770110000000  0.5727670000000 1.0
C      1  0.4312710000000  0.4807200000000  0.5776350000000 1.0
C      1  0.5158750000000  0.4741780000000  0.4229820000000 1.0
C      1  0.5084000000000  0.5077210000000  0.4235240000000 1.0
C      1  0.4731400000000  0.5053220000000  0.4304870000000 1.0
C      1  0.5294890000000  0.5705460000000  0.4502410000000 1.0
C      1  0.4131240000000  0.5016520000000  0.4582770000000 1.0
C      1  0.5562550000000  0.4334320000000  0.4595940000000 1.0
C      1  0.5863280000000  0.5076790000000  0.4934430000000 1.0
C      1  0.4602480000000  0.5652440000000  0.5000690000000 1.0
C      1  0.4719060000000  0.4189020000000  0.4800740000000 1.0
C      1  0.5260960000000  0.4451530000000  0.5633830000000 1.0
C      1  0.5538080000000  0.5820920000000  0.5496930000000 1.0
C      1  0.4151440000000  0.4955620000000  0.5584140000000 1.0
C      1  0.4823450000000  0.5855460000000  0.4862780000000 1.0
C      1  0.4049010000000  0.4548720000000  0.4859420000000 1.0
C      1  0.5905670000000  0.4711420000000  0.4938300000000 1.0
C      1  0.4369950000000  0.4909870000000  0.5069610000000 1.0
C      1  0.5431990000000  0.4493590000000  0.5100840000000 1.0
C      1  0.5281890000000  0.5618940000000  0.5060070000000 1.0
C      1  0.5186690000000  0.4087490000000  0.4954770000000 1.0
C      1  0.5734710000000  0.5583210000000  0.4835920000000 1.0
C      1  0.4178910000000  0.5384090000000  0.4992370000000 1.0
C      1  0.3925130000000  0.4794930000000  0.4709260000000 1.0
C      1  0.5832400000000  0.4396430000000  0.4795380000000 1.0
C      1  0.5109580000000  0.5932330000000  0.4678000000000 1.0
C      1  0.4880430000000  0.4804950000000  0.5440340000000 1.0
C      1  0.5137210000000  0.4973830000000  0.5509590000000 1.0
C      1  0.5095520000000  0.5279710000000  0.5540650000000 1.0
C      1  0.5137290000000  0.4515500000000  0.4904600000000 1.0
C      1  0.5365800000000  0.5334890000000  0.4905710000000 1.0
C      1  0.4572470000000  0.5127670000000  0.4939980000000 1.0
C      1  0.4207860000000  0.4505180000000  0.4597530000000 1.0
C      1  0.5822310000000  0.4784710000000  0.4635920000000 1.0
C      1  0.4780060000000  0.5683600000000  0.4601070000000 1.0
END
