TITL C-862503-991-342 12.1150257859465 125000 -509.421233624138 0 0 86 (C1) n - 1
REM
REM in /home/nfs/bkarasulu/CARBON/AIRSS/Generating-Clusters/TERSOFF/Higher-Symm/FIRE-HFTN
REM
REM
REM
REM
REM
REM ./C.cell (b20cbc046b6831c77cfcea5457e17084)
REM AIRSS Version 0.9.1 bugfix July 2018 build 013d7b7c2542+ Fri, 06 Jul 2018 19:26:36 +0100
REM compiler GCC version 9.2.1 20190827 (Red Hat 9.2.1-1)
REM options -cpp -mtune=generic -march=x86-64 -g -O0 -fpre-include=/usr/include/finclude/math-vector-fortran.h
REM seed -853584428 1088918523 -1393030875 1980961602 -860394564 1231376719 -1629795145 93726389 -902165027 869674483 -1385385217 349506906 166394853 -247397551 -328980640 -617161156 -1942153931 -389447078 751863418 -759916826 -1671478641 1110390760 1671739910 1682647138 -740800419 766332262 1888709595 1529879863 1981182922 1202231092 967027415 1584195096 24145082
REM
CELL 1.54180   50.00000   50.00000   50.00000   90.00000   90.00000   90.00000
LATT -1
SFAC C  
C      1  0.4402610000000  0.4646490000000  0.4508730000000 1.0
C      1  0.4881410000000  0.5560930000000  0.5668390000000 1.0
C      1  0.4486780000000  0.4497490000000  0.4276160000000 1.0
C      1  0.5482850000000  0.4731080000000  0.5026510000000 1.0
C      1  0.5010240000000  0.5948010000000  0.5003190000000 1.0
C      1  0.5235390000000  0.5535940000000  0.4421400000000 1.0
C      1  0.5415650000000  0.4620120000000  0.4147940000000 1.0
C      1  0.4969690000000  0.4450080000000  0.4410310000000 1.0
C      1  0.5707210000000  0.5547010000000  0.4685710000000 1.0
C      1  0.4680160000000  0.5133450000000  0.4189530000000 1.0
C      1  0.5744390000000  0.5457750000000  0.5094350000000 1.0
C      1  0.4337950000000  0.5600750000000  0.4854560000000 1.0
C      1  0.5141940000000  0.4832270000000  0.4674890000000 1.0
C      1  0.5033360000000  0.4733560000000  0.4421430000000 1.0
C      1  0.5347180000000  0.5165870000000  0.4965700000000 1.0
C      1  0.4271300000000  0.5399530000000  0.4376370000000 1.0
C      1  0.5151550000000  0.5594450000000  0.5545340000000 1.0
C      1  0.5899390000000  0.4757110000000  0.5146410000000 1.0
C      1  0.4520260000000  0.5246850000000  0.5500190000000 1.0
C      1  0.4382470000000  0.4391720000000  0.5272870000000 1.0
C      1  0.5302880000000  0.4644740000000  0.4821010000000 1.0
C      1  0.4140590000000  0.4986480000000  0.4737450000000 1.0
C      1  0.5632290000000  0.5279220000000  0.4580140000000 1.0
C      1  0.4255160000000  0.5459670000000  0.5101380000000 1.0
C      1  0.5501890000000  0.5872990000000  0.5028590000000 1.0
C      1  0.4730740000000  0.5867400000000  0.5093250000000 1.0
C      1  0.5708250000000  0.4951830000000  0.4987170000000 1.0
C      1  0.5618380000000  0.5365600000000  0.5653660000000 1.0
C      1  0.4754870000000  0.5810510000000  0.4619840000000 1.0
C      1  0.4825370000000  0.4795960000000  0.5743900000000 1.0
C      1  0.5702580000000  0.5186220000000  0.5188170000000 1.0
C      1  0.5529470000000  0.4546400000000  0.5242830000000 1.0
C      1  0.5415760000000  0.4356610000000  0.4285480000000 1.0
C      1  0.4835780000000  0.4085040000000  0.5436060000000 1.0
C      1  0.5754780000000  0.5039010000000  0.4705010000000 1.0
C      1  0.4927790000000  0.4574980000000  0.4996600000000 1.0
C      1  0.4286170000000  0.4916980000000  0.4493520000000 1.0
C      1  0.5223140000000  0.5865730000000  0.5451950000000 1.0
C      1  0.5772670000000  0.4634180000000  0.5401540000000 1.0
C      1  0.5715850000000  0.4865600000000  0.5580420000000 1.0
C      1  0.4392970000000  0.5474890000000  0.5358950000000 1.0
C      1  0.4625260000000  0.5251470000000  0.4633430000000 1.0
C      1  0.5268930000000  0.4361610000000  0.4774980000000 1.0
C      1  0.4572370000000  0.4742540000000  0.5598560000000 1.0
C      1  0.5290300000000  0.4805490000000  0.5855990000000 1.0
C      1  0.4983790000000  0.4542030000000  0.5279840000000 1.0
C      1  0.4221840000000  0.4606310000000  0.5163680000000 1.0
C      1  0.5028940000000  0.5888530000000  0.4708690000000 1.0
C      1  0.4751230000000  0.5301270000000  0.5677860000000 1.0
C      1  0.5228220000000  0.5111840000000  0.4208410000000 1.0
C      1  0.4536290000000  0.5214740000000  0.4908080000000 1.0
C      1  0.5342620000000  0.4315740000000  0.5290710000000 1.0
C      1  0.5204720000000  0.4820050000000  0.4205080000000 1.0
C      1  0.4571480000000  0.5779270000000  0.4851850000000 1.0
C      1  0.5209920000000  0.5193700000000  0.5219980000000 1.0
C      1  0.5114670000000  0.4582720000000  0.5718670000000 1.0
C      1  0.5102250000000  0.5449440000000  0.5286420000000 1.0
C      1  0.5214440000000  0.5074050000000  0.5732780000000 1.0
C      1  0.4914130000000  0.5077960000000  0.5774810000000 1.0
C      1  0.4489810000000  0.4159310000000  0.5105380000000 1.0
C      1  0.4736770000000  0.4355290000000  0.4269570000000 1.0
C      1  0.4293860000000  0.5062030000000  0.4972310000000 1.0
C      1  0.4814320000000  0.4369250000000  0.5454010000000 1.0
C      1  0.5215460000000  0.4311440000000  0.5563240000000 1.0
C      1  0.5244370000000  0.5000110000000  0.5437440000000 1.0
C      1  0.5209830000000  0.4197440000000  0.5015290000000 1.0
C      1  0.5204410000000  0.4283730000000  0.4490380000000 1.0
C      1  0.4553860000000  0.4470650000000  0.5497410000000 1.0
C      1  0.4723580000000  0.4429340000000  0.4849980000000 1.0
C      1  0.5355180000000  0.5469600000000  0.5730080000000 1.0
C      1  0.5665410000000  0.5136820000000  0.5475560000000 1.0
C      1  0.4183870000000  0.5562910000000  0.4604110000000 1.0
C      1  0.4747130000000  0.4006360000000  0.5173480000000 1.0
C      1  0.4984040000000  0.4002270000000  0.4999550000000 1.0
C      1  0.5511190000000  0.5753970000000  0.4760820000000 1.0
C      1  0.4287930000000  0.4889400000000  0.5204460000000 1.0
C      1  0.4440110000000  0.4963220000000  0.5447740000000 1.0
C      1  0.4465520000000  0.4538110000000  0.4772670000000 1.0
C      1  0.5250480000000  0.5931710000000  0.5170600000000 1.0
C      1  0.5341800000000  0.5257810000000  0.4467570000000 1.0
C      1  0.4448940000000  0.5158260000000  0.4398840000000 1.0
C      1  0.4894840000000  0.5326760000000  0.4550410000000 1.0
C      1  0.4954680000000  0.5245520000000  0.4266460000000 1.0
C      1  0.5221710000000  0.5109680000000  0.4708680000000 1.0
C      1  0.5184840000000  0.4705750000000  0.5422040000000 1.0
C      1  0.5265510000000  0.5753970000000  0.4605180000000 1.0
END
