TITL C-862500-986-966 8.73685842493364e-05 125000 -524.662768293931 0 0 97 (Ci) n - 1
REM
REM in /home/nfs/bkarasulu/CARBON/AIRSS/Generating-Clusters/TERSOFF/Higher-Symm/FIRE-HFTN
REM
REM
REM
REM
REM
REM ./C.cell (b20cbc046b6831c77cfcea5457e17084)
REM AIRSS Version 0.9.1 bugfix July 2018 build 013d7b7c2542+ Fri, 06 Jul 2018 19:26:36 +0100
REM compiler GCC version 9.2.1 20190827 (Red Hat 9.2.1-1)
REM options -cpp -mtune=generic -march=x86-64 -g -O0 -fpre-include=/usr/include/finclude/math-vector-fortran.h
REM seed -1670330561 -806533144 -1477020919 2120765059 -732029874 -673292702 543672905 1373654477 -1102009882 -1530610975 -1393375861 -266750251 1746430947 -778471529 1841241858 -1718154296 -97292545 -923945672 -410080938 1195370630 1668374918 1247954355 -1048754344 -970624606 -1367108109 2002745224 -659652460 1982690105 -126510219 1229911725 -49791124 -1305455929 -1834215858
REM
CELL 1.54180   50.00000   50.00000   50.00000   90.00000   90.00000   90.00000
LATT -1
SFAC C  
C      1  0.5025540000000  0.4821030000000  0.4390550000000 1.0
C      1  0.4971000000000  0.5177280000000  0.5610450000000 1.0
C      1  0.4779860000000  0.5194540000000  0.5391340000000 1.0
C      1  0.5216680000000  0.4803770000000  0.4609660000000 1.0
C      1  0.4768940000000  0.4913940000000  0.4523090000000 1.0
C      1  0.5227600000000  0.5084370000000  0.5477910000000 1.0
C      1  0.5493350000000  0.5058270000000  0.5647720000000 1.0
C      1  0.4503180000000  0.4940040000000  0.4353290000000 1.0
C      1  0.4333230000000  0.4429300000000  0.4865720000000 1.0
C      1  0.5663300000000  0.5569010000000  0.5135290000000 1.0
C      1  0.5321610000000  0.4535590000000  0.4659950000000 1.0
C      1  0.4674930000000  0.5462720000000  0.5341050000000 1.0
C      1  0.4476810000000  0.4447740000000  0.5346270000000 1.0
C      1  0.5519730000000  0.5550570000000  0.4654730000000 1.0
C      1  0.5317040000000  0.5885860000000  0.5021900000000 1.0
C      1  0.4679500000000  0.4112450000000  0.4979100000000 1.0
C      1  0.4692800000000  0.4389410000000  0.4525270000000 1.0
C      1  0.5303740000000  0.5608900000000  0.5475740000000 1.0
C      1  0.4494170000000  0.4569200000000  0.4669260000000 1.0
C      1  0.5502370000000  0.5429110000000  0.5331750000000 1.0
C      1  0.4696840000000  0.4762810000000  0.4136900000000 1.0
C      1  0.5299700000000  0.5235500000000  0.5864100000000 1.0
C      1  0.4873830000000  0.4400350000000  0.5708490000000 1.0
C      1  0.5122710000000  0.5597960000000  0.4292510000000 1.0
C      1  0.4803780000000  0.5040790000000  0.4060120000000 1.0
C      1  0.5192760000000  0.4957520000000  0.5940880000000 1.0
C      1  0.4771700000000  0.5058280000000  0.5814400000000 1.0
C      1  0.5224840000000  0.4940030000000  0.4186610000000 1.0
C      1  0.4126550000000  0.4768810000000  0.5222020000000 1.0
C      1  0.5869990000000  0.5229500000000  0.4778980000000 1.0
C      1  0.5774410000000  0.4647660000000  0.5163680000000 1.0
C      1  0.4222130000000  0.5350650000000  0.4837320000000 1.0
C      1  0.5124120000000  0.5455910000000  0.4755430000000 1.0
C      1  0.4872410000000  0.4542400000000  0.5245570000000 1.0
C      1  0.5423850000000  0.4555400000000  0.4191210000000 1.0
C      1  0.4572690000000  0.5442910000000  0.5809790000000 1.0
C      1  0.4975640000000  0.4283940000000  0.5318020000000 1.0
C      1  0.5020900000000  0.5714370000000  0.4682980000000 1.0
C      1  0.5652120000000  0.4565160000000  0.5434450000000 1.0
C      1  0.4344410000000  0.5433150000000  0.4566560000000 1.0
C      1  0.5428530000000  0.4400300000000  0.5042100000000 1.0
C      1  0.4568010000000  0.5598010000000  0.4958910000000 1.0
C      1  0.5462410000000  0.4358360000000  0.5329770000000 1.0
C      1  0.4534130000000  0.5639950000000  0.4671230000000 1.0
C      1  0.5103980000000  0.5479260000000  0.5685450000000 1.0
C      1  0.4892560000000  0.4519050000000  0.4315560000000 1.0
C      1  0.5288910000000  0.4719550000000  0.5794790000000 1.0
C      1  0.4707630000000  0.5278760000000  0.4206210000000 1.0
C      1  0.4775580000000  0.5548590000000  0.5628410000000 1.0
C      1  0.5220960000000  0.4449720000000  0.4372590000000 1.0
C      1  0.5156260000000  0.5256020000000  0.4533860000000 1.0
C      1  0.4840280000000  0.4742280000000  0.5467140000000 1.0
C      1  0.5058040000000  0.5349740000000  0.5017950000000 1.0
C      1  0.4938500000000  0.4648570000000  0.4983050000000 1.0
C      1  0.4332040000000  0.4785620000000  0.4534530000000 1.0
C      1  0.5664500000000  0.5212690000000  0.5466480000000 1.0
C      1  0.5290910000000  0.5046190000000  0.4782250000000 1.0
C      1  0.4705630000000  0.4952120000000  0.5218750000000 1.0
C      1  0.5148260000000  0.4448490000000  0.4890170000000 1.0
C      1  0.4848270000000  0.5549820000000  0.5110830000000 1.0
C      1  0.5294680000000  0.5218460000000  0.5202060000000 1.0
C      1  0.4701850000000  0.4779840000000  0.4798950000000 1.0
C      1  0.5107420000000  0.5941090000000  0.4831760000000 1.0
C      1  0.4889120000000  0.4057220000000  0.5169240000000 1.0
C      1  0.5117820000000  0.4594720000000  0.5585940000000 1.0
C      1  0.4878720000000  0.5403590000000  0.4415060000000 1.0
C      1  0.4457150000000  0.4293850000000  0.5082650000000 1.0
C      1  0.5539390000000  0.5704460000000  0.4918360000000 1.0
C      1  0.4403940000000  0.5330940000000  0.5131510000000 1.0
C      1  0.5592600000000  0.4667370000000  0.4869490000000 1.0
C      1  0.4694930000000  0.4779620000000  0.5730190000000 1.0
C      1  0.5301610000000  0.5218690000000  0.4270810000000 1.0
C      1  0.5221770000000  0.4303370000000  0.5480490000000 1.0
C      1  0.4774770000000  0.5694940000000  0.4520520000000 1.0
C      1  0.5568130000000  0.4750800000000  0.5672120000000 1.0
C      1  0.4428410000000  0.5247510000000  0.4328880000000 1.0
C      1  0.4550810000000  0.5075320000000  0.4916060000000 1.0
C      1  0.5445730000000  0.4922990000000  0.5084950000000 1.0
C      1  0.4612030000000  0.4322660000000  0.5581200000000 1.0
C      1  0.5384510000000  0.5675640000000  0.4419800000000 1.0
C      1  0.5558070000000  0.4825820000000  0.4264350000000 1.0
C      1  0.4438470000000  0.5172490000000  0.5736650000000 1.0
C      1  0.4405390000000  0.4778780000000  0.5349550000000 1.0
C      1  0.5591140000000  0.5219530000000  0.4651460000000 1.0
C      1  0.5252630000000  0.4717830000000  0.5274520000000 1.0
C      1  0.4743900000000  0.5280480000000  0.4726490000000 1.0
C      1  0.4285070000000  0.4939460000000  0.4783500000000 1.0
C      1  0.5711470000000  0.5058850000000  0.5217500000000 1.0
C      1  0.5594830000000  0.5179470000000  0.4320610000000 1.0
C      1  0.4401710000000  0.4818840000000  0.5680390000000 1.0
C      1  0.5923580000000  0.5133990000000  0.5040860000000 1.0
C      1  0.4072950000000  0.4864320000000  0.4960140000000 1.0
C      1  0.4365860000000  0.5124090000000  0.5395130000000 1.0
C      1  0.5630670000000  0.4874220000000  0.4605880000000 1.0
C      1  0.5243250000000  0.5854010000000  0.5314360000000 1.0
C      1  0.4753290000000  0.4144300000000  0.4686640000000 1.0
C      1  0.4998270000000  0.4999150000000  0.5000500000000 1.0
END
