TITL C-862502-1143-1204 0.0004517052659613 125000 -722.103606548675 0 0 132 (C5) n - 1
REM
REM in /home/nfs/bkarasulu/CARBON/AIRSS/Generating-Clusters/TERSOFF/Higher-Symm/FIRE-HFTN
REM
REM
REM
REM
REM
REM ./C.cell (b20cbc046b6831c77cfcea5457e17084)
REM AIRSS Version 0.9.1 bugfix July 2018 build 013d7b7c2542+ Fri, 06 Jul 2018 19:26:36 +0100
REM compiler GCC version 9.2.1 20190827 (Red Hat 9.2.1-1)
REM options -cpp -mtune=generic -march=x86-64 -g -O0 -fpre-include=/usr/include/finclude/math-vector-fortran.h
REM seed -1838921145 1497461870 -1731230807 -818477492 1282464151 384003309 2096092626 -2057314874 -1292925513 -315609364 -869993353 -811440655 -2076423846 1411834475 621263971 -1336780759 948248465 1879922448 -1763011797 610075857 965113043 -1181255047 -352256875 -408890269 2135471147 -177776484 -1232949725 1320604244 -1928055416 1111958002 -638272647 1090951607 -735529727
REM
CELL 1.54180   50.00000   50.00000   50.00000   90.00000   90.00000   90.00000
LATT -1
SFAC C  
C      1  0.6023980000000  0.4565240000000  0.5109870000000 1.0
C      1  0.4900680000000  0.3889080000000  0.5109870000000 1.0
C      1  0.3910490000000  0.4748460000000  0.5109860000000 1.0
C      1  0.4421820000000  0.5955750000000  0.5109850000000 1.0
C      1  0.5728030000000  0.5842510000000  0.5109850000000 1.0
C      1  0.4003600000000  0.4815120000000  0.4627440000000 1.0
C      1  0.4514000000000  0.5887790000000  0.4627430000000 1.0
C      1  0.5691890000000  0.5733850000000  0.4627430000000 1.0
C      1  0.5909470000000  0.4566030000000  0.4627450000000 1.0
C      1  0.4866050000000  0.3998230000000  0.4627450000000 1.0
C      1  0.4900250000000  0.5588290000000  0.4203480000000 1.0
C      1  0.5526410000000  0.5273950000000  0.4203480000000 1.0
C      1  0.5420950000000  0.4581290000000  0.4203490000000 1.0
C      1  0.4729600000000  0.4467550000000  0.4203490000000 1.0
C      1  0.4407790000000  0.5089910000000  0.4203490000000 1.0
C      1  0.5090420000000  0.4657340000000  0.5315430000000 1.0
C      1  0.4699780000000  0.4805410000000  0.5315420000000 1.0
C      1  0.4719890000000  0.5222680000000  0.5315420000000 1.0
C      1  0.5122950000000  0.5332500000000  0.5315420000000 1.0
C      1  0.5351950000000  0.4983100000000  0.5315420000000 1.0
C      1  0.5215010000000  0.4794490000000  0.4126770000000 1.0
C      1  0.4868730000000  0.4729290000000  0.4126770000000 1.0
C      1  0.4699720000000  0.5038470000000  0.4126770000000 1.0
C      1  0.4941540000000  0.5294760000000  0.4126760000000 1.0
C      1  0.5260000000000  0.5143970000000  0.4126770000000 1.0
C      1  0.4798810000000  0.5304410000000  0.5808170000000 1.0
C      1  0.5225060000000  0.5282700000000  0.5808170000000 1.0
C      1  0.5336130000000  0.4870610000000  0.5808170000000 1.0
C      1  0.4978540000000  0.4637630000000  0.5808180000000 1.0
C      1  0.4646450000000  0.4905730000000  0.5808170000000 1.0
C      1  0.5629230000000  0.4201080000000  0.4858180000000 1.0
C      1  0.4432360000000  0.4151970000000  0.4858180000000 1.0
C      1  0.4015800000000  0.5275090000000  0.4858170000000 1.0
C      1  0.4955220000000  0.6018330000000  0.4858160000000 1.0
C      1  0.5952380000000  0.5354550000000  0.4858170000000 1.0
C      1  0.5025540000000  0.4369130000000  0.4905490000000 1.0
C      1  0.4405630000000  0.4778050000000  0.4905490000000 1.0
C      1  0.4602980000000  0.5493980000000  0.4905480000000 1.0
C      1  0.5344850000000  0.5527530000000  0.4905480000000 1.0
C      1  0.5606000000000  0.4832330000000  0.4905490000000 1.0
C      1  0.4535630000000  0.4445750000000  0.5622720000000 1.0
C      1  0.4327100000000  0.5267670000000  0.5622710000000 1.0
C      1  0.5044350000000  0.5719970000000  0.5622710000000 1.0
C      1  0.5696160000000  0.5177600000000  0.5622710000000 1.0
C      1  0.5381750000000  0.4390080000000  0.5622720000000 1.0
C      1  0.4804890000000  0.4345210000000  0.5706510000000 1.0
C      1  0.4314680000000  0.4980510000000  0.5706500000000 1.0
C      1  0.4767420000000  0.5643050000000  0.5706490000000 1.0
C      1  0.5537420000000  0.5417210000000  0.5706500000000 1.0
C      1  0.5560580000000  0.4615100000000  0.5706510000000 1.0
C      1  0.5756450000000  0.5433710000000  0.4648670000000 1.0
C      1  0.5643970000000  0.4411880000000  0.4648690000000 1.0
C      1  0.4637400000000  0.4203090000000  0.4648690000000 1.0
C      1  0.4127780000000  0.5095880000000  0.4648680000000 1.0
C      1  0.4819390000000  0.5856440000000  0.4648670000000 1.0
C      1  0.5272980000000  0.5940930000000  0.4917710000000 1.0
C      1  0.5976970000000  0.5028430000000  0.4917720000000 1.0
C      1  0.5326670000000  0.4076920000000  0.4917730000000 1.0
C      1  0.4220780000000  0.4401360000000  0.4917730000000 1.0
C      1  0.4187600000000  0.5553380000000  0.4917710000000 1.0
C      1  0.5464890000000  0.5055700000000  0.5051350000000 1.0
C      1  0.5194360000000  0.4572360000000  0.5051360000000 1.0
C      1  0.4651080000000  0.4680290000000  0.5051350000000 1.0
C      1  0.4585850000000  0.5230330000000  0.5051350000000 1.0
C      1  0.5088810000000  0.5462350000000  0.5051350000000 1.0
C      1  0.4360340000000  0.5056020000000  0.5033570000000 1.0
C      1  0.4853340000000  0.5622950000000  0.5033560000000 1.0
C      1  0.5544870000000  0.5329270000000  0.5033570000000 1.0
C      1  0.5479260000000  0.4580840000000  0.5033580000000 1.0
C      1  0.4747180000000  0.4411960000000  0.5033580000000 1.0
C      1  0.5101170000000  0.4780010000000  0.4863470000000 1.0
C      1  0.4819770000000  0.4833090000000  0.4863470000000 1.0
C      1  0.4783300000000  0.5117110000000  0.4863470000000 1.0
C      1  0.5042150000000  0.5239570000000  0.4863470000000 1.0
C      1  0.5238600000000  0.5031230000000  0.4863470000000 1.0
C      1  0.4573730000000  0.4435880000000  0.4452940000000 1.0
C      1  0.4329510000000  0.5228370000000  0.4452930000000 1.0
C      1  0.5007730000000  0.5705530000000  0.4452920000000 1.0
C      1  0.5671130000000  0.5207950000000  0.4452930000000 1.0
C      1  0.5402900000000  0.4423270000000  0.4452940000000 1.0
C      1  0.5857250000000  0.5180720000000  0.5383880000000 1.0
C      1  0.5434500000000  0.4237850000000  0.5383890000000 1.0
C      1  0.4407140000000  0.4348540000000  0.5383890000000 1.0
C      1  0.4194950000000  0.5359820000000  0.5383880000000 1.0
C      1  0.5091160000000  0.5874130000000  0.5383870000000 1.0
C      1  0.4232820000000  0.5516980000000  0.4425400000000 1.0
C      1  0.5252340000000  0.5886680000000  0.4425390000000 1.0
C      1  0.5918990000000  0.5031290000000  0.4425400000000 1.0
C      1  0.5311480000000  0.4132940000000  0.4425410000000 1.0
C      1  0.4269360000000  0.4433110000000  0.4425410000000 1.0
C      1  0.5971970000000  0.4861490000000  0.4654770000000 1.0
C      1  0.5166360000000  0.4030090000000  0.4654780000000 1.0
C      1  0.4126700000000  0.4539350000000  0.4654770000000 1.0
C      1  0.4289770000000  0.5685500000000  0.4654760000000 1.0
C      1  0.5430200000000  0.5884590000000  0.4654760000000 1.0
C      1  0.5750130000000  0.5399390000000  0.5222450000000 1.0
C      1  0.5609370000000  0.4407300000000  0.5222470000000 1.0
C      1  0.4622340000000  0.4234590000000  0.5222470000000 1.0
C      1  0.4153070000000  0.5119940000000  0.5222460000000 1.0
C      1  0.4850080000000  0.5839830000000  0.5222450000000 1.0
C      1  0.4153450000000  0.4767510000000  0.5532020000000 1.0
C      1  0.4515010000000  0.5730570000000  0.5532010000000 1.0
C      1  0.5542660000000  0.5684300000000  0.5532010000000 1.0
C      1  0.5816230000000  0.4692650000000  0.5532020000000 1.0
C      1  0.4957640000000  0.4126040000000  0.5532030000000 1.0
C      1  0.5854940000000  0.4300040000000  0.5103570000000 1.0
C      1  0.4596210000000  0.3967890000000  0.5103570000000 1.0
C      1  0.3891360000000  0.5062370000000  0.5103550000000 1.0
C      1  0.4714460000000  0.6070940000000  0.5103540000000 1.0
C      1  0.5928020000000  0.5599790000000  0.5103550000000 1.0
C      1  0.4883860000000  0.4768430000000  0.4454160000000 1.0
C      1  0.4741610000000  0.5036180000000  0.4454160000000 1.0
C      1  0.4952300000000  0.5254210000000  0.4454160000000 1.0
C      1  0.5224760000000  0.5121200000000  0.4454160000000 1.0
C      1  0.5182460000000  0.4820980000000  0.4454160000000 1.0
C      1  0.4590550000000  0.5396140000000  0.4609020000000 1.0
C      1  0.5247960000000  0.5509110000000  0.4609010000000 1.0
C      1  0.5558550000000  0.4918790000000  0.4609020000000 1.0
C      1  0.5093100000000  0.4440980000000  0.4609030000000 1.0
C      1  0.4494840000000  0.4736000000000  0.4609020000000 1.0
C      1  0.4330820000000  0.5637380000000  0.5235770000000 1.0
C      1  0.5397130000000  0.5830680000000  0.5235770000000 1.0
C      1  0.5910470000000  0.4876290000000  0.5235780000000 1.0
C      1  0.5161430000000  0.4093160000000  0.5235790000000 1.0
C      1  0.4185150000000  0.4563530000000  0.5235790000000 1.0
C      1  0.4609580000000  0.5277090000000  0.5575630000000 1.0
C      1  0.5140600000000  0.5454230000000  0.5575630000000 1.0
C      1  0.5473170000000  0.5003940000000  0.5575640000000 1.0
C      1  0.5147680000000  0.4548490000000  0.5575640000000 1.0
C      1  0.4613950000000  0.4717310000000  0.5575640000000 1.0
C      1  0.4997000000000  0.5000210000000  0.5318390000000 1.0
C      1  0.4997000000000  0.5000220000000  0.5841030000000 1.0
END
