TITL C-862503-991-769 2.00378755270368e-05 125000 -1076.6870968256 0 0 197 (C1) n - 1
REM
REM in /home/nfs/bkarasulu/CARBON/AIRSS/Generating-Clusters/TERSOFF/Higher-Symm/FIRE-HFTN
REM
REM
REM
REM
REM
REM ./C.cell (b20cbc046b6831c77cfcea5457e17084)
REM AIRSS Version 0.9.1 bugfix July 2018 build 013d7b7c2542+ Fri, 06 Jul 2018 19:26:36 +0100
REM compiler GCC version 9.2.1 20190827 (Red Hat 9.2.1-1)
REM options -cpp -mtune=generic -march=x86-64 -g -O0 -fpre-include=/usr/include/finclude/math-vector-fortran.h
REM seed -1589391224 -2091132739 -1946337758 2115213116 -1386477757 -262290309 -1633716586 -1747051067 -1047449041 -1698981210 307665051 2146779549 1452991819 -812662171 -1146017957 1310721771 -1058843270 353952350 1312685770 -210621901 1993921613 -1224822947 -1038325923 -1866894240 81213148 -1986555044 -685548810 2064957798 1420735175 -297170322 640937815 325425052 -1217524298
REM
CELL 1.54180   50.00000   50.00000   50.00000   90.00000   90.00000   90.00000
LATT -1
SFAC C  
C      1  0.4786720000000  0.5625790000000  0.5121270000000 1.0
C      1  0.5058890000000  0.4853990000000  0.5645960000000 1.0
C      1  0.5633370000000  0.5140820000000  0.4731650000000 1.0
C      1  0.5249430000000  0.4353610000000  0.5103800000000 1.0
C      1  0.5182390000000  0.5654800000000  0.4943570000000 1.0
C      1  0.4798920000000  0.4295670000000  0.4858050000000 1.0
C      1  0.4850860000000  0.5256050000000  0.5664830000000 1.0
C      1  0.4934180000000  0.4806470000000  0.4407960000000 1.0
C      1  0.5102220000000  0.5229420000000  0.4430030000000 1.0
C      1  0.4358820000000  0.4890260000000  0.4772270000000 1.0
C      1  0.4340260000000  0.5111270000000  0.5192250000000 1.0
C      1  0.5589270000000  0.4913990000000  0.5181950000000 1.0
C      1  0.5678690000000  0.4697760000000  0.4127600000000 1.0
C      1  0.4143250000000  0.5662170000000  0.4729650000000 1.0
C      1  0.4696900000000  0.4147770000000  0.5628110000000 1.0
C      1  0.4387450000000  0.5317780000000  0.4158070000000 1.0
C      1  0.4364070000000  0.4733420000000  0.5860710000000 1.0
C      1  0.5665610000000  0.5298540000000  0.5862370000000 1.0
C      1  0.5841850000000  0.4277320000000  0.4665760000000 1.0
C      1  0.5854580000000  0.5652060000000  0.5286280000000 1.0
C      1  0.4176030000000  0.4359080000000  0.5313850000000 1.0
C      1  0.5335210000000  0.5871330000000  0.5663440000000 1.0
C      1  0.5304780000000  0.4132790000000  0.4397600000000 1.0
C      1  0.4699910000000  0.5838590000000  0.4321030000000 1.0
C      1  0.4639330000000  0.5424050000000  0.4306110000000 1.0
C      1  0.4326230000000  0.4609220000000  0.5461660000000 1.0
C      1  0.5422670000000  0.4277380000000  0.4652450000000 1.0
C      1  0.5462970000000  0.4556350000000  0.4306540000000 1.0
C      1  0.5420280000000  0.5461000000000  0.5730570000000 1.0
C      1  0.4585020000000  0.4590000000000  0.5672020000000 1.0
C      1  0.5652620000000  0.5433080000000  0.5463530000000 1.0
C      1  0.5618120000000  0.4476960000000  0.4556700000000 1.0
C      1  0.4301050000000  0.5433530000000  0.4574670000000 1.0
C      1  0.4551220000000  0.5626150000000  0.4512670000000 1.0
C      1  0.4584830000000  0.4290040000000  0.5379980000000 1.0
C      1  0.5456820000000  0.5715600000000  0.5401720000000 1.0
C      1  0.4060490000000  0.4958230000000  0.4852020000000 1.0
C      1  0.4861400000000  0.4011170000000  0.4942500000000 1.0
C      1  0.4992050000000  0.4869190000000  0.4126890000000 1.0
C      1  0.5912470000000  0.5051350000000  0.4812390000000 1.0
C      1  0.5882060000000  0.4964590000000  0.5098660000000 1.0
C      1  0.4060490000000  0.5029550000000  0.5137870000000 1.0
C      1  0.5115280000000  0.5932910000000  0.4987060000000 1.0
C      1  0.5155630000000  0.4023720000000  0.5026410000000 1.0
C      1  0.4837070000000  0.5917970000000  0.5063090000000 1.0
C      1  0.5069950000000  0.5142150000000  0.4133440000000 1.0
C      1  0.4998510000000  0.4888180000000  0.5940530000000 1.0
C      1  0.4931780000000  0.5175100000000  0.5962560000000 1.0
C      1  0.5889780000000  0.4901450000000  0.4337570000000 1.0
C      1  0.4367840000000  0.5860720000000  0.4932880000000 1.0
C      1  0.4844540000000  0.4408690000000  0.5828830000000 1.0
C      1  0.4165990000000  0.5149380000000  0.4391610000000 1.0
C      1  0.4140580000000  0.4879320000000  0.5617710000000 1.0
C      1  0.5825640000000  0.5131790000000  0.5581390000000 1.0
C      1  0.5615110000000  0.4078790000000  0.4869250000000 1.0
C      1  0.5613250000000  0.5875010000000  0.5127780000000 1.0
C      1  0.4403200000000  0.4136460000000  0.5139120000000 1.0
C      1  0.5148810000000  0.5644370000000  0.5880850000000 1.0
C      1  0.5159960000000  0.4389330000000  0.4186450000000 1.0
C      1  0.4906440000000  0.5601170000000  0.4134820000000 1.0
C      1  0.4701530000000  0.3939330000000  0.5182040000000 1.0
C      1  0.5200730000000  0.4696700000000  0.4011760000000 1.0
C      1  0.3975190000000  0.5197810000000  0.4693630000000 1.0
C      1  0.5299430000000  0.6041980000000  0.5190850000000 1.0
C      1  0.5314850000000  0.3900400000000  0.4798740000000 1.0
C      1  0.4653350000000  0.5987670000000  0.4833070000000 1.0
C      1  0.4867540000000  0.5300060000000  0.3978110000000 1.0
C      1  0.4778850000000  0.4706480000000  0.6024310000000 1.0
C      1  0.5177220000000  0.5323500000000  0.6042500000000 1.0
C      1  0.5975720000000  0.4816620000000  0.4635900000000 1.0
C      1  0.5979700000000  0.5183160000000  0.5275900000000 1.0
C      1  0.3985700000000  0.4800410000000  0.5308540000000 1.0
C      1  0.4862060000000  0.5393430000000  0.4893410000000 1.0
C      1  0.4888950000000  0.4942600000000  0.5347230000000 1.0
C      1  0.5428560000000  0.4927420000000  0.4795730000000 1.0
C      1  0.5118860000000  0.4645400000000  0.4935900000000 1.0
C      1  0.5121740000000  0.5376910000000  0.5143440000000 1.0
C      1  0.4866820000000  0.4509230000000  0.5032320000000 1.0
C      1  0.5055670000000  0.5210420000000  0.5426680000000 1.0
C      1  0.5142330000000  0.4873100000000  0.4648520000000 1.0
C      1  0.4882330000000  0.5121200000000  0.4680040000000 1.0
C      1  0.4586800000000  0.5079230000000  0.4854550000000 1.0
C      1  0.4595680000000  0.4928580000000  0.5137630000000 1.0
C      1  0.5355590000000  0.5106020000000  0.5086680000000 1.0
C      1  0.4889730000000  0.4134510000000  0.4459210000000 1.0
C      1  0.4352670000000  0.4912510000000  0.4060130000000 1.0
C      1  0.4157590000000  0.4424430000000  0.4899750000000 1.0
C      1  0.5103460000000  0.5949200000000  0.4325070000000 1.0
C      1  0.5104780000000  0.4175320000000  0.5532460000000 1.0
C      1  0.4927790000000  0.5966840000000  0.5693200000000 1.0
C      1  0.5731650000000  0.5092280000000  0.3993630000000 1.0
C      1  0.5557390000000  0.4894160000000  0.5850730000000 1.0
C      1  0.4436000000000  0.5146890000000  0.5863260000000 1.0
C      1  0.5853200000000  0.5574610000000  0.4874000000000 1.0
C      1  0.5956220000000  0.4313330000000  0.5065230000000 1.0
C      1  0.4109110000000  0.5601630000000  0.5142560000000 1.0
C      1  0.4715480000000  0.5203820000000  0.6169730000000 1.0
C      1  0.6037210000000  0.4719930000000  0.5123650000000 1.0
C      1  0.5149210000000  0.6058420000000  0.4726810000000 1.0
C      1  0.5237430000000  0.4823820000000  0.6110510000000 1.0
C      1  0.5317130000000  0.5155020000000  0.3990440000000 1.0
C      1  0.4754640000000  0.4840450000000  0.3967710000000 1.0
C      1  0.3876910000000  0.5258860000000  0.5199840000000 1.0
C      1  0.3876520000000  0.4725150000000  0.4823510000000 1.0
C      1  0.6123370000000  0.5265450000000  0.4794030000000 1.0
C      1  0.4804580000000  0.3816910000000  0.4718220000000 1.0
C      1  0.4816140000000  0.6078730000000  0.5305450000000 1.0
C      1  0.5186210000000  0.3855360000000  0.5274490000000 1.0
C      1  0.3932160000000  0.4525100000000  0.5114180000000 1.0
C      1  0.5097780000000  0.3885270000000  0.4526690000000 1.0
C      1  0.4576840000000  0.5125730000000  0.3925060000000 1.0
C      1  0.6071200000000  0.5456350000000  0.5089520000000 1.0
C      1  0.6048340000000  0.4531900000000  0.4815240000000 1.0
C      1  0.3900060000000  0.5471730000000  0.4915090000000 1.0
C      1  0.4850170000000  0.6054280000000  0.4538770000000 1.0
C      1  0.4897950000000  0.3927130000000  0.5454300000000 1.0
C      1  0.5133580000000  0.6104750000000  0.5475730000000 1.0
C      1  0.5482150000000  0.4867410000000  0.3926300000000 1.0
C      1  0.5453760000000  0.5106360000000  0.6083280000000 1.0
C      1  0.4515520000000  0.4924070000000  0.6091750000000 1.0
C      1  0.4591930000000  0.5877830000000  0.5743710000000 1.0
C      1  0.5674360000000  0.4595440000000  0.5853420000000 1.0
C      1  0.5889740000000  0.5715670000000  0.4592500000000 1.0
C      1  0.5384450000000  0.4138750000000  0.5678810000000 1.0
C      1  0.5428350000000  0.5869250000000  0.4294990000000 1.0
C      1  0.4601800000000  0.4126680000000  0.4316900000000 1.0
C      1  0.4287230000000  0.5418490000000  0.5905020000000 1.0
C      1  0.4307890000000  0.4593350000000  0.4158180000000 1.0
C      1  0.5747240000000  0.5425930000000  0.4117930000000 1.0
C      1  0.4132510000000  0.4298910000000  0.4606020000000 1.0
C      1  0.4103230000000  0.5703220000000  0.5453310000000 1.0
C      1  0.5846820000000  0.4293040000000  0.5388580000000 1.0
C      1  0.5693300000000  0.4495720000000  0.5036630000000 1.0
C      1  0.5048870000000  0.5645040000000  0.4451570000000 1.0
C      1  0.4433870000000  0.5060220000000  0.5598270000000 1.0
C      1  0.4381390000000  0.5543760000000  0.5057310000000 1.0
C      1  0.4428260000000  0.4442340000000  0.4988740000000 1.0
C      1  0.5592240000000  0.5569010000000  0.4969330000000 1.0
C      1  0.4989600000000  0.4397130000000  0.4480550000000 1.0
C      1  0.4975760000000  0.5669640000000  0.5588700000000 1.0
C      1  0.5009950000000  0.4442140000000  0.5525370000000 1.0
C      1  0.5517420000000  0.4991210000000  0.5586750000000 1.0
C      1  0.5577860000000  0.5060830000000  0.4311150000000 1.0
C      1  0.4459480000000  0.4963380000000  0.4371210000000 1.0
C      1  0.4432800000000  0.4701640000000  0.4550710000000 1.0
C      1  0.4565360000000  0.4396890000000  0.4694950000000 1.0
C      1  0.4745370000000  0.4586750000000  0.4463990000000 1.0
C      1  0.5570130000000  0.5293270000000  0.4488280000000 1.0
C      1  0.5481840000000  0.4705870000000  0.5409250000000 1.0
C      1  0.4391860000000  0.5289870000000  0.5402490000000 1.0
C      1  0.5384210000000  0.5603070000000  0.4757420000000 1.0
C      1  0.5494920000000  0.4459010000000  0.5230620000000 1.0
C      1  0.4568990000000  0.5532810000000  0.5334280000000 1.0
C      1  0.5313720000000  0.5458310000000  0.4500200000000 1.0
C      1  0.5225600000000  0.4642940000000  0.5566650000000 1.0
C      1  0.4733740000000  0.5513120000000  0.5586900000000 1.0
C      1  0.5316750000000  0.5209360000000  0.5581660000000 1.0
C      1  0.5540790000000  0.5361480000000  0.5166380000000 1.0
C      1  0.5171820000000  0.5614280000000  0.5361370000000 1.0
C      1  0.4650370000000  0.4871840000000  0.5550100000000 1.0
C      1  0.4689750000000  0.5150770000000  0.4423590000000 1.0
C      1  0.5368420000000  0.4841800000000  0.4384140000000 1.0
C      1  0.4452560000000  0.4667010000000  0.5186090000000 1.0
C      1  0.4420550000000  0.5341410000000  0.4840050000000 1.0
C      1  0.5618470000000  0.4661500000000  0.4793010000000 1.0
C      1  0.4804270000000  0.4475680000000  0.5311580000000 1.0
C      1  0.4827100000000  0.5597860000000  0.4654950000000 1.0
C      1  0.5171070000000  0.4432240000000  0.4698960000000 1.0
C      1  0.4060000000000  0.5224820000000  0.5694860000000 1.0
C      1  0.5650880000000  0.4069630000000  0.5218320000000 1.0
C      1  0.5265120000000  0.5640510000000  0.4092080000000 1.0
C      1  0.5883880000000  0.4774210000000  0.5617090000000 1.0
C      1  0.5949550000000  0.5256230000000  0.4312240000000 1.0
C      1  0.4076110000000  0.4794920000000  0.4351150000000 1.0
C      1  0.4328410000000  0.5928840000000  0.5285300000000 1.0
C      1  0.4334030000000  0.4060140000000  0.4790510000000 1.0
C      1  0.5660690000000  0.5933130000000  0.4772380000000 1.0
C      1  0.4803590000000  0.4346360000000  0.4107910000000 1.0
C      1  0.4794390000000  0.5679640000000  0.5967100000000 1.0
C      1  0.5192220000000  0.4343950000000  0.5906370000000 1.0
C      1  0.6056930000000  0.5417430000000  0.4542370000000 1.0
C      1  0.4566660000000  0.6012500000000  0.5451270000000 1.0
C      1  0.5367260000000  0.4561440000000  0.6021440000000 1.0
C      1  0.3967290000000  0.4600430000000  0.4569410000000 1.0
C      1  0.3949710000000  0.5394540000000  0.5470780000000 1.0
C      1  0.5969190000000  0.4593590000000  0.5385600000000 1.0
C      1  0.5437440000000  0.3954420000000  0.5403050000000 1.0
C      1  0.5419000000000  0.5998080000000  0.4597690000000 1.0
C      1  0.4546530000000  0.3938030000000  0.4599610000000 1.0
C      1  0.4595940000000  0.5465790000000  0.6084280000000 1.0
C      1  0.4620340000000  0.4584170000000  0.4028070000000 1.0
C      1  0.5445040000000  0.5413100000000  0.4015270000000 1.0
C      1  0.5642760000000  0.4331610000000  0.5651510000000 1.0
C      1  0.4316240000000  0.5673790000000  0.5713150000000 1.0
C      1  0.5701910000000  0.5685370000000  0.4323780000000 1.0
C      1  0.4335930000000  0.4329810000000  0.4349750000000 1.0
C      1  0.5125090000000  0.4889860000000  0.5131810000000 1.0
END
