TITL C-862129-6180-305 -0.0025090558420904 125000 -719.619824863744 0 0 126 (C3) n - 1
REM
REM in /home/nfs/bkarasulu/CARBON/AIRSS/Generating-Clusters/TERSOFF/Higher-Symm/FIRE-HFTN
REM
REM
REM
REM
REM
REM ./C.cell (b20cbc046b6831c77cfcea5457e17084)
REM AIRSS Version 0.9.1 bugfix July 2018 build 013d7b7c2542+ Fri, 06 Jul 2018 19:26:36 +0100
REM compiler GCC version 9.2.1 20190827 (Red Hat 9.2.1-1)
REM options -cpp -mtune=generic -march=x86-64 -g -O0 -fpre-include=/usr/include/finclude/math-vector-fortran.h
REM seed -692886221 -2018747919 -1676360565 -1200314623 -451453516 -471813125 1851141314 1097276585 143231465 1079207727 1539782875 -35802123 1993820724 -1241271614 937626489 110494367 -1717111614 -863780823 1608188593 -1697468730 -1980789792 -1107418758 1086176185 1271604463 750091759 779241029 302424604 -934291637 -2003828430 434081524 1111628254 -1582721728 -331727585
REM
CELL 1.54180   50.00000   50.00000   50.00000   90.00000   90.00000   90.00000
LATT -1
SFAC C  
C      1  0.5539130000000  0.4184870000000  0.5573450000000 1.0
C      1  0.5539130000000  0.4910950000000  0.4007350000000 1.0
C      1  0.5539130000000  0.5904190000000  0.5419200000000 1.0
C      1  0.5090660000000  0.4414680000000  0.4849900000000 1.0
C      1  0.5090660000000  0.5422650000000  0.4568150000000 1.0
C      1  0.5090660000000  0.5162670000000  0.5581960000000 1.0
C      1  0.4366940000000  0.5692790000000  0.5148060000000 1.0
C      1  0.4366940000000  0.4525380000000  0.5525940000000 1.0
C      1  0.4366940000000  0.4781830000000  0.4325990000000 1.0
C      1  0.4096630000000  0.4967720000000  0.5381960000000 1.0
C      1  0.4096630000000  0.4685350000000  0.4781070000000 1.0
C      1  0.4096630000000  0.5346930000000  0.4836980000000 1.0
C      1  0.5349220000000  0.5731670000000  0.5594120000000 1.0
C      1  0.5349220000000  0.4119640000000  0.5336580000000 1.0
C      1  0.5349210000000  0.5148690000000  0.4069290000000 1.0
C      1  0.4872810000000  0.5258680000000  0.5163050000000 1.0
C      1  0.4872810000000  0.4729450000000  0.5142500000000 1.0
C      1  0.4872810000000  0.5011860000000  0.4694450000000 1.0
C      1  0.6036170000000  0.4785160000000  0.4811430000000 1.0
C      1  0.6036170000000  0.5270730000000  0.4908220000000 1.0
C      1  0.6036170000000  0.4944120000000  0.5280340000000 1.0
C      1  0.5672400000000  0.5524660000000  0.5177210000000 1.0
C      1  0.5672400000000  0.4584200000000  0.5365760000000 1.0
C      1  0.5672400000000  0.4891140000000  0.4457020000000 1.0
C      1  0.5451580000000  0.4983630000000  0.5908810000000 1.0
C      1  0.5451580000000  0.4221140000000  0.4531420000000 1.0
C      1  0.5451580000000  0.5795240000000  0.4559770000000 1.0
C      1  0.5287530000000  0.4688190000000  0.4842390000000 1.0
C      1  0.5287530000000  0.5292400000000  0.4808770000000 1.0
C      1  0.5287530000000  0.5019410000000  0.5348840000000 1.0
C      1  0.5576710000000  0.5079570000000  0.5436140000000 1.0
C      1  0.5576710000000  0.4582500000000  0.4850830000000 1.0
C      1  0.5576710000000  0.5337930000000  0.4713020000000 1.0
C      1  0.5768250000000  0.4875920000000  0.5392020000000 1.0
C      1  0.5768250000000  0.4722540000000  0.4696530000000 1.0
C      1  0.5768250000000  0.5401540000000  0.4911450000000 1.0
C      1  0.5625330000000  0.4710170000000  0.4222280000000 1.0
C      1  0.5625330000000  0.5818450000000  0.5137860000000 1.0
C      1  0.5625330000000  0.4471390000000  0.5639860000000 1.0
C      1  0.3922270000000  0.5350060000000  0.5066870000000 1.0
C      1  0.3922280000000  0.4767050000000  0.5269730000000 1.0
C      1  0.3922270000000  0.4882880000000  0.4663400000000 1.0
C      1  0.5436170000000  0.5844400000000  0.4880590000000 1.0
C      1  0.5436180000000  0.4681210000000  0.5790970000000 1.0
C      1  0.5436180000000  0.4474390000000  0.4328430000000 1.0
C      1  0.4630500000000  0.4284130000000  0.4642150000000 1.0
C      1  0.4630500000000  0.5667840000000  0.4558960000000 1.0
C      1  0.4630500000000  0.5048030000000  0.5798880000000 1.0
C      1  0.5366140000000  0.5451730000000  0.5281830000000 1.0
C      1  0.5366150000000  0.4530070000000  0.5250290000000 1.0
C      1  0.5366140000000  0.5018210000000  0.4467880000000 1.0
C      1  0.5063540000000  0.4717180000000  0.4036340000000 1.0
C      1  0.5063540000000  0.5975970000000  0.5236900000000 1.0
C      1  0.5063540000000  0.4306860000000  0.5726760000000 1.0
C      1  0.4045840000000  0.5148370000000  0.4571780000000 1.0
C      1  0.4045840000000  0.5296660000000  0.5342610000000 1.0
C      1  0.4045840000000  0.4554960000000  0.5085620000000 1.0
C      1  0.5928450000000  0.4500580000000  0.5216590000000 1.0
C      1  0.5928450000000  0.5062140000000  0.4459190000000 1.0
C      1  0.5928450000000  0.5437280000000  0.5324220000000 1.0
C      1  0.6090720000000  0.5061240000000  0.4709320000000 1.0
C      1  0.6090720000000  0.5221120000000  0.5198370000000 1.0
C      1  0.6090730000000  0.4717650000000  0.5092310000000 1.0
C      1  0.4241320000000  0.5738870000000  0.4879290000000 1.0
C      1  0.4241320000000  0.4735100000000  0.5700240000000 1.0
C      1  0.4241320000000  0.4526020000000  0.4420480000000 1.0
C      1  0.5645010000000  0.4320520000000  0.4965110000000 1.0
C      1  0.5645010000000  0.5369960000000  0.4428990000000 1.0
C      1  0.5645010000000  0.5309530000000  0.5605890000000 1.0
C      1  0.4387140000000  0.5511710000000  0.5627930000000 1.0
C      1  0.4387150000000  0.4200340000000  0.5129190000000 1.0
C      1  0.4387140000000  0.5287950000000  0.4242880000000 1.0
C      1  0.5446740000000  0.4116620000000  0.5049410000000 1.0
C      1  0.5446730000000  0.5398900000000  0.4210260000000 1.0
C      1  0.5446730000000  0.5484480000000  0.5740330000000 1.0
C      1  0.5237070000000  0.4622990000000  0.4516740000000 1.0
C      1  0.5237070000000  0.5607020000000  0.4915130000000 1.0
C      1  0.5237070000000  0.4769990000000  0.5568130000000 1.0
C      1  0.5127350000000  0.4331440000000  0.5411050000000 1.0
C      1  0.5127350000000  0.4978300000000  0.4215480000000 1.0
C      1  0.5127350000000  0.5690260000000  0.5373470000000 1.0
C      1  0.5192670000000  0.4765350000000  0.5142450000000 1.0
C      1  0.5192670000000  0.4993960000000  0.4725560000000 1.0
C      1  0.5192670000000  0.5240690000000  0.5131990000000 1.0
C      1  0.4365040000000  0.4718390000000  0.5101150000000 1.0
C      1  0.4365040000000  0.5053210000000  0.4705550000000 1.0
C      1  0.4365040000000  0.5228400000000  0.5193310000000 1.0
C      1  0.4208540000000  0.5443620000000  0.4444360000000 1.0
C      1  0.4208540000000  0.5259390000000  0.5662010000000 1.0
C      1  0.4208540000000  0.4296990000000  0.4893630000000 1.0
C      1  0.5173610000000  0.4532420000000  0.5907950000000 1.0
C      1  0.5173610000000  0.4447490000000  0.4141090000000 1.0
C      1  0.5173610000000  0.6020100000000  0.4950970000000 1.0
C      1  0.4426230000000  0.4772120000000  0.4798750000000 1.0
C      1  0.4426230000000  0.5288230000000  0.4903270000000 1.0
C      1  0.4426230000000  0.4939650000000  0.5297980000000 1.0
C      1  0.4350360000000  0.5011730000000  0.5742350000000 1.0
C      1  0.4350360000000  0.4351240000000  0.4638980000000 1.0
C      1  0.4350350000000  0.5637030000000  0.4618670000000 1.0
C      1  0.4841750000000  0.4982740000000  0.5611830000000 1.0
C      1  0.4841750000000  0.4478770000000  0.4679130000000 1.0
C      1  0.4841750000000  0.5538490000000  0.4709030000000 1.0
C      1  0.4748920000000  0.4976930000000  0.5311540000000 1.0
C      1  0.4748920000000  0.4741740000000  0.4824250000000 1.0
C      1  0.4748920000000  0.5281330000000  0.4864220000000 1.0
C      1  0.4959500000000  0.4557190000000  0.4410200000000 1.0
C      1  0.4959500000000  0.5732190000000  0.4911410000000 1.0
C      1  0.4959500000000  0.4710620000000  0.5678390000000 1.0
C      1  0.4827570000000  0.5032800000000  0.4378640000000 1.0
C      1  0.4827570000000  0.5521720000000  0.5339090000000 1.0
C      1  0.4827570000000  0.4445480000000  0.5282280000000 1.0
C      1  0.4678910000000  0.5482690000000  0.5599110000000 1.0
C      1  0.4678910000000  0.4239810000000  0.5118460000000 1.0
C      1  0.4678910000000  0.5277500000000  0.4282430000000 1.0
C      1  0.5281930000000  0.4190610000000  0.4794410000000 1.0
C      1  0.5281920000000  0.5582740000000  0.4401840000000 1.0
C      1  0.5281930000000  0.5226650000000  0.5803750000000 1.0
C      1  0.4221150000000  0.5577660000000  0.5376470000000 1.0
C      1  0.4221150000000  0.4385140000000  0.5312030000000 1.0
C      1  0.4221150000000  0.5037200000000  0.4311500000000 1.0
C      1  0.4651250000000  0.4462660000000  0.5537560000000 1.0
C      1  0.4651240000000  0.4803130000000  0.4265870000000 1.0
C      1  0.4651240000000  0.5734210000000  0.5196570000000 1.0
C      1  0.4770950000000  0.4691730000000  0.4027480000000 1.0
C      1  0.4770940000000  0.5996360000000  0.5219290000000 1.0
C      1  0.4770950000000  0.4311910000000  0.5753220000000 1.0
END
