TITL C-862506-1665-570 -3.23652681037683e-07 125000 -686.203559010325 0 0 142 (T23) n - 1
REM
REM in /home/nfs/bkarasulu/CARBON/AIRSS/Generating-Clusters/TERSOFF/Higher-Symm/FIRE-HFTN
REM
REM
REM
REM
REM
REM ./C.cell (b20cbc046b6831c77cfcea5457e17084)
REM AIRSS Version 0.9.1 bugfix July 2018 build 013d7b7c2542+ Fri, 06 Jul 2018 19:26:36 +0100
REM compiler GCC version 9.2.1 20190827 (Red Hat 9.2.1-1)
REM options -cpp -mtune=generic -march=x86-64 -g -O0 -fpre-include=/usr/include/finclude/math-vector-fortran.h
REM seed 274233926 1276338272 2115462165 831824981 -1898315031 1239262873 -1860066631 -280256916 -1878160089 -1845615268 -1213693229 1584168210 -411526614 -1055535834 356940802 561011463 1063243605 -1826107770 -474417600 -468867048 -265754518 1977427944 113833980 -1768407760 1719135377 2106500466 -1604911892 -1780789536 1866945421 -1690866865 -2007289029 1197659676 1989321051
REM
CELL 1.54180   50.00000   50.00000   50.00000   90.00000   90.00000   90.00000
LATT -1
SFAC C  
C      1  0.4440670000000  0.4737280000000  0.4728340000000 1.0
C      1  0.4732230000000  0.4436170000000  0.4737890000000 1.0
C      1  0.4741780000000  0.4727730000000  0.4436780000000 1.0
C      1  0.4440670000000  0.5256030000000  0.5266190000000 1.0
C      1  0.5561630000000  0.5256030000000  0.4728340000000 1.0
C      1  0.5561630000000  0.4737280000000  0.5266190000000 1.0
C      1  0.4732230000000  0.5557130000000  0.5256630000000 1.0
C      1  0.5270080000000  0.5557130000000  0.4737890000000 1.0
C      1  0.5270080000000  0.4436170000000  0.5256630000000 1.0
C      1  0.4741780000000  0.5265580000000  0.5557740000000 1.0
C      1  0.5260530000000  0.5265580000000  0.4436780000000 1.0
C      1  0.5260530000000  0.4727730000000  0.5557740000000 1.0
C      1  0.4479310000000  0.5351100000000  0.4345750000000 1.0
C      1  0.4349640000000  0.4474810000000  0.5351710000000 1.0
C      1  0.5355600000000  0.4345140000000  0.4475420000000 1.0
C      1  0.4479310000000  0.4642210000000  0.5648770000000 1.0
C      1  0.5522990000000  0.4642210000000  0.4345750000000 1.0
C      1  0.5522990000000  0.5351100000000  0.5648770000000 1.0
C      1  0.4349640000000  0.5518490000000  0.4642810000000 1.0
C      1  0.5652660000000  0.5518490000000  0.5351710000000 1.0
C      1  0.5652660000000  0.4474810000000  0.4642810000000 1.0
C      1  0.5355600000000  0.5648160000000  0.5519100000000 1.0
C      1  0.4646710000000  0.5648160000000  0.4475420000000 1.0
C      1  0.4646710000000  0.4345140000000  0.5519100000000 1.0
C      1  0.5794610000000  0.4981450000000  0.5577900000000 1.0
C      1  0.5581790000000  0.5790110000000  0.4982060000000 1.0
C      1  0.4985950000000  0.5577290000000  0.5790720000000 1.0
C      1  0.5794610000000  0.5011860000000  0.4416630000000 1.0
C      1  0.4207690000000  0.5011860000000  0.5577900000000 1.0
C      1  0.4207690000000  0.4981450000000  0.4416630000000 1.0
C      1  0.5581790000000  0.4203190000000  0.5012470000000 1.0
C      1  0.4420520000000  0.4203190000000  0.4982060000000 1.0
C      1  0.4420520000000  0.5790110000000  0.5012470000000 1.0
C      1  0.4985950000000  0.4416020000000  0.4203800000000 1.0
C      1  0.5016360000000  0.4416020000000  0.5790720000000 1.0
C      1  0.5016360000000  0.5577290000000  0.4203800000000 1.0
C      1  0.4404600000000  0.4521750000000  0.5019430000000 1.0
C      1  0.5023320000000  0.4400100000000  0.4522360000000 1.0
C      1  0.4526250000000  0.5018820000000  0.4400710000000 1.0
C      1  0.4404600000000  0.5471560000000  0.4975100000000 1.0
C      1  0.5597700000000  0.5471560000000  0.5019430000000 1.0
C      1  0.5597700000000  0.4521750000000  0.4975100000000 1.0
C      1  0.5023320000000  0.5593200000000  0.5472170000000 1.0
C      1  0.4978990000000  0.5593200000000  0.4522360000000 1.0
C      1  0.4978990000000  0.4400100000000  0.5472170000000 1.0
C      1  0.4526250000000  0.4974490000000  0.5593810000000 1.0
C      1  0.5476060000000  0.4974490000000  0.4400710000000 1.0
C      1  0.5476060000000  0.5018820000000  0.5593810000000 1.0
C      1  0.4002310000000  0.4659800000000  0.4947890000000 1.0
C      1  0.4951780000000  0.3997810000000  0.4660410000000 1.0
C      1  0.4664300000000  0.4947280000000  0.3998410000000 1.0
C      1  0.4002310000000  0.5333500000000  0.5046640000000 1.0
C      1  0.6000000000000  0.5333500000000  0.4947890000000 1.0
C      1  0.6000000000000  0.4659800000000  0.5046640000000 1.0
C      1  0.4951780000000  0.5995500000000  0.5334110000000 1.0
C      1  0.5050530000000  0.5995500000000  0.4660410000000 1.0
C      1  0.5050530000000  0.3997810000000  0.5334110000000 1.0
C      1  0.4664300000000  0.5046030000000  0.5996110000000 1.0
C      1  0.5338000000000  0.5046030000000  0.3998410000000 1.0
C      1  0.5338000000000  0.4947280000000  0.5996110000000 1.0
C      1  0.4681270000000  0.5863640000000  0.4893500000000 1.0
C      1  0.4897390000000  0.4676770000000  0.5864250000000 1.0
C      1  0.5868140000000  0.4892890000000  0.4677380000000 1.0
C      1  0.4681270000000  0.4129670000000  0.5101030000000 1.0
C      1  0.5321040000000  0.4129670000000  0.4893500000000 1.0
C      1  0.5321040000000  0.5863640000000  0.5101030000000 1.0
C      1  0.4897390000000  0.5316540000000  0.4130280000000 1.0
C      1  0.5104920000000  0.5316540000000  0.5864250000000 1.0
C      1  0.5104920000000  0.4676770000000  0.4130280000000 1.0
C      1  0.5868140000000  0.5100420000000  0.5317150000000 1.0
C      1  0.4134170000000  0.5100420000000  0.4677380000000 1.0
C      1  0.4134170000000  0.4892890000000  0.5317150000000 1.0
C      1  0.4283910000000  0.5316930000000  0.5574120000000 1.0
C      1  0.5578010000000  0.4279410000000  0.5317540000000 1.0
C      1  0.5321430000000  0.5573510000000  0.4280020000000 1.0
C      1  0.4283910000000  0.4676380000000  0.4420410000000 1.0
C      1  0.5718400000000  0.4676380000000  0.5574120000000 1.0
C      1  0.5718400000000  0.5316930000000  0.4420410000000 1.0
C      1  0.5578010000000  0.5713900000000  0.4676980000000 1.0
C      1  0.4424300000000  0.5713900000000  0.5317540000000 1.0
C      1  0.4424300000000  0.4279410000000  0.4676980000000 1.0
C      1  0.5321430000000  0.4419800000000  0.5714510000000 1.0
C      1  0.4680880000000  0.4419800000000  0.4280020000000 1.0
C      1  0.4680880000000  0.5573510000000  0.5714510000000 1.0
C      1  0.4621730000000  0.5220050000000  0.4892200000000 1.0
C      1  0.4896090000000  0.4617230000000  0.5220660000000 1.0
C      1  0.5224550000000  0.4891590000000  0.4617840000000 1.0
C      1  0.4621730000000  0.4773260000000  0.5102320000000 1.0
C      1  0.5380580000000  0.4773260000000  0.4892200000000 1.0
C      1  0.5380580000000  0.5220050000000  0.5102320000000 1.0
C      1  0.4896090000000  0.5376080000000  0.4773870000000 1.0
C      1  0.5106210000000  0.5376080000000  0.5220660000000 1.0
C      1  0.5106210000000  0.4617230000000  0.4773870000000 1.0
C      1  0.5224550000000  0.5101710000000  0.5376690000000 1.0
C      1  0.4777760000000  0.5101710000000  0.4617840000000 1.0
C      1  0.4777760000000  0.4891590000000  0.5376690000000 1.0
C      1  0.4479850000000  0.5331850000000  0.5876270000000 1.0
C      1  0.5880160000000  0.4475350000000  0.5332460000000 1.0
C      1  0.5336350000000  0.5875660000000  0.4475960000000 1.0
C      1  0.4479850000000  0.4661460000000  0.4118260000000 1.0
C      1  0.5522460000000  0.4661460000000  0.5876270000000 1.0
C      1  0.5522460000000  0.5331850000000  0.4118260000000 1.0
C      1  0.5880160000000  0.5517960000000  0.4662070000000 1.0
C      1  0.4122150000000  0.5517960000000  0.5332460000000 1.0
C      1  0.4122150000000  0.4475350000000  0.4662070000000 1.0
C      1  0.5336350000000  0.4117650000000  0.5518570000000 1.0
C      1  0.4665960000000  0.4117650000000  0.4475960000000 1.0
C      1  0.4665960000000  0.5875660000000  0.5518560000000 1.0
C      1  0.4995960000000  0.5151870000000  0.4352420000000 1.0
C      1  0.4356310000000  0.4991460000000  0.5152480000000 1.0
C      1  0.5156370000000  0.4351810000000  0.4992070000000 1.0
C      1  0.4995960000000  0.4841440000000  0.5642110000000 1.0
C      1  0.5006340000000  0.4841440000000  0.4352420000000 1.0
C      1  0.5006340000000  0.5151870000000  0.5642110000000 1.0
C      1  0.4356310000000  0.5001840000000  0.4842050000000 1.0
C      1  0.5646000000000  0.5001840000000  0.5152480000000 1.0
C      1  0.5646000000000  0.4991460000000  0.4842050000000 1.0
C      1  0.5156370000000  0.5641500000000  0.5002450000000 1.0
C      1  0.4845940000000  0.5641500000000  0.4992070000000 1.0
C      1  0.4845940000000  0.4351810000000  0.5002450000000 1.0
C      1  0.4072820000000  0.4608330000000  0.5261200000000 1.0
C      1  0.5265090000000  0.4068320000000  0.4608930000000 1.0
C      1  0.4612830000000  0.5260590000000  0.4068930000000 1.0
C      1  0.4072820000000  0.5384980000000  0.4733330000000 1.0
C      1  0.5929490000000  0.5384980000000  0.5261200000000 1.0
C      1  0.5929490000000  0.4608320000000  0.4733330000000 1.0
C      1  0.5265090000000  0.5924990000000  0.5385590000000 1.0
C      1  0.4737220000000  0.5924990000000  0.4608930000000 1.0
C      1  0.4737220000000  0.4068320000000  0.5385590000000 1.0
C      1  0.4612830000000  0.4732720000000  0.5925590000000 1.0
C      1  0.5389480000000  0.4732720000000  0.4068930000000 1.0
C      1  0.5389480000000  0.5260590000000  0.5925590000000 1.0
C      1  0.3883740000000  0.4996650000000  0.4997260000000 1.0
C      1  0.5001150000000  0.3879240000000  0.4997260000000 1.0
C      1  0.5001150000000  0.4996650000000  0.3879850000000 1.0
C      1  0.6118570000000  0.4996650000000  0.4997260000000 1.0
C      1  0.5001150000000  0.6114070000000  0.4997260000000 1.0
C      1  0.5001150000000  0.4996650000000  0.6114670000000 1.0
C      1  0.5224190000000  0.5219690000000  0.4774230000000 1.0
C      1  0.4778120000000  0.5219690000000  0.5220300000000 1.0
C      1  0.5224190000000  0.4773620000000  0.5220300000000 1.0
C      1  0.4778120000000  0.4773620000000  0.4774230000000 1.0
END
