TITL C-862503-991-717 8426793.64804214 125000 -713.468561379385 0 0 124 (C1) n - 1
REM
REM in /home/nfs/bkarasulu/CARBON/AIRSS/Generating-Clusters/TERSOFF/Higher-Symm/FIRE-HFTN
REM
REM
REM
REM
REM
REM ./C.cell (b20cbc046b6831c77cfcea5457e17084)
REM AIRSS Version 0.9.1 bugfix July 2018 build 013d7b7c2542+ Fri, 06 Jul 2018 19:26:36 +0100
REM compiler GCC version 9.2.1 20190827 (Red Hat 9.2.1-1)
REM options -cpp -mtune=generic -march=x86-64 -g -O0 -fpre-include=/usr/include/finclude/math-vector-fortran.h
REM seed 928742200 -1289070872 697729600 2000265499 227896682 1015593225 -149551694 -1906942678 -1207445062 -1982817879 -471428825 -1873020682 -2067089734 890752390 1504241955 315338376 -1834048788 -712398418 1983177131 918926906 1113901726 -1502530490 649817681 -567757960 2054433703 624667186 -499773158 630485590 890328465 -1393794036 -555546986 -1990108976 -1635500301
REM
CELL 1.54180   50.00000   50.00000   50.00000   90.00000   90.00000   90.00000
LATT -1
SFAC C  
C      1  0.5364520000000  0.4558050000000  0.5771950000000 1.0
C      1  0.4067030000000  0.4379570000000  0.4877170000000 1.0
C      1  0.5522280000000  0.4476340000000  0.4308930000000 1.0
C      1  0.4833960000000  0.4535140000000  0.4187060000000 1.0
C      1  0.5771160000000  0.4583100000000  0.5198020000000 1.0
C      1  0.4444880000000  0.4593860000000  0.5517120000000 1.0
C      1  0.4857300000000  0.5161870000000  0.4164430000000 1.0
C      1  0.5665710000000  0.5082310000000  0.5157120000000 1.0
C      1  0.4427000000000  0.5195770000000  0.5688140000000 1.0
C      1  0.5621950000000  0.4958590000000  0.5556420000000 1.0
C      1  0.4319490000000  0.4866920000000  0.5070750000000 1.0
C      1  0.5232750000000  0.4870880000000  0.4133720000000 1.0
C      1  0.5463590000000  0.4246340000000  0.4773940000000 1.0
C      1  0.4992830000000  0.4276160000000  0.5538750000000 1.0
C      1  0.4536210000000  0.4175680000000  0.4745320000000 1.0
C      1  0.4009540000000  0.5426010000000  0.5854010000000 1.0
C      1  0.4996590000000  0.5444000000000  0.3772990000000 1.0
C      1  0.6099350000000  0.5291140000000  0.5310940000000 1.0
C      1  0.4887700000000  0.4521060000000  0.4724030000000 1.0
C      1  0.5238040000000  0.4551490000000  0.5079010000000 1.0
C      1  0.4763920000000  0.4536850000000  0.5197730000000 1.0
C      1  0.4355410000000  0.5679830000000  0.5626040000000 1.0
C      1  0.4903300000000  0.5655960000000  0.4199560000000 1.0
C      1  0.5716040000000  0.5571080000000  0.5194680000000 1.0
C      1  0.3716830000000  0.5752620000000  0.5210490000000 1.0
C      1  0.5645070000000  0.5779900000000  0.4042470000000 1.0
C      1  0.5906020000000  0.5726910000000  0.5923520000000 1.0
C      1  0.5651990000000  0.4477930000000  0.5687400000000 1.0
C      1  0.4093610000000  0.4419200000000  0.5188130000000 1.0
C      1  0.5310330000000  0.4383210000000  0.4101980000000 1.0
C      1  0.4716280000000  0.5413650000000  0.5329630000000 1.0
C      1  0.4919320000000  0.5357350000000  0.4633310000000 1.0
C      1  0.5230470000000  0.5359130000000  0.5218450000000 1.0
C      1  0.5263230000000  0.4063170000000  0.4885200000000 1.0
C      1  0.5003320000000  0.4079540000000  0.5319700000000 1.0
C      1  0.4754410000000  0.4031910000000  0.4876730000000 1.0
C      1  0.5452760000000  0.4517500000000  0.4897990000000 1.0
C      1  0.4856860000000  0.4531810000000  0.5464880000000 1.0
C      1  0.4617950000000  0.4449130000000  0.4661650000000 1.0
C      1  0.4741900000000  0.5599190000000  0.4646220000000 1.0
C      1  0.5253170000000  0.5587140000000  0.5023860000000 1.0
C      1  0.4801070000000  0.5685140000000  0.5436830000000 1.0
C      1  0.4758870000000  0.5772820000000  0.4876440000000 1.0
C      1  0.5031140000000  0.5818370000000  0.4998040000000 1.0
C      1  0.5006540000000  0.5853110000000  0.5304780000000 1.0
C      1  0.5505930000000  0.4204130000000  0.5595940000000 1.0
C      1  0.4250660000000  0.4137640000000  0.5167080000000 1.0
C      1  0.5274850000000  0.4137050000000  0.4305060000000 1.0
C      1  0.5249020000000  0.4777060000000  0.5619330000000 1.0
C      1  0.4148090000000  0.4601110000000  0.4721200000000 1.0
C      1  0.5461770000000  0.4723080000000  0.4453140000000 1.0
C      1  0.4508500000000  0.5501130000000  0.6037230000000 1.0
C      1  0.4512030000000  0.5469810000000  0.4009150000000 1.0
C      1  0.5898860000000  0.5368310000000  0.4831660000000 1.0
C      1  0.4447560000000  0.5655870000000  0.4230180000000 1.0
C      1  0.5688140000000  0.5553980000000  0.4735460000000 1.0
C      1  0.4685870000000  0.5717960000000  0.5936510000000 1.0
C      1  0.4784820000000  0.4759990000000  0.5908000000000 1.0
C      1  0.4344470000000  0.4720690000000  0.4269800000000 1.0
C      1  0.5905740000000  0.4674400000000  0.4683850000000 1.0
C      1  0.5403610000000  0.5684790000000  0.5560990000000 1.0
C      1  0.4335160000000  0.5666530000000  0.5127740000000 1.0
C      1  0.5275980000000  0.5695580000000  0.4539430000000 1.0
C      1  0.5374140000000  0.5113570000000  0.5146520000000 1.0
C      1  0.4667340000000  0.5204120000000  0.5526070000000 1.0
C      1  0.4844000000000  0.5141620000000  0.4453340000000 1.0
C      1  0.4512030000000  0.5864670000000  0.5004190000000 1.0
C      1  0.5215170000000  0.5901990000000  0.4748580000000 1.0
C      1  0.5245260000000  0.5909790000000  0.5462870000000 1.0
C      1  0.5511750000000  0.4143500000000  0.5309800000000 1.0
C      1  0.4498850000000  0.4115850000000  0.5318910000000 1.0
C      1  0.5014010000000  0.4109360000000  0.4439100000000 1.0
C      1  0.5288930000000  0.4908240000000  0.6015850000000 1.0
C      1  0.4033290000000  0.4988070000000  0.4607950000000 1.0
C      1  0.5774970000000  0.4799360000000  0.4184340000000 1.0
C      1  0.4983180000000  0.4775710000000  0.5538270000000 1.0
C      1  0.4421700000000  0.4656250000000  0.4677290000000 1.0
C      1  0.5494270000000  0.4744140000000  0.4730320000000 1.0
C      1  0.4607770000000  0.4723470000000  0.4134880000000 1.0
C      1  0.5863170000000  0.4761480000000  0.4970890000000 1.0
C      1  0.4588990000000  0.4808410000000  0.5679470000000 1.0
C      1  0.4987950000000  0.4963250000000  0.6016490000000 1.0
C      1  0.4187690000000  0.4964150000000  0.4344180000000 1.0
C      1  0.5917170000000  0.4860740000000  0.4444360000000 1.0
C      1  0.5011450000000  0.4029270000000  0.4731000000000 1.0
C      1  0.5262110000000  0.4047560000000  0.5177410000000 1.0
C      1  0.4751220000000  0.4032860000000  0.5176840000000 1.0
C      1  0.6112130000000  0.5430670000000  0.5565220000000 1.0
C      1  0.3821770000000  0.5530020000000  0.5656990000000 1.0
C      1  0.5260690000000  0.5566230000000  0.3785250000000 1.0
C      1  0.5183990000000  0.5725770000000  0.4254260000000 1.0
C      1  0.5681710000000  0.5662210000000  0.5470530000000 1.0
C      1  0.4195650000000  0.5716420000000  0.5383190000000 1.0
C      1  0.5535260000000  0.5658210000000  0.4971890000000 1.0
C      1  0.4630820000000  0.5789250000000  0.5651860000000 1.0
C      1  0.4687420000000  0.5721970000000  0.4387220000000 1.0
C      1  0.5251160000000  0.5441560000000  0.5498510000000 1.0
C      1  0.4504750000000  0.5428640000000  0.5130330000000 1.0
C      1  0.5201540000000  0.5429710000000  0.4638120000000 1.0
C      1  0.5521250000000  0.4219820000000  0.4489060000000 1.0
C      1  0.5222040000000  0.4283040000000  0.5720400000000 1.0
C      1  0.4263650000000  0.4132280000000  0.4852910000000 1.0
C      1  0.5725620000000  0.4683640000000  0.5486740000000 1.0
C      1  0.4252530000000  0.4656260000000  0.5281310000000 1.0
C      1  0.5113370000000  0.4600500000000  0.4098620000000 1.0
C      1  0.6097000000000  0.5089870000000  0.4451140000000 1.0
C      1  0.4894440000000  0.5190550000000  0.6178850000000 1.0
C      1  0.4128370000000  0.5153370000000  0.4129550000000 1.0
C      1  0.5496980000000  0.5042760000000  0.5829600000000 1.0
C      1  0.4121540000000  0.5023660000000  0.4901730000000 1.0
C      1  0.5524850000000  0.4940550000000  0.4085050000000 1.0
C      1  0.5902100000000  0.5611500000000  0.5657270000000 1.0
C      1  0.3906970000000  0.5669180000000  0.5413150000000 1.0
C      1  0.5368000000000  0.5695640000000  0.4026310000000 1.0
C      1  0.4324150000000  0.5260120000000  0.3944540000000 1.0
C      1  0.6119910000000  0.5274910000000  0.4671430000000 1.0
C      1  0.4619340000000  0.5283180000000  0.6194790000000 1.0
C      1  0.4512560000000  0.4305260000000  0.5544410000000 1.0
C      1  0.4794100000000  0.4273080000000  0.4323630000000 1.0
C      1  0.5706510000000  0.4298030000000  0.5150610000000 1.0
C      1  0.4302400000000  0.5439040000000  0.5813100000000 1.0
C      1  0.4823590000000  0.5418860000000  0.4011910000000 1.0
C      1  0.5864400000000  0.5308060000000  0.5131540000000 1.0
C      1  0.4963200000000  0.4552050000000  0.4996560000000 1.0
END
