TITL C-862128-1543-1088 -9.69548167652053e-05 125000 -591.575870642102 0 0 100 (C5) n - 1
REM
REM in /home/nfs/bkarasulu/CARBON/AIRSS/Generating-Clusters/TERSOFF/Higher-Symm/FIRE-HFTN
REM
REM
REM
REM
REM
REM ./C.cell (b20cbc046b6831c77cfcea5457e17084)
REM AIRSS Version 0.9.1 bugfix July 2018 build 013d7b7c2542+ Fri, 06 Jul 2018 19:26:36 +0100
REM compiler GCC version 9.2.1 20190827 (Red Hat 9.2.1-1)
REM options -cpp -mtune=generic -march=x86-64 -g -O0 -fpre-include=/usr/include/finclude/math-vector-fortran.h
REM seed -1783706986 303865837 -1781373245 -447898794 1914965593 855517401 -308511769 2059282278 -573817635 -1768582965 1341095285 1503475787 -990082190 1430811232 1484317593 220320142 -1308169155 -313985806 253912281 879609755 953605048 -971702795 2055106271 -703228207 -573791623 1020466679 715665418 1122942366 -1656072099 1487840654 1644189465 223323659 -1318376730
REM
CELL 1.54180   50.00000   50.00000   50.00000   90.00000   90.00000   90.00000
LATT -1
SFAC C  
C      1  0.4753480000000  0.5374130000000  0.5148710000000 1.0
C      1  0.4782390000000  0.5374120000000  0.4811500000000 1.0
C      1  0.5112030000000  0.5374130000000  0.4734790000000 1.0
C      1  0.5286840000000  0.5374130000000  0.5024590000000 1.0
C      1  0.5065250000000  0.5374130000000  0.5280400000000 1.0
C      1  0.5354110000000  0.5103810000000  0.4708120000000 1.0
C      1  0.5387030000000  0.5103820000000  0.5246580000000 1.0
C      1  0.4885080000000  0.5103810000000  0.5444280000000 1.0
C      1  0.4541950000000  0.5103810000000  0.5028000000000 1.0
C      1  0.4831830000000  0.5103810000000  0.4573020000000 1.0
C      1  0.4747600000000  0.4882110000000  0.5016930000000 1.0
C      1  0.4905910000000  0.4882110000000  0.4765190000000 1.0
C      1  0.5194240000000  0.4882110000000  0.4837950000000 1.0
C      1  0.5214140000000  0.4882120000000  0.5134660000000 1.0
C      1  0.4938100000000  0.4882110000000  0.5245270000000 1.0
C      1  0.5555790000000  0.4985690000000  0.4435630000000 1.0
C      1  0.5708500000000  0.4985700000000  0.5354180000000 1.0
C      1  0.4882090000000  0.4985700000000  0.5783270000000 1.0
C      1  0.4218630000000  0.4985690000000  0.5129900000000 1.0
C      1  0.4635000000000  0.4985690000000  0.4297010000000 1.0
C      1  0.5489450000000  0.4541080000000  0.5082330000000 1.0
C      1  0.5072950000000  0.4541080000000  0.5490940000000 1.0
C      1  0.4555630000000  0.4541080000000  0.5221090000000 1.0
C      1  0.4652420000000  0.4541080000000  0.4645700000000 1.0
C      1  0.5229550000000  0.4541080000000  0.4559940000000 1.0
C      1  0.4576170000000  0.3909410000000  0.4922490000000 1.0
C      1  0.4942750000000  0.3909410000000  0.4572960000000 1.0
C      1  0.5388450000000  0.3909410000000  0.4813590000000 1.0
C      1  0.5297330000000  0.3909410000000  0.5311830000000 1.0
C      1  0.4795320000000  0.3909410000000  0.5379140000000 1.0
C      1  0.4239970000000  0.5481450000000  0.5327330000000 1.0
C      1  0.4453830000000  0.5481450000000  0.4378320000000 1.0
C      1  0.5422480000000  0.5481450000000  0.4288450000000 1.0
C      1  0.5807280000000  0.5481450000000  0.5181920000000 1.0
C      1  0.5076440000000  0.5481450000000  0.5823980000000 1.0
C      1  0.4394530000000  0.5111090000000  0.4735690000000 1.0
C      1  0.5064270000000  0.5111090000000  0.4342490000000 1.0
C      1  0.5645190000000  0.5111090000000  0.4857940000000 1.0
C      1  0.5334480000000  0.5111090000000  0.5569710000000 1.0
C      1  0.4561530000000  0.5111090000000  0.5494160000000 1.0
C      1  0.4727760000000  0.5732970000000  0.5554060000000 1.0
C      1  0.4388930000000  0.5732970000000  0.4912300000000 1.0
C      1  0.4894580000000  0.5732970000000  0.4391730000000 1.0
C      1  0.5545920000000  0.5732970000000  0.4711770000000 1.0
C      1  0.5442820000000  0.5732970000000  0.5430130000000 1.0
C      1  0.5793900000000  0.4867410000000  0.4906340000000 1.0
C      1  0.5334400000000  0.4867410000000  0.5726110000000 1.0
C      1  0.4412770000000  0.4867410000000  0.5542410000000 1.0
C      1  0.4302670000000  0.4867410000000  0.4609120000000 1.0
C      1  0.5156260000000  0.4867410000000  0.4216010000000 1.0
C      1  0.4105180000000  0.5432700000000  0.4836890000000 1.0
C      1  0.4878620000000  0.5432700000000  0.4098580000000 1.0
C      1  0.5819800000000  0.5432700000000  0.4606000000000 1.0
C      1  0.5628040000000  0.5432700000000  0.5657920000000 1.0
C      1  0.4568360000000  0.5432700000000  0.5800610000000 1.0
C      1  0.4129680000000  0.5303590000000  0.5110640000000 1.0
C      1  0.4625830000000  0.5303590000000  0.4206470000000 1.0
C      1  0.5639070000000  0.5303600000000  0.4398930000000 1.0
C      1  0.5769140000000  0.5303600000000  0.5422050000000 1.0
C      1  0.4836280000000  0.5303600000000  0.5861910000000 1.0
C      1  0.5794440000000  0.5355430000000  0.4895300000000 1.0
C      1  0.5345070000000  0.5355430000000  0.5723210000000 1.0
C      1  0.4418820000000  0.5355430000000  0.5551670000000 1.0
C      1  0.4295740000000  0.5355420000000  0.4617740000000 1.0
C      1  0.5145920000000  0.5355420000000  0.4212080000000 1.0
C      1  0.4578060000000  0.4641540000000  0.5492970000000 1.0
C      1  0.4400770000000  0.4641540000000  0.4751050000000 1.0
C      1  0.5051590000000  0.4641540000000  0.4353170000000 1.0
C      1  0.5631120000000  0.4641540000000  0.4849190000000 1.0
C      1  0.5338460000000  0.4641540000000  0.5553620000000 1.0
C      1  0.4744840000000  0.4328420000000  0.5122790000000 1.0
C      1  0.4804380000000  0.4328420000000  0.4795280000000 1.0
C      1  0.5134250000000  0.4328420000000  0.4750690000000 1.0
C      1  0.5278600000000  0.4328420000000  0.5050640000000 1.0
C      1  0.5037930000000  0.4328420000000  0.5280610000000 1.0
C      1  0.5168400000000  0.5627660000000  0.5438440000000 1.0
C      1  0.4635050000000  0.5627660000000  0.5295640000000 1.0
C      1  0.4606050000000  0.5627660000000  0.4744270000000 1.0
C      1  0.5121470000000  0.5627660000000  0.4546310000000 1.0
C      1  0.5469020000000  0.5627660000000  0.4975330000000 1.0
C      1  0.4356060000000  0.4883360000000  0.4328560000000 1.0
C      1  0.5439590000000  0.4883360000000  0.4180090000000 1.0
C      1  0.5915620000000  0.4883370000000  0.5164710000000 1.0
C      1  0.5126300000000  0.4883370000000  0.5921710000000 1.0
C      1  0.4162430000000  0.4883360000000  0.5404940000000 1.0
C      1  0.4376110000000  0.4686820000000  0.5034240000000 1.0
C      1  0.4774640000000  0.4686820000000  0.4417220000000 1.0
C      1  0.5484620000000  0.4686820000000  0.4605580000000 1.0
C      1  0.5524870000000  0.4686820000000  0.5339010000000 1.0
C      1  0.4839770000000  0.4686820000000  0.5603940000000 1.0
C      1  0.5385870000000  0.5710640000000  0.4473890000000 1.0
C      1  0.5619600000000  0.5710640000000  0.5204410000000 1.0
C      1  0.4997060000000  0.5710640000000  0.5652440000000 1.0
C      1  0.4378590000000  0.5710640000000  0.5198820000000 1.0
C      1  0.4618880000000  0.5710640000000  0.4470440000000 1.0
C      1  0.5405050000000  0.4040680000000  0.5074080000000 1.0
C      1  0.5054710000000  0.4040680000000  0.5408120000000 1.0
C      1  0.4628760000000  0.4040680000000  0.5178150000000 1.0
C      1  0.4715850000000  0.4040680000000  0.4701990000000 1.0
C      1  0.5195620000000  0.4040680000000  0.4637670000000 1.0
END
