TITL C-862502-1143-1052 -1.25014483681523e-05 125000 -121.483096792996 0 0 28 (Cs) n - 1
REM
REM in /home/nfs/bkarasulu/CARBON/AIRSS/Generating-Clusters/TERSOFF/Higher-Symm/FIRE-HFTN
REM
REM
REM
REM
REM
REM ./C.cell (b20cbc046b6831c77cfcea5457e17084)
REM AIRSS Version 0.9.1 bugfix July 2018 build 013d7b7c2542+ Fri, 06 Jul 2018 19:26:36 +0100
REM compiler GCC version 9.2.1 20190827 (Red Hat 9.2.1-1)
REM options -cpp -mtune=generic -march=x86-64 -g -O0 -fpre-include=/usr/include/finclude/math-vector-fortran.h
REM seed 637289865 -893450775 -1209875929 334844587 -939382982 -1858251238 796532530 193165516 -1815816396 1045110398 85870527 2082040972 -123776739 -1875171153 55508961 -719729432 437262198 -1674777542 895547433 1343003267 -752736829 987920447 1167338895 1964097686 -384668891 -1334825125 1814139708 905749812 1994241551 445320856 1462950191 -364670310 -2135576292
REM
CELL 1.54180   50.00000   50.00000   50.00000   90.00000   90.00000   90.00000
LATT -1
SFAC C  
C      1  0.5470330000000  0.4909060000000  0.5293420000000 1.0
C      1  0.5053660000000  0.4414260000000  0.5287460000000 1.0
C      1  0.4653540000000  0.4799870000000  0.5289720000000 1.0
C      1  0.4680450000000  0.5297190000000  0.5251010000000 1.0
C      1  0.5191810000000  0.5501350000000  0.5293930000000 1.0
C      1  0.5470330000000  0.4909060000000  0.4720240000000 1.0
C      1  0.5053660000000  0.4414260000000  0.4726200000000 1.0
C      1  0.4653540000000  0.4799870000000  0.4723940000000 1.0
C      1  0.4680450000000  0.5297190000000  0.4762650000000 1.0
C      1  0.5191810000000  0.5501350000000  0.4719730000000 1.0
C      1  0.5341060000000  0.5239850000000  0.5289770000000 1.0
C      1  0.5322050000000  0.4646580000000  0.5297530000000 1.0
C      1  0.4772390000000  0.4483680000000  0.5291390000000 1.0
C      1  0.4831980000000  0.5035980000000  0.5275690000000 1.0
C      1  0.4853060000000  0.5530750000000  0.5285970000000 1.0
C      1  0.5341060000000  0.5239850000000  0.4723890000000 1.0
C      1  0.5322050000000  0.4646580000000  0.4716130000000 1.0
C      1  0.4772390000000  0.4483680000000  0.4722270000000 1.0
C      1  0.4831980000000  0.5035980000000  0.4737970000000 1.0
C      1  0.4853060000000  0.5530750000000  0.4727690000000 1.0
C      1  0.5264690000000  0.4447290000000  0.5006830000000 1.0
C      1  0.4585320000000  0.4587510000000  0.5006830000000 1.0
C      1  0.4522150000000  0.5308400000000  0.5006830000000 1.0
C      1  0.5512310000000  0.5110930000000  0.5006830000000 1.0
C      1  0.5045380000000  0.5657630000000  0.5006830000000 1.0
C      1  0.5024470000000  0.5042980000000  0.4512020000000 1.0
C      1  0.5024470000000  0.5042980000000  0.5501640000000 1.0
C      1  0.4972450000000  0.5013340000000  0.5006830000000 1.0
END
