TITL C-862133-5440-966 0.108475471701652 125000 -556.593935802424 0 0 107 (C2) n - 1
REM
REM in /home/nfs/bkarasulu/CARBON/AIRSS/Generating-Clusters/TERSOFF/Higher-Symm/FIRE-HFTN
REM
REM
REM
REM
REM
REM ./C.cell (b20cbc046b6831c77cfcea5457e17084)
REM AIRSS Version 0.9.1 bugfix July 2018 build 013d7b7c2542+ Fri, 06 Jul 2018 19:26:36 +0100
REM compiler GCC version 9.2.1 20190827 (Red Hat 9.2.1-1)
REM options -cpp -mtune=generic -march=x86-64 -g -O0 -fpre-include=/usr/include/finclude/math-vector-fortran.h
REM seed 1790705478 1381094860 -1320023155 -675481799 2007896209 1272817785 -643599950 -33541441 496616970 -1967959005 1366440345 2104649453 1263062359 770225802 1273941293 -118712777 -1986240970 -990657828 -125594647 799755124 -1326028469 -228068683 -813409964 -950060585 -157989555 566545907 -659953002 816850327 -1464765370 1666518780 388220381 -648325391 -740558991
REM
CELL 1.54180   50.00000   50.00000   50.00000   90.00000   90.00000   90.00000
LATT -1
SFAC C  
C      1  0.4856290000000  0.4517760000000  0.4196920000000 1.0
C      1  0.5103210000000  0.5514310000000  0.4150270000000 1.0
C      1  0.5103090000000  0.4487750000000  0.5848520000000 1.0
C      1  0.4856100000000  0.5484280000000  0.5801830000000 1.0
C      1  0.4486980000000  0.4877500000000  0.4206340000000 1.0
C      1  0.5475460000000  0.5157010000000  0.4127280000000 1.0
C      1  0.4486810000000  0.5124500000000  0.5792330000000 1.0
C      1  0.5475300000000  0.4845080000000  0.5871580000000 1.0
C      1  0.4325710000000  0.5417830000000  0.5382650000000 1.0
C      1  0.5680130000000  0.4517480000000  0.5503250000000 1.0
C      1  0.5680180000000  0.5484620000000  0.4495650000000 1.0
C      1  0.4325820000000  0.4584160000000  0.4615990000000 1.0
C      1  0.5411900000000  0.4299560000000  0.5466480000000 1.0
C      1  0.4566300000000  0.5636160000000  0.5379830000000 1.0
C      1  0.5411930000000  0.5702520000000  0.4532370000000 1.0
C      1  0.4566430000000  0.4365850000000  0.4618850000000 1.0
C      1  0.4719280000000  0.5733070000000  0.4504100000000 1.0
C      1  0.5252870000000  0.4300760000000  0.4512600000000 1.0
C      1  0.5252720000000  0.5701300000000  0.5486220000000 1.0
C      1  0.4719250000000  0.4268950000000  0.5494610000000 1.0
C      1  0.5630980000000  0.4766410000000  0.4545930000000 1.0
C      1  0.4327260000000  0.5269980000000  0.4530430000000 1.0
C      1  0.5630870000000  0.5235680000000  0.5452960000000 1.0
C      1  0.4327190000000  0.4732010000000  0.5468210000000 1.0
C      1  0.5373220000000  0.5872110000000  0.5020880000000 1.0
C      1  0.4617310000000  0.4143910000000  0.5020920000000 1.0
C      1  0.4617240000000  0.5858100000000  0.4977770000000 1.0
C      1  0.5373300000000  0.4129960000000  0.4977970000000 1.0
C      1  0.5810400000000  0.5403570000000  0.5009800000000 1.0
C      1  0.4158380000000  0.4613320000000  0.5021190000000 1.0
C      1  0.5810430000000  0.4598540000000  0.4989130000000 1.0
C      1  0.4158350000000  0.5388650000000  0.4977420000000 1.0
C      1  0.4972350000000  0.5279650000000  0.4312470000000 1.0
C      1  0.5005440000000  0.4762660000000  0.4331710000000 1.0
C      1  0.5005290000000  0.5239380000000  0.5667060000000 1.0
C      1  0.4972240000000  0.4722390000000  0.5686300000000 1.0
C      1  0.5244210000000  0.5034680000000  0.4292420000000 1.0
C      1  0.4736720000000  0.5007670000000  0.4337950000000 1.0
C      1  0.5244070000000  0.4967380000000  0.5706400000000 1.0
C      1  0.4736590000000  0.4994350000000  0.5660770000000 1.0
C      1  0.4661540000000  0.5122730000000  0.4896340000000 1.0
C      1  0.5427810000000  0.4828620000000  0.5009360000000 1.0
C      1  0.5427790000000  0.5173460000000  0.4989490000000 1.0
C      1  0.4661530000000  0.4879280000000  0.5102360000000 1.0
C      1  0.5160700000000  0.4606720000000  0.4924760000000 1.0
C      1  0.4895490000000  0.5376100000000  0.4890970000000 1.0
C      1  0.5160650000000  0.5395330000000  0.5074040000000 1.0
C      1  0.4895500000000  0.4625930000000  0.5107780000000 1.0
C      1  0.4384740000000  0.5378010000000  0.5696360000000 1.0
C      1  0.5584180000000  0.4583890000000  0.5804320000000 1.0
C      1  0.5584310000000  0.5418200000000  0.4194570000000 1.0
C      1  0.4384900000000  0.4623980000000  0.4302300000000 1.0
C      1  0.5359040000000  0.4380590000000  0.5772590000000 1.0
C      1  0.4608470000000  0.5589330000000  0.5697030000000 1.0
C      1  0.5359140000000  0.5621480000000  0.4226250000000 1.0
C      1  0.4608650000000  0.4412680000000  0.4301660000000 1.0
C      1  0.5592010000000  0.5432530000000  0.4798540000000 1.0
C      1  0.4459900000000  0.4663500000000  0.4932820000000 1.0
C      1  0.4459850000000  0.5338490000000  0.5065840000000 1.0
C      1  0.5592010000000  0.4569570000000  0.5200350000000 1.0
C      1  0.5350210000000  0.5608170000000  0.4864410000000 1.0
C      1  0.4669240000000  0.4439630000000  0.4931440000000 1.0
C      1  0.5350230000000  0.4393910000000  0.5134430000000 1.0
C      1  0.4669180000000  0.5562380000000  0.5067260000000 1.0
C      1  0.5832020000000  0.4897830000000  0.5098870000000 1.0
C      1  0.4115180000000  0.5122910000000  0.5170270000000 1.0
C      1  0.4115230000000  0.4879060000000  0.4828330000000 1.0
C      1  0.5832040000000  0.5104280000000  0.4900060000000 1.0
C      1  0.4866150000000  0.5912880000000  0.5187490000000 1.0
C      1  0.5099240000000  0.4059450000000  0.5167230000000 1.0
C      1  0.4866260000000  0.4089160000000  0.4811260000000 1.0
C      1  0.5099190000000  0.5942600000000  0.4831560000000 1.0
C      1  0.4336800000000  0.5001540000000  0.4659190000000 1.0
C      1  0.5650300000000  0.5042020000000  0.4656440000000 1.0
C      1  0.5650230000000  0.4960070000000  0.5342450000000 1.0
C      1  0.4336730000000  0.5000450000000  0.5339450000000 1.0
C      1  0.4981770000000  0.4306340000000  0.4632680000000 1.0
C      1  0.5002810000000  0.5747430000000  0.4615420000000 1.0
C      1  0.4981640000000  0.5695700000000  0.5366080000000 1.0
C      1  0.5002800000000  0.4254620000000  0.5383350000000 1.0
C      1  0.4662250000000  0.4895510000000  0.4648240000000 1.0
C      1  0.5328020000000  0.5186720000000  0.4584490000000 1.0
C      1  0.5327960000000  0.4815350000000  0.5414340000000 1.0
C      1  0.4662170000000  0.5106500000000  0.5350470000000 1.0
C      1  0.4917120000000  0.4638620000000  0.4659110000000 1.0
C      1  0.5061400000000  0.5427810000000  0.4619940000000 1.0
C      1  0.4917030000000  0.5363420000000  0.5339650000000 1.0
C      1  0.5061370000000  0.4574240000000  0.5378840000000 1.0
C      1  0.4289920000000  0.4500400000000  0.5289280000000 1.0
C      1  0.5673260000000  0.5471060000000  0.5272610000000 1.0
C      1  0.5673350000000  0.4531040000000  0.4726290000000 1.0
C      1  0.4289940000000  0.5501580000000  0.4709350000000 1.0
C      1  0.4503820000000  0.4266230000000  0.5290860000000 1.0
C      1  0.5469700000000  0.5715780000000  0.5287270000000 1.0
C      1  0.4503810000000  0.5735780000000  0.4707810000000 1.0
C      1  0.5469820000000  0.4286300000000  0.4711590000000 1.0
C      1  0.4546420000000  0.5274200000000  0.4337360000000 1.0
C      1  0.5425240000000  0.4759050000000  0.4340780000000 1.0
C      1  0.5425100000000  0.5243030000000  0.5658070000000 1.0
C      1  0.4546320000000  0.4727810000000  0.5661320000000 1.0
C      1  0.5260940000000  0.4512840000000  0.4308780000000 1.0
C      1  0.4711370000000  0.5520010000000  0.4301060000000 1.0
C      1  0.5260760000000  0.5489220000000  0.5690040000000 1.0
C      1  0.4711280000000  0.4482010000000  0.5697650000000 1.0
C      1  0.5154420000000  0.4977760000000  0.4728100000000 1.0
C      1  0.5154370000000  0.5024300000000  0.5270700000000 1.0
C      1  0.5045120000000  0.5001020000000  0.4999390000000 1.0
END
