TITL C-862503-991-1418 -776214.092901706 125000 -1084.96132039555 0 0 189 (C3) n - 1
REM
REM in /home/nfs/bkarasulu/CARBON/AIRSS/Generating-Clusters/TERSOFF/Higher-Symm/FIRE-HFTN
REM
REM
REM
REM
REM
REM ./C.cell (b20cbc046b6831c77cfcea5457e17084)
REM AIRSS Version 0.9.1 bugfix July 2018 build 013d7b7c2542+ Fri, 06 Jul 2018 19:26:36 +0100
REM compiler GCC version 9.2.1 20190827 (Red Hat 9.2.1-1)
REM options -cpp -mtune=generic -march=x86-64 -g -O0 -fpre-include=/usr/include/finclude/math-vector-fortran.h
REM seed 1575416194 2015891967 1324786755 2087675474 504293987 -603791670 -339488684 -1702869589 -289372244 -526974688 -783900641 -1973032734 -1672180084 1720579679 1779336870 -261094590 175374382 -511341568 1866098617 -745085552 416708388 970535052 -1312915638 -181190998 -1890804736 1976255359 -1879442841 -1472944495 -155468104 -1763618892 1640639066 2005910195 1960102391
REM
CELL 1.54180   50.00000   50.00000   50.00000   90.00000   90.00000   90.00000
LATT -1
SFAC C  
C      1  0.4673250000000  0.4280860000000  0.4213420000000 1.0
C      1  0.5786170000000  0.5076620000000  0.4213400000000 1.0
C      1  0.4540540000000  0.5642520000000  0.4213400000000 1.0
C      1  0.4342100000000  0.5472290000000  0.4541870000000 1.0
C      1  0.4919900000000  0.4194110000000  0.4541890000000 1.0
C      1  0.5737980000000  0.5333590000000  0.4541880000000 1.0
C      1  0.5369560000000  0.4639530000000  0.4574440000000 1.0
C      1  0.5127390000000  0.5500280000000  0.4574430000000 1.0
C      1  0.4503030000000  0.4860200000000  0.4574410000000 1.0
C      1  0.4758000000000  0.5011630000000  0.5324720000000 1.0
C      1  0.5110930000000  0.4784590000000  0.5324720000000 1.0
C      1  0.5131080000000  0.5203770000000  0.5324720000000 1.0
C      1  0.4679070000000  0.5489980000000  0.5787530000000 1.0
C      1  0.4736140000000  0.4477070000000  0.5787530000000 1.0
C      1  0.5584810000000  0.5032950000000  0.5787530000000 1.0
C      1  0.4664460000000  0.5791600000000  0.5001350000000 1.0
C      1  0.4482230000000  0.4313630000000  0.5001350000000 1.0
C      1  0.5853320000000  0.4894780000000  0.5001360000000 1.0
C      1  0.5033840000000  0.6152190000000  0.5809930000000 1.0
C      1  0.3985270000000  0.4453210000000  0.5809930000000 1.0
C      1  0.5980910000000  0.4394600000000  0.5809940000000 1.0
C      1  0.4778180000000  0.5652060000000  0.4750540000000 1.0
C      1  0.4546180000000  0.4481900000000  0.4750560000000 1.0
C      1  0.5675610000000  0.4866050000000  0.4750550000000 1.0
C      1  0.4900150000000  0.5290910000000  0.5860780000000 1.0
C      1  0.4798000000000  0.4768070000000  0.5860780000000 1.0
C      1  0.5301870000000  0.4941020000000  0.5860780000000 1.0
C      1  0.5653690000000  0.4231410000000  0.5335770000000 1.0
C      1  0.5338770000000  0.5950410000000  0.5335760000000 1.0
C      1  0.4007540000000  0.4818190000000  0.5335780000000 1.0
C      1  0.4893720000000  0.5217410000000  0.4117760000000 1.0
C      1  0.4864860000000  0.4799270000000  0.4117770000000 1.0
C      1  0.5241410000000  0.4983340000000  0.4117770000000 1.0
C      1  0.4144310000000  0.4602290000000  0.4769090000000 1.0
C      1  0.5772270000000  0.4457820000000  0.4769110000000 1.0
C      1  0.5083390000000  0.5939880000000  0.4769120000000 1.0
C      1  0.4405730000000  0.4798850000000  0.4309420000000 1.0
C      1  0.5471320000000  0.4585930000000  0.4309450000000 1.0
C      1  0.5122940000000  0.5615230000000  0.4309440000000 1.0
C      1  0.3762550000000  0.5290470000000  0.5062380000000 1.0
C      1  0.5367190000000  0.3783100000000  0.5062370000000 1.0
C      1  0.5870260000000  0.5926440000000  0.5062350000000 1.0
C      1  0.4907410000000  0.4538490000000  0.4956910000000 1.0
C      1  0.5445970000000  0.5150570000000  0.4956920000000 1.0
C      1  0.4646620000000  0.5310930000000  0.4956910000000 1.0
C      1  0.4223480000000  0.4299770000000  0.5720410000000 1.0
C      1  0.5994690000000  0.4677620000000  0.5720410000000 1.0
C      1  0.4781850000000  0.6022610000000  0.5720400000000 1.0
C      1  0.3892090000000  0.5089870000000  0.4887080000000 1.0
C      1  0.5476130000000  0.3995600000000  0.4887080000000 1.0
C      1  0.5631760000000  0.5914540000000  0.4887060000000 1.0
C      1  0.5475300000000  0.5664210000000  0.4868850000000 1.0
C      1  0.4187110000000  0.5079520000000  0.4868860000000 1.0
C      1  0.5337580000000  0.4256260000000  0.4868860000000 1.0
C      1  0.5728570000000  0.4247190000000  0.5870660000000 1.0
C      1  0.5287680000000  0.6007370000000  0.5870650000000 1.0
C      1  0.3983770000000  0.4745450000000  0.5870660000000 1.0
C      1  0.4711240000000  0.5036140000000  0.3905340000000 1.0
C      1  0.5113080000000  0.4731860000000  0.3905350000000 1.0
C      1  0.5175670000000  0.5232010000000  0.3905350000000 1.0
C      1  0.4307700000000  0.4839630000000  0.4779530000000 1.0
C      1  0.5485040000000  0.4480640000000  0.4779560000000 1.0
C      1  0.5207240000000  0.5679720000000  0.4779560000000 1.0
C      1  0.5277790000000  0.4431580000000  0.5682700000000 1.0
C      1  0.5353370000000  0.5524780000000  0.5682710000000 1.0
C      1  0.4368850000000  0.5043630000000  0.5682720000000 1.0
C      1  0.5406710000000  0.5572240000000  0.4203680000000 1.0
C      1  0.4301060000000  0.5066090000000  0.4203650000000 1.0
C      1  0.5292210000000  0.4361670000000  0.4203690000000 1.0
C      1  0.4823420000000  0.4346910000000  0.3966750000000 1.0
C      1  0.5653880000000  0.5173640000000  0.3966730000000 1.0
C      1  0.4522670000000  0.5479460000000  0.3966720000000 1.0
C      1  0.4337970000000  0.5187150000000  0.5289200000000 1.0
C      1  0.5168940000000  0.4333090000000  0.5289220000000 1.0
C      1  0.5493090000000  0.5479760000000  0.5289200000000 1.0
C      1  0.5286370000000  0.4953020000000  0.3702780000000 1.0
C      1  0.4897500000000  0.5271510000000  0.3702770000000 1.0
C      1  0.4816120000000  0.4775490000000  0.3702780000000 1.0
C      1  0.4465280000000  0.3987220000000  0.5334190000000 1.0
C      1  0.6144460000000  0.5043300000000  0.5334180000000 1.0
C      1  0.4390280000000  0.5969470000000  0.5334180000000 1.0
C      1  0.4709400000000  0.3955470000000  0.4561640000000 1.0
C      1  0.6049900000000  0.5270610000000  0.4561630000000 1.0
C      1  0.4240680000000  0.5773920000000  0.4561630000000 1.0
C      1  0.5461330000000  0.3769260000000  0.5342280000000 1.0
C      1  0.5835190000000  0.6014890000000  0.5342250000000 1.0
C      1  0.3703490000000  0.5215860000000  0.5342290000000 1.0
C      1  0.3774210000000  0.4910600000000  0.5750580000000 1.0
C      1  0.5690330000000  0.3983130000000  0.5750570000000 1.0
C      1  0.5535480000000  0.6106280000000  0.5750550000000 1.0
C      1  0.5575890000000  0.6037420000000  0.5474350000000 1.0
C      1  0.3813630000000  0.4980030000000  0.5474380000000 1.0
C      1  0.5610490000000  0.3982550000000  0.5474370000000 1.0
C      1  0.6125020000000  0.4756070000000  0.5438080000000 1.0
C      1  0.4648740000000  0.6096260000000  0.5438080000000 1.0
C      1  0.4226250000000  0.4147690000000  0.5438070000000 1.0
C      1  0.4546640000000  0.3868490000000  0.5059250000000 1.0
C      1  0.6206600000000  0.5173130000000  0.5059240000000 1.0
C      1  0.4246770000000  0.5958370000000  0.5059250000000 1.0
C      1  0.4740490000000  0.4452380000000  0.4496460000000 1.0
C      1  0.5604020000000  0.5049080000000  0.4496450000000 1.0
C      1  0.4655470000000  0.5498540000000  0.4496440000000 1.0
C      1  0.5162170000000  0.5180210000000  0.6005830000000 1.0
C      1  0.4762860000000  0.5050330000000  0.6005830000000 1.0
C      1  0.5074990000000  0.4769450000000  0.6005830000000 1.0
C      1  0.5839490000000  0.4219460000000  0.5111380000000 1.0
C      1  0.5256220000000  0.6117280000000  0.5111370000000 1.0
C      1  0.3904290000000  0.4663270000000  0.5111390000000 1.0
C      1  0.4187050000000  0.5257390000000  0.4404330000000 1.0
C      1  0.5183530000000  0.4167290000000  0.4404370000000 1.0
C      1  0.5629390000000  0.5575320000000  0.4404350000000 1.0
C      1  0.4223330000000  0.4098300000000  0.4668710000000 1.0
C      1  0.6169230000000  0.4778230000000  0.4668690000000 1.0
C      1  0.4607430000000  0.6123460000000  0.4668680000000 1.0
C      1  0.4946230000000  0.5869030000000  0.4309420000000 1.0
C      1  0.4274300000000  0.4518900000000  0.4309410000000 1.0
C      1  0.5779480000000  0.4612060000000  0.4309420000000 1.0
C      1  0.4883460000000  0.6016020000000  0.4570820000000 1.0
C      1  0.4178370000000  0.4391060000000  0.4570810000000 1.0
C      1  0.5938170000000  0.4592910000000  0.4570810000000 1.0
C      1  0.5852330000000  0.5470280000000  0.4922050000000 1.0
C      1  0.4166570000000  0.5503000000000  0.4922050000000 1.0
C      1  0.4981110000000  0.4026720000000  0.4922050000000 1.0
C      1  0.5686310000000  0.4942250000000  0.5507540000000 1.0
C      1  0.4706860000000  0.5623230000000  0.5507540000000 1.0
C      1  0.4606850000000  0.4434510000000  0.5507540000000 1.0
C      1  0.5281780000000  0.5715930000000  0.5900790000000 1.0
C      1  0.4239120000000  0.4886050000000  0.5900800000000 1.0
C      1  0.5479130000000  0.4398020000000  0.5900800000000 1.0
C      1  0.4350960000000  0.5280950000000  0.5008160000000 1.0
C      1  0.5081210000000  0.4297430000000  0.5008160000000 1.0
C      1  0.5567830000000  0.5421610000000  0.5008150000000 1.0
C      1  0.3697350000000  0.5555140000000  0.4961940000000 1.0
C      1  0.5170590000000  0.3594300000000  0.4961920000000 1.0
C      1  0.6132070000000  0.5850580000000  0.4961890000000 1.0
C      1  0.5430440000000  0.5382570000000  0.3983550000000 1.0
C      1  0.4453450000000  0.5181480000000  0.3983530000000 1.0
C      1  0.5116080000000  0.4435950000000  0.3983560000000 1.0
C      1  0.5145800000000  0.5312950000000  0.5608470000000 1.0
C      1  0.4656090000000  0.4969790000000  0.5608470000000 1.0
C      1  0.5198130000000  0.4717260000000  0.5608470000000 1.0
C      1  0.4072560000000  0.5710760000000  0.5092440000000 1.0
C      1  0.4848180000000  0.3841420000000  0.5092440000000 1.0
C      1  0.6079260000000  0.5447800000000  0.5092440000000 1.0
C      1  0.4859940000000  0.5287040000000  0.5182980000000 1.0
C      1  0.4821450000000  0.4735170000000  0.5182980000000 1.0
C      1  0.5318630000000  0.4977780000000  0.5182980000000 1.0
C      1  0.4680560000000  0.5792460000000  0.5890720000000 1.0
C      1  0.4473440000000  0.4327120000000  0.5890730000000 1.0
C      1  0.5846020000000  0.4880420000000  0.5890730000000 1.0
C      1  0.3998940000000  0.5615200000000  0.5361510000000 1.0
C      1  0.4967750000000  0.3825450000000  0.5361510000000 1.0
C      1  0.6033320000000  0.5559340000000  0.5361510000000 1.0
C      1  0.4725310000000  0.5511410000000  0.3754990000000 1.0
C      1  0.4694430000000  0.4506430000000  0.3755010000000 1.0
C      1  0.5580230000000  0.4982170000000  0.3755000000000 1.0
C      1  0.6055960000000  0.5171450000000  0.4279580000000 1.0
C      1  0.4323510000000  0.5828750000000  0.4279580000000 1.0
C      1  0.4620480000000  0.3999800000000  0.4279590000000 1.0
C      1  0.4855820000000  0.4712870000000  0.4400630000000 1.0
C      1  0.5320760000000  0.5018700000000  0.4400630000000 1.0
C      1  0.4823420000000  0.5268430000000  0.4400610000000 1.0
C      1  0.4671190000000  0.4160770000000  0.5435040000000 1.0
C      1  0.5891210000000  0.5134840000000  0.5435040000000 1.0
C      1  0.4437620000000  0.5704370000000  0.5435040000000 1.0
C      1  0.5530410000000  0.4779840000000  0.5318280000000 1.0
C      1  0.4925470000000  0.5569420000000  0.5318280000000 1.0
C      1  0.4544140000000  0.4650740000000  0.5318280000000 1.0
C      1  0.4487480000000  0.3968650000000  0.4762470000000 1.0
C      1  0.6149440000000  0.5071830000000  0.4762460000000 1.0
C      1  0.4363070000000  0.5959510000000  0.4762460000000 1.0
C      1  0.5448640000000  0.6139530000000  0.4898840000000 1.0
C      1  0.3788800000000  0.4818780000000  0.4898860000000 1.0
C      1  0.5762550000000  0.4041690000000  0.4898850000000 1.0
C      1  0.4215910000000  0.5552960000000  0.5557340000000 1.0
C      1  0.4913180000000  0.4044460000000  0.5557340000000 1.0
C      1  0.5870940000000  0.5402560000000  0.5557340000000 1.0
C      1  0.4386390000000  0.5351860000000  0.5722160000000 1.0
C      1  0.5002100000000  0.4292660000000  0.5722160000000 1.0
C      1  0.5611540000000  0.5355480000000  0.5722160000000 1.0
C      1  0.4218040000000  0.4284910000000  0.5168340000000 1.0
C      1  0.6010290000000  0.4680350000000  0.5168340000000 1.0
C      1  0.4771680000000  0.6034770000000  0.5168340000000 1.0
C      1  0.4306630000000  0.4884890000000  0.5377580000000 1.0
C      1  0.5446380000000  0.4457070000000  0.5377580000000 1.0
C      1  0.5247010000000  0.5658040000000  0.5377570000000 1.0
C      1  0.3967840000000  0.4389110000000  0.5084400000000 1.0
C      1  0.6045150000000  0.4411560000000  0.5084410000000 1.0
C      1  0.4987020000000  0.6199350000000  0.5084410000000 1.0
END
