TITL C-862130-1496-119 0.00224814081858371 125000 -316.234087964928 0 0 59 (Ci) n - 1
REM
REM in /home/nfs/bkarasulu/CARBON/AIRSS/Generating-Clusters/TERSOFF/Higher-Symm/FIRE-HFTN
REM
REM
REM
REM
REM
REM ./C.cell (b20cbc046b6831c77cfcea5457e17084)
REM AIRSS Version 0.9.1 bugfix July 2018 build 013d7b7c2542+ Fri, 06 Jul 2018 19:26:36 +0100
REM compiler GCC version 9.2.1 20190827 (Red Hat 9.2.1-1)
REM options -cpp -mtune=generic -march=x86-64 -g -O0 -fpre-include=/usr/include/finclude/math-vector-fortran.h
REM seed 1582117792 819780826 129053709 191502428 -76849359 1004265950 -473071508 1881689406 659615732 -815521436 1460879263 -1265039587 -93568205 2049743996 278178931 20833495 -859865893 -2026489387 755690504 -1108797807 684210201 1815221155 1562373776 881980665 -1809881168 -1668877627 -108712757 -105242983 211020337 -371886098 -1526762186 951899652 1972863558
REM
CELL 1.54180   50.00000   50.00000   50.00000   90.00000   90.00000   90.00000
LATT -1
SFAC C  
C      1  0.4509920000000  0.5187600000000  0.5315220000000 1.0
C      1  0.5502690000000  0.4800190000000  0.4688010000000 1.0
C      1  0.5399660000000  0.4912420000000  0.5500070000000 1.0
C      1  0.4612950000000  0.5075370000000  0.4503170000000 1.0
C      1  0.4890190000000  0.4313750000000  0.5153710000000 1.0
C      1  0.5122420000000  0.5674040000000  0.4849530000000 1.0
C      1  0.4696570000000  0.5597180000000  0.4634640000000 1.0
C      1  0.5316040000000  0.4390610000000  0.5368600000000 1.0
C      1  0.4303700000000  0.4970060000000  0.4896520000000 1.0
C      1  0.5708910000000  0.5017720000000  0.5106710000000 1.0
C      1  0.4733850000000  0.5578670000000  0.5467570000000 1.0
C      1  0.5278760000000  0.4409120000000  0.4535660000000 1.0
C      1  0.4929920000000  0.4809920000000  0.5279590000000 1.0
C      1  0.5082690000000  0.5177870000000  0.4723650000000 1.0
C      1  0.4458950000000  0.4815880000000  0.5503900000000 1.0
C      1  0.5553660000000  0.5171900000000  0.4499340000000 1.0
C      1  0.4299540000000  0.5040620000000  0.5177680000000 1.0
C      1  0.5713070000000  0.4947170000000  0.4825560000000 1.0
C      1  0.5033610000000  0.5330310000000  0.5270630000000 1.0
C      1  0.4978990000000  0.4657480000000  0.4732600000000 1.0
C      1  0.5228330000000  0.5503380000000  0.5445510000000 1.0
C      1  0.4784270000000  0.4484400000000  0.4557730000000 1.0
C      1  0.5045340000000  0.4819350000000  0.4268100000000 1.0
C      1  0.4967270000000  0.5168430000000  0.5735130000000 1.0
C      1  0.5349960000000  0.4680600000000  0.5303020000000 1.0
C      1  0.4662650000000  0.5307190000000  0.4700220000000 1.0
C      1  0.4803600000000  0.5082980000000  0.5358510000000 1.0
C      1  0.5209010000000  0.4904800000000  0.4644730000000 1.0
C      1  0.4775370000000  0.4802770000000  0.4889340000000 1.0
C      1  0.5237240000000  0.5185020000000  0.5113890000000 1.0
C      1  0.5468410000000  0.5082410000000  0.5257210000000 1.0
C      1  0.4544200000000  0.4905380000000  0.4746020000000 1.0
C      1  0.5490750000000  0.5385670000000  0.4708360000000 1.0
C      1  0.4521860000000  0.4602120000000  0.5294870000000 1.0
C      1  0.4799590000000  0.4530690000000  0.5332130000000 1.0
C      1  0.5213020000000  0.5457090000000  0.4671110000000 1.0
C      1  0.5543430000000  0.4550770000000  0.4540840000000 1.0
C      1  0.4469180000000  0.5437020000000  0.5462390000000 1.0
C      1  0.4973920000000  0.5473630000000  0.5659380000000 1.0
C      1  0.5038690000000  0.4514160000000  0.4343860000000 1.0
C      1  0.5584080000000  0.5404380000000  0.5000500000000 1.0
C      1  0.4428530000000  0.4583410000000  0.5002730000000 1.0
C      1  0.5261290000000  0.4746300000000  0.5029970000000 1.0
C      1  0.4751320000000  0.5241490000000  0.4973260000000 1.0
C      1  0.4797570000000  0.5510460000000  0.5145580000000 1.0
C      1  0.5215040000000  0.4477330000000  0.4857660000000 1.0
C      1  0.5226760000000  0.5003520000000  0.5738900000000 1.0
C      1  0.4785850000000  0.4984260000000  0.4264340000000 1.0
C      1  0.4851740000000  0.5645020000000  0.4390010000000 1.0
C      1  0.5160870000000  0.4342770000000  0.5613230000000 1.0
C      1  0.5175790000000  0.4287820000000  0.5098430000000 1.0
C      1  0.4836820000000  0.5699970000000  0.4904800000000 1.0
C      1  0.5456540000000  0.5583780000000  0.5221680000000 1.0
C      1  0.4556070000000  0.4404010000000  0.4781550000000 1.0
C      1  0.5319640000000  0.4977190000000  0.4349220000000 1.0
C      1  0.4692960000000  0.5010600000000  0.5654010000000 1.0
C      1  0.4887770000000  0.4437840000000  0.5603460000000 1.0
C      1  0.5124840000000  0.5549950000000  0.4399780000000 1.0
C      1  0.5006300000000  0.4993890000000  0.5001620000000 1.0
END
