TITL C-862131-2149-420 -0.000139779414536727 125000 -17.5390536997714 0 0 5 (Td) n - 1
REM
REM in /home/nfs/bkarasulu/CARBON/AIRSS/Generating-Clusters/TERSOFF/Higher-Symm/FIRE-HFTN
REM
REM
REM
REM
REM
REM ./C.cell (b20cbc046b6831c77cfcea5457e17084)
REM AIRSS Version 0.9.1 bugfix July 2018 build 013d7b7c2542+ Fri, 06 Jul 2018 19:26:36 +0100
REM compiler GCC version 9.2.1 20190827 (Red Hat 9.2.1-1)
REM options -cpp -mtune=generic -march=x86-64 -g -O0 -fpre-include=/usr/include/finclude/math-vector-fortran.h
REM seed 1371558109 -1145766950 544551103 879284537 -1326680734 963353095 678686892 1592932390 476253704 335961636 -901113826 -1484120346 -54065881 500366867 635265811 126382721 768314821 -865403303 1755073071 -435845253 1591551568 1252570038 286728343 -1514566944 1933416453 1353461877 977613021 -1192746391 -2011282403 1615632365 -1509240230 -2014846451 1708556132
REM
CELL 1.54180   50.00000   50.00000   50.00000   90.00000   90.00000   90.00000
LATT -1
SFAC C  
C      1  0.5180210000000  0.5187810000000  0.4812630000000 1.0
C      1  0.5180210000000  0.4842750000000  0.5157690000000 1.0
C      1  0.4835160000000  0.5187810000000  0.5157690000000 1.0
C      1  0.4835160000000  0.4842750000000  0.4812630000000 1.0
C      1  0.5007680000000  0.5015280000000  0.4985160000000 1.0
END
