TITL C-862502-1143-1047 0.00458285893227096 125000 -1006.3521483792 0 0 184 (C1) n - 1
REM
REM in /home/nfs/bkarasulu/CARBON/AIRSS/Generating-Clusters/TERSOFF/Higher-Symm/FIRE-HFTN
REM
REM
REM
REM
REM
REM ./C.cell (b20cbc046b6831c77cfcea5457e17084)
REM AIRSS Version 0.9.1 bugfix July 2018 build 013d7b7c2542+ Fri, 06 Jul 2018 19:26:36 +0100
REM compiler GCC version 9.2.1 20190827 (Red Hat 9.2.1-1)
REM options -cpp -mtune=generic -march=x86-64 -g -O0 -fpre-include=/usr/include/finclude/math-vector-fortran.h
REM seed 1254981070 -72363241 417894665 692628135 -1669947240 1191513766 -1230843607 -2100679167 -535705807 1736155629 -1592551177 1556584232 -324619461 1357413587 -1319169934 -2106489981 -1011604665 -179497695 141796524 2074785473 -1973945418 -707571417 1465923462 -456310968 -1664248701 -1668810562 -1416559720 7496282 -123087026 -547949475 515275581 -535731770 1827896027
REM
CELL 1.54180   50.00000   50.00000   50.00000   90.00000   90.00000   90.00000
LATT -1
SFAC C  
C      1  0.5349930000000  0.5017250000000  0.4354170000000 1.0
C      1  0.5126190000000  0.4637510000000  0.4348770000000 1.0
C      1  0.4716550000000  0.4729070000000  0.4361490000000 1.0
C      1  0.4673910000000  0.5143080000000  0.4317660000000 1.0
C      1  0.5049720000000  0.5326000000000  0.4345220000000 1.0
C      1  0.4560980000000  0.5289510000000  0.5399750000000 1.0
C      1  0.5136100000000  0.5450500000000  0.5415530000000 1.0
C      1  0.5502260000000  0.4986650000000  0.5395370000000 1.0
C      1  0.5189230000000  0.4528790000000  0.5396390000000 1.0
C      1  0.4586900000000  0.4718690000000  0.5396350000000 1.0
C      1  0.4615560000000  0.5117590000000  0.5618860000000 1.0
C      1  0.4957940000000  0.5360720000000  0.5619470000000 1.0
C      1  0.5255050000000  0.5004090000000  0.5584200000000 1.0
C      1  0.5272990000000  0.4695700000000  0.5611680000000 1.0
C      1  0.4777810000000  0.4730420000000  0.5607780000000 1.0
C      1  0.5954910000000  0.5475490000000  0.4952900000000 1.0
C      1  0.5755350000000  0.4234490000000  0.4934340000000 1.0
C      1  0.4513930000000  0.4046980000000  0.4954060000000 1.0
C      1  0.3945540000000  0.5175340000000  0.4935290000000 1.0
C      1  0.4853390000000  0.6047320000000  0.4954030000000 1.0
C      1  0.5812680000000  0.4301740000000  0.4523790000000 1.0
C      1  0.4592230000000  0.3993840000000  0.4544910000000 1.0
C      1  0.3931070000000  0.5076770000000  0.4527350000000 1.0
C      1  0.4777260000000  0.6049500000000  0.4541200000000 1.0
C      1  0.5934770000000  0.5544430000000  0.4539310000000 1.0
C      1  0.5010300000000  0.4253650000000  0.4986780000000 1.0
C      1  0.4234120000000  0.4730940000000  0.5011820000000 1.0
C      1  0.4533040000000  0.5618070000000  0.5015840000000 1.0
C      1  0.5437390000000  0.5624120000000  0.5040880000000 1.0
C      1  0.5773030000000  0.4769630000000  0.4999470000000 1.0
C      1  0.6084820000000  0.4720640000000  0.5358470000000 1.0
C      1  0.5064410000000  0.3922830000000  0.5369090000000 1.0
C      1  0.3962430000000  0.4588290000000  0.5372580000000 1.0
C      1  0.4301340000000  0.5850280000000  0.5372360000000 1.0
C      1  0.5603750000000  0.5907790000000  0.5374490000000 1.0
C      1  0.5097430000000  0.5351310000000  0.6015350000000 1.0
C      1  0.5353060000000  0.5018950000000  0.5991490000000 1.0
C      1  0.5131180000000  0.4663680000000  0.6020940000000 1.0
C      1  0.4705360000000  0.4769760000000  0.6019530000000 1.0
C      1  0.4677230000000  0.5193580000000  0.6027270000000 1.0
C      1  0.5610720000000  0.4585410000000  0.5181670000000 1.0
C      1  0.4803800000000  0.4365300000000  0.5172100000000 1.0
C      1  0.4260160000000  0.4979290000000  0.5189080000000 1.0
C      1  0.4775320000000  0.5663190000000  0.5191520000000 1.0
C      1  0.5554190000000  0.5402920000000  0.5207040000000 1.0
C      1  0.6065140000000  0.4682530000000  0.4998480000000 1.0
C      1  0.5026000000000  0.3949490000000  0.5019090000000 1.0
C      1  0.3946770000000  0.4627930000000  0.5012670000000 1.0
C      1  0.4352470000000  0.5863530000000  0.5015040000000 1.0
C      1  0.5622700000000  0.5866750000000  0.5025970000000 1.0
C      1  0.5360820000000  0.4831040000000  0.4952430000000 1.0
C      1  0.4966070000000  0.4733940000000  0.5051970000000 1.0
C      1  0.4603470000000  0.4921800000000  0.4956130000000 1.0
C      1  0.4810710000000  0.5275420000000  0.5038010000000 1.0
C      1  0.5224300000000  0.5220980000000  0.5022840000000 1.0
C      1  0.5482730000000  0.4178220000000  0.4830310000000 1.0
C      1  0.4354500000000  0.4266350000000  0.4831530000000 1.0
C      1  0.4129310000000  0.5382860000000  0.4823940000000 1.0
C      1  0.5103620000000  0.5934510000000  0.4837680000000 1.0
C      1  0.5947430000000  0.5210580000000  0.4822650000000 1.0
C      1  0.4519100000000  0.5766730000000  0.5602520000000 1.0
C      1  0.5600720000000  0.5678840000000  0.5584520000000 1.0
C      1  0.5856310000000  0.4656430000000  0.5606380000000 1.0
C      1  0.4935880000000  0.4119790000000  0.5585800000000 1.0
C      1  0.4105000000000  0.4776100000000  0.5605330000000 1.0
C      1  0.5783610000000  0.4627890000000  0.4168390000000 1.0
C      1  0.4879930000000  0.4135580000000  0.4182460000000 1.0
C      1  0.4145500000000  0.4823710000000  0.4174460000000 1.0
C      1  0.4596900000000  0.5770200000000  0.4187940000000 1.0
C      1  0.5607240000000  0.5625600000000  0.4193090000000 1.0
C      1  0.5140520000000  0.5738860000000  0.4132500000000 1.0
C      1  0.5748810000000  0.5100540000000  0.4116080000000 1.0
C      1  0.5328260000000  0.4294140000000  0.4109750000000 1.0
C      1  0.4438620000000  0.4447250000000  0.4119920000000 1.0
C      1  0.4326870000000  0.5367830000000  0.4116470000000 1.0
C      1  0.6166690000000  0.5000430000000  0.4882030000000 1.0
C      1  0.5347030000000  0.3910110000000  0.4897080000000 1.0
C      1  0.4054630000000  0.4307320000000  0.4899730000000 1.0
C      1  0.4079740000000  0.5680500000000  0.4890970000000 1.0
C      1  0.5370990000000  0.6073460000000  0.4903930000000 1.0
C      1  0.4464890000000  0.5780100000000  0.4619230000000 1.0
C      1  0.5581340000000  0.5754560000000  0.4623800000000 1.0
C      1  0.5889850000000  0.4707110000000  0.4601630000000 1.0
C      1  0.5001010000000  0.4059690000000  0.4614980000000 1.0
C      1  0.4109050000000  0.4706030000000  0.4612280000000 1.0
C      1  0.4604280000000  0.4243660000000  0.5651470000000 1.0
C      1  0.4120320000000  0.5132740000000  0.5658950000000 1.0
C      1  0.4863010000000  0.5854740000000  0.5666520000000 1.0
C      1  0.5800710000000  0.5377620000000  0.5638040000000 1.0
C      1  0.5634340000000  0.4377560000000  0.5662130000000 1.0
C      1  0.4913630000000  0.4749550000000  0.4731690000000 1.0
C      1  0.4740770000000  0.5004270000000  0.4707800000000 1.0
C      1  0.4917210000000  0.5251140000000  0.4736530000000 1.0
C      1  0.5209750000000  0.5150940000000  0.4726190000000 1.0
C      1  0.5203260000000  0.4842750000000  0.4706200000000 1.0
C      1  0.3893510000000  0.4903060000000  0.4783720000000 1.0
C      1  0.4580360000000  0.6038300000000  0.4794890000000 1.0
C      1  0.5864720000000  0.5731130000000  0.4795850000000 1.0
C      1  0.5952520000000  0.4421630000000  0.4775590000000 1.0
C      1  0.4749970000000  0.3909800000000  0.4800630000000 1.0
C      1  0.5461750000000  0.5701940000000  0.5855850000000 1.0
C      1  0.5818070000000  0.4810420000000  0.5865010000000 1.0
C      1  0.5064500000000  0.4179920000000  0.5851820000000 1.0
C      1  0.4217520000000  0.4676230000000  0.5867970000000 1.0
C      1  0.4447460000000  0.5634780000000  0.5865480000000 1.0
C      1  0.5718910000000  0.4321370000000  0.5202590000000 1.0
C      1  0.4591090000000  0.4167870000000  0.5199060000000 1.0
C      1  0.4016800000000  0.5130640000000  0.5207040000000 1.0
C      1  0.4837700000000  0.5941570000000  0.5215380000000 1.0
C      1  0.5844510000000  0.5439750000000  0.5210360000000 1.0
C      1  0.4440300000000  0.5328770000000  0.4816160000000 1.0
C      1  0.5144110000000  0.5619020000000  0.4827590000000 1.0
C      1  0.5678570000000  0.5068510000000  0.4817600000000 1.0
C      1  0.5271570000000  0.4404920000000  0.4826980000000 1.0
C      1  0.4483120000000  0.4540960000000  0.4830230000000 1.0
C      1  0.5256910000000  0.3908240000000  0.4542670000000 1.0
C      1  0.4043350000000  0.4412550000000  0.4550700000000 1.0
C      1  0.4167600000000  0.5747820000000  0.4544890000000 1.0
C      1  0.5451080000000  0.6023530000000  0.4552230000000 1.0
C      1  0.6112620000000  0.4907450000000  0.4533130000000 1.0
C      1  0.5401620000000  0.4570220000000  0.5856550000000 1.0
C      1  0.4725510000000  0.4518670000000  0.5827880000000 1.0
C      1  0.4414120000000  0.5113520000000  0.5847860000000 1.0
C      1  0.4916710000000  0.5559780000000  0.5852010000000 1.0
C      1  0.5490540000000  0.5224010000000  0.5744960000000 1.0
C      1  0.4646480000000  0.5560500000000  0.5420880000000 1.0
C      1  0.5420670000000  0.5433230000000  0.5470670000000 1.0
C      1  0.5640240000000  0.4738180000000  0.5412620000000 1.0
C      1  0.4953110000000  0.4372180000000  0.5416550000000 1.0
C      1  0.4337490000000  0.4855120000000  0.5427050000000 1.0
C      1  0.4093060000000  0.5633590000000  0.5251750000000 1.0
C      1  0.5329880000000  0.6047540000000  0.5265970000000 1.0
C      1  0.6120230000000  0.5018980000000  0.5243190000000 1.0
C      1  0.5370220000000  0.3957730000000  0.5258820000000 1.0
C      1  0.4117950000000  0.4332830000000  0.5257260000000 1.0
C      1  0.4420160000000  0.4771790000000  0.4570920000000 1.0
C      1  0.4605030000000  0.5524180000000  0.4614000000000 1.0
C      1  0.5389180000000  0.5540130000000  0.4632980000000 1.0
C      1  0.5598720000000  0.4843320000000  0.4567520000000 1.0
C      1  0.5032220000000  0.4374650000000  0.4584770000000 1.0
C      1  0.4675010000000  0.4640230000000  0.5114130000000 1.0
C      1  0.4500140000000  0.5173000000000  0.5112870000000 1.0
C      1  0.5033580000000  0.5494210000000  0.5127000000000 1.0
C      1  0.5492600000000  0.5111820000000  0.5110950000000 1.0
C      1  0.5290680000000  0.4581160000000  0.5110760000000 1.0
C      1  0.4741170000000  0.4497390000000  0.4582680000000 1.0
C      1  0.4462570000000  0.5097350000000  0.4538770000000 1.0
C      1  0.4918360000000  0.5518720000000  0.4563540000000 1.0
C      1  0.5481930000000  0.5247220000000  0.4570800000000 1.0
C      1  0.5381850000000  0.4603680000000  0.4545940000000 1.0
C      1  0.5551660000000  0.4788590000000  0.5995850000000 1.0
C      1  0.4961450000000  0.4424470000000  0.5978340000000 1.0
C      1  0.4418970000000  0.4853370000000  0.5994250000000 1.0
C      1  0.4670110000000  0.5493750000000  0.6000760000000 1.0
C      1  0.5380790000000  0.5435370000000  0.5954900000000 1.0
C      1  0.4812010000000  0.5808080000000  0.4384450000000 1.0
C      1  0.5712490000000  0.5433200000000  0.4387410000000 1.0
C      1  0.5634890000000  0.4467740000000  0.4369600000000 1.0
C      1  0.4684310000000  0.4220150000000  0.4391520000000 1.0
C      1  0.4170520000000  0.5044400000000  0.4371610000000 1.0
C      1  0.5197980000000  0.4567070000000  0.4062830000000 1.0
C      1  0.4660680000000  0.4653580000000  0.4068930000000 1.0
C      1  0.4584770000000  0.5205870000000  0.4046050000000 1.0
C      1  0.5076710000000  0.5440600000000  0.4070180000000 1.0
C      1  0.5448670000000  0.5054320000000  0.4069960000000 1.0
C      1  0.5378920000000  0.4782510000000  0.3937480000000 1.0
C      1  0.4916780000000  0.4548210000000  0.3938230000000 1.0
C      1  0.4556130000000  0.4917600000000  0.3928270000000 1.0
C      1  0.4809390000000  0.5380710000000  0.3928630000000 1.0
C      1  0.5307980000000  0.5290520000000  0.3943950000000 1.0
C      1  0.5173610000000  0.4075480000000  0.4233050000000 1.0
C      1  0.4181260000000  0.4530520000000  0.4238130000000 1.0
C      1  0.4337120000000  0.5638030000000  0.4245440000000 1.0
C      1  0.5399000000000  0.5827830000000  0.4252870000000 1.0
C      1  0.5923230000000  0.4889340000000  0.4225360000000 1.0
C      1  0.5041290000000  0.6005670000000  0.5417810000000 1.0
C      1  0.5993110000000  0.5273160000000  0.5399690000000 1.0
C      1  0.5586270000000  0.4154200000000  0.5405120000000 1.0
C      1  0.4389180000000  0.4222490000000  0.5402610000000 1.0
C      1  0.4028910000000  0.5349680000000  0.5404530000000 1.0
C      1  0.4997850000000  0.5024660000000  0.5142620000000 1.0
C      1  0.4989000000000  0.5000960000000  0.6015230000000 1.0
C      1  0.4988440000000  0.4971370000000  0.4370630000000 1.0
C      1  0.4925870000000  0.5030670000000  0.5677860000000 1.0
END
