TITL C-862129-6180-10 54.3491825404921 125000 -1013.91643191494 0 0 174 (C3) n - 1
REM
REM in /home/nfs/bkarasulu/CARBON/AIRSS/Generating-Clusters/TERSOFF/Higher-Symm/FIRE-HFTN
REM
REM
REM
REM
REM
REM ./C.cell (b20cbc046b6831c77cfcea5457e17084)
REM AIRSS Version 0.9.1 bugfix July 2018 build 013d7b7c2542+ Fri, 06 Jul 2018 19:26:36 +0100
REM compiler GCC version 9.2.1 20190827 (Red Hat 9.2.1-1)
REM options -cpp -mtune=generic -march=x86-64 -g -O0 -fpre-include=/usr/include/finclude/math-vector-fortran.h
REM seed -1041167518 1570850574 228327438 1951295760 1638343549 -439838940 -1564184672 -1332833967 339714552 -317660952 756284724 -793638495 -1022735876 -1384103155 1355223937 950457707 1877994568 -1455171385 -1949034859 -1296112608 1692534800 -794497902 -656464404 -1451756461 -1065876669 -883764662 -1966583632 -2057536783 1069874520 -1308826377 -1005538964 38895936 2125823650
REM
CELL 1.54180   50.00000   50.00000   50.00000   90.00000   90.00000   90.00000
LATT -1
SFAC C  
C      1  0.4599060000000  0.6008890000000  0.4632010000000 1.0
C      1  0.4598660000000  0.4176920000000  0.4310440000000 1.0
C      1  0.4599080000000  0.4814420000000  0.6057760000000 1.0
C      1  0.5075940000000  0.6119790000000  0.4774090000000 1.0
C      1  0.5075490000000  0.4244450000000  0.4143150000000 1.0
C      1  0.5075890000000  0.4635710000000  0.6082720000000 1.0
C      1  0.4744110000000  0.5262560000000  0.3953860000000 1.0
C      1  0.4744110000000  0.3962770000000  0.5295800000000 1.0
C      1  0.4744520000000  0.5774820000000  0.5750480000000 1.0
C      1  0.5049920000000  0.3976790000000  0.4836530000000 1.0
C      1  0.5050370000000  0.5370030000000  0.5967840000000 1.0
C      1  0.5050120000000  0.5653160000000  0.4195610000000 1.0
C      1  0.5750940000000  0.5520740000000  0.5129260000000 1.0
C      1  0.5750700000000  0.4851470000000  0.4484080000000 1.0
C      1  0.5750820000000  0.4627370000000  0.5386270000000 1.0
C      1  0.4448110000000  0.4498460000000  0.4588320000000 1.0
C      1  0.4448360000000  0.4894320000000  0.5640410000000 1.0
C      1  0.4448350000000  0.5607530000000  0.4771550000000 1.0
C      1  0.5497710000000  0.4811860000000  0.5363410000000 1.0
C      1  0.5497750000000  0.5408720000000  0.4981020000000 1.0
C      1  0.5497580000000  0.4779140000000  0.4655320000000 1.0
C      1  0.5335990000000  0.6046930000000  0.4896100000000 1.0
C      1  0.5335550000000  0.4386510000000  0.4145140000000 1.0
C      1  0.5335900000000  0.4566380000000  0.5958590000000 1.0
C      1  0.5014320000000  0.5453440000000  0.3970060000000 1.0
C      1  0.5014230000000  0.3881320000000  0.5122270000000 1.0
C      1  0.5014700000000  0.5665230000000  0.5907660000000 1.0
C      1  0.4304330000000  0.4201700000000  0.4234440000000 1.0
C      1  0.4304750000000  0.4736240000000  0.6074420000000 1.0
C      1  0.4304760000000  0.6062440000000  0.4691500000000 1.0
C      1  0.5168710000000  0.5388710000000  0.5509050000000 1.0
C      1  0.5168490000000  0.5246470000000  0.4408770000000 1.0
C      1  0.5168450000000  0.4364720000000  0.5082090000000 1.0
C      1  0.3825360000000  0.4885750000000  0.4832400000000 1.0
C      1  0.3825420000000  0.4912130000000  0.5183240000000 1.0
C      1  0.3825440000000  0.5202770000000  0.4984970000000 1.0
C      1  0.4722330000000  0.4405340000000  0.5710500000000 1.0
C      1  0.4722510000000  0.5912680000000  0.5159860000000 1.0
C      1  0.4722100000000  0.4682140000000  0.4129780000000 1.0
C      1  0.4604060000000  0.4240090000000  0.4606090000000 1.0
C      1  0.4604430000000  0.5038870000000  0.5855220000000 1.0
C      1  0.4604320000000  0.5721250000000  0.4538890000000 1.0
C      1  0.5605740000000  0.4792120000000  0.3986140000000 1.0
C      1  0.5605930000000  0.4225830000000  0.5686700000000 1.0
C      1  0.5606190000000  0.5981700000000  0.5326840000000 1.0
C      1  0.5466130000000  0.4508540000000  0.4775190000000 1.0
C      1  0.5466360000000  0.5050980000000  0.5537830000000 1.0
C      1  0.5466280000000  0.5440220000000  0.4686740000000 1.0
C      1  0.5414940000000  0.5512720000000  0.5536740000000 1.0
C      1  0.5414670000000  0.5208420000000  0.4287430000000 1.0
C      1  0.5414650000000  0.4278640000000  0.5175610000000 1.0
C      1  0.4522050000000  0.4107660000000  0.5063520000000 1.0
C      1  0.4522420000000  0.5501240000000  0.5741230000000 1.0
C      1  0.4522130000000  0.5391360000000  0.4195500000000 1.0
C      1  0.4615770000000  0.4679990000000  0.5497380000000 1.0
C      1  0.4615860000000  0.5590800000000  0.5028600000000 1.0
C      1  0.4615600000000  0.4729420000000  0.4474220000000 1.0
C      1  0.5260460000000  0.6100800000000  0.4293600000000 1.0
C      1  0.5260060000000  0.3837800000000  0.4399770000000 1.0
C      1  0.5260610000000  0.5061250000000  0.6306500000000 1.0
C      1  0.4679170000000  0.5221290000000  0.4424780000000 1.0
C      1  0.4679130000000  0.4391240000000  0.5096100000000 1.0
C      1  0.4679380000000  0.5387650000000  0.5479280000000 1.0
C      1  0.5893720000000  0.4722330000000  0.5631720000000 1.0
C      1  0.5893770000000  0.5685810000000  0.4924230000000 1.0
C      1  0.5893490000000  0.4591360000000  0.4443580000000 1.0
C      1  0.4873730000000  0.5474940000000  0.4888270000000 1.0
C      1  0.4873540000000  0.4665790000000  0.4644600000000 1.0
C      1  0.4873720000000  0.4859340000000  0.5467190000000 1.0
C      1  0.5897660000000  0.4609440000000  0.5116860000000 1.0
C      1  0.5897810000000  0.5296370000000  0.5279430000000 1.0
C      1  0.5897660000000  0.5093700000000  0.4603250000000 1.0
C      1  0.4285630000000  0.4275950000000  0.5396670000000 1.0
C      1  0.4285900000000  0.5705650000000  0.5429010000000 1.0
C      1  0.4285560000000  0.5018810000000  0.4174690000000 1.0
C      1  0.4762140000000  0.4909340000000  0.6300250000000 1.0
C      1  0.4762050000000  0.6171410000000  0.4428490000000 1.0
C      1  0.4761610000000  0.3919380000000  0.4271390000000 1.0
C      1  0.4232890000000  0.4199750000000  0.5117210000000 1.0
C      1  0.4233230000000  0.5501730000000  0.5634750000000 1.0
C      1  0.4232950000000  0.5298940000000  0.4248430000000 1.0
C      1  0.4059110000000  0.4806030000000  0.4674280000000 1.0
C      1  0.4059230000000  0.4815030000000  0.5331240000000 1.0
C      1  0.4059280000000  0.5379470000000  0.4994970000000 1.0
C      1  0.6111440000000  0.5144590000000  0.5147310000000 1.0
C      1  0.6111360000000  0.5055140000000  0.4800660000000 1.0
C      1  0.6111360000000  0.4799660000000  0.5051450000000 1.0
C      1  0.4154100000000  0.4512610000000  0.4661700000000 1.0
C      1  0.4154340000000  0.4950830000000  0.5591600000000 1.0
C      1  0.4154300000000  0.5537030000000  0.4747140000000 1.0
C      1  0.5539120000000  0.3999200000000  0.4812490000000 1.0
C      1  0.5539570000000  0.5337940000000  0.5960250000000 1.0
C      1  0.5539330000000  0.5662560000000  0.4226980000000 1.0
C      1  0.5286510000000  0.3847260000000  0.5244660000000 1.0
C      1  0.5286970000000  0.5788210000000  0.5875850000000 1.0
C      1  0.5286550000000  0.5364370000000  0.3879340000000 1.0
C      1  0.4944670000000  0.5530170000000  0.5409100000000 1.0
C      1  0.4944400000000  0.5089220000000  0.4336340000000 1.0
C      1  0.4944430000000  0.4380650000000  0.5254590000000 1.0
C      1  0.5869820000000  0.5346120000000  0.4428470000000 1.0
C      1  0.5869730000000  0.4331870000000  0.4985650000000 1.0
C      1  0.5870020000000  0.5321530000000  0.5585420000000 1.0
C      1  0.4782370000000  0.4751770000000  0.3820990000000 1.0
C      1  0.4782600000000  0.4103090000000  0.5804570000000 1.0
C      1  0.4782900000000  0.6145260000000  0.5374550000000 1.0
C      1  0.4782590000000  0.6074580000000  0.5656470000000 1.0
C      1  0.4782060000000  0.5031260000000  0.3741240000000 1.0
C      1  0.4782180000000  0.3894280000000  0.5602400000000 1.0
C      1  0.5807200000000  0.5622540000000  0.5638420000000 1.0
C      1  0.5806860000000  0.5241510000000  0.4141310000000 1.0
C      1  0.5806850000000  0.4135500000000  0.5219850000000 1.0
C      1  0.5010850000000  0.4863250000000  0.5200190000000 1.0
C      1  0.5010890000000  0.5241740000000  0.5018330000000 1.0
C      1  0.5010780000000  0.4895000000000  0.4781480000000 1.0
C      1  0.5358990000000  0.6024660000000  0.5184330000000 1.0
C      1  0.5358540000000  0.4647260000000  0.4020300000000 1.0
C      1  0.5358780000000  0.4327880000000  0.5795180000000 1.0
C      1  0.5056070000000  0.6190370000000  0.4484390000000 1.0
C      1  0.5055610000000  0.3958270000000  0.4226890000000 1.0
C      1  0.5056130000000  0.4851330000000  0.6288690000000 1.0
C      1  0.5098010000000  0.5673930000000  0.4959000000000 1.0
C      1  0.5097730000000  0.4627520000000  0.4436820000000 1.0
C      1  0.5097940000000  0.4698500000000  0.5604130000000 1.0
C      1  0.4064250000000  0.5392670000000  0.4482080000000 1.0
C      1  0.4064140000000  0.4355250000000  0.4919300000000 1.0
C      1  0.4064420000000  0.5252600000000  0.5599110000000 1.0
C      1  0.5755570000000  0.4869730000000  0.5840990000000 1.0
C      1  0.5755540000000  0.5793360000000  0.4692010000000 1.0
C      1  0.5755230000000  0.4336500000000  0.4466610000000 1.0
C      1  0.4810280000000  0.4408490000000  0.4780460000000 1.0
C      1  0.4810550000000  0.5105650000000  0.5622110000000 1.0
C      1  0.4810450000000  0.5485960000000  0.4597530000000 1.0
C      1  0.4971880000000  0.5744340000000  0.5214710000000 1.0
C      1  0.4971540000000  0.4813780000000  0.4248040000000 1.0
C      1  0.4971700000000  0.4441900000000  0.5537260000000 1.0
C      1  0.4536130000000  0.5671570000000  0.4262490000000 1.0
C      1  0.4535920000000  0.4025570000000  0.4787360000000 1.0
C      1  0.4536360000000  0.5303120000000  0.5950400000000 1.0
C      1  0.5057010000000  0.5225270000000  0.5717470000000 1.0
C      1  0.5056840000000  0.5508710000000  0.4446150000000 1.0
C      1  0.5056680000000  0.4265990000000  0.4836340000000 1.0
C      1  0.4095680000000  0.5847910000000  0.4737930000000 1.0
C      1  0.4095350000000  0.4349200000000  0.4397110000000 1.0
C      1  0.4095690000000  0.4803400000000  0.5865440000000 1.0
C      1  0.4513570000000  0.4592080000000  0.5240430000000 1.0
C      1  0.4513720000000  0.5412240000000  0.5233250000000 1.0
C      1  0.4513520000000  0.4995940000000  0.4526560000000 1.0
C      1  0.5285950000000  0.5258800000000  0.5117900000000 1.0
C      1  0.5285830000000  0.4972670000000  0.4716800000000 1.0
C      1  0.5285870000000  0.4768370000000  0.5165150000000 1.0
C      1  0.4791790000000  0.4372270000000  0.4166840000000 1.0
C      1  0.4792140000000  0.4592360000000  0.5960300000000 1.0
C      1  0.4792220000000  0.6035490000000  0.4872970000000 1.0
C      1  0.5582990000000  0.4720560000000  0.6032650000000 1.0
C      1  0.5583010000000  0.6033950000000  0.4725430000000 1.0
C      1  0.5582590000000  0.4245160000000  0.4241620000000 1.0
C      1  0.5534330000000  0.5608800000000  0.5808700000000 1.0
C      1  0.5533990000000  0.5395880000000  0.4068190000000 1.0
C      1  0.5533920000000  0.3995020000000  0.5122830000000 1.0
C      1  0.5288160000000  0.5280400000000  0.6115560000000 1.0
C      1  0.5287930000000  0.5825870000000  0.4199260000000 1.0
C      1  0.5287650000000  0.3893570000000  0.4685030000000 1.0
C      1  0.5665190000000  0.4282310000000  0.4746470000000 1.0
C      1  0.5665520000000  0.5139200000000  0.5748020000000 1.0
C      1  0.5665390000000  0.5578120000000  0.4505160000000 1.0
C      1  0.5733040000000  0.5724510000000  0.5362710000000 1.0
C      1  0.5732700000000  0.4951770000000  0.4190900000000 1.0
C      1  0.5732800000000  0.4323320000000  0.5446010000000 1.0
C      1  0.4567640000000  0.5789990000000  0.5434750000000 1.0
C      1  0.4567260000000  0.4981560000000  0.4098650000000 1.0
C      1  0.4567350000000  0.4228690000000  0.5466820000000 1.0
C      1  0.4235580000000  0.4633830000000  0.5182650000000 1.0
C      1  0.4235720000000  0.5341360000000  0.5226100000000 1.0
C      1  0.4235550000000  0.5025230000000  0.4591640000000 1.0
END
