TITL C-862130-1496-837 0.135746916681086 125000 -861.671772280343 0 0 151 (C3) n - 1
REM
REM in /home/nfs/bkarasulu/CARBON/AIRSS/Generating-Clusters/TERSOFF/Higher-Symm/FIRE-HFTN
REM
REM
REM
REM
REM
REM ./C.cell (b20cbc046b6831c77cfcea5457e17084)
REM AIRSS Version 0.9.1 bugfix July 2018 build 013d7b7c2542+ Fri, 06 Jul 2018 19:26:36 +0100
REM compiler GCC version 9.2.1 20190827 (Red Hat 9.2.1-1)
REM options -cpp -mtune=generic -march=x86-64 -g -O0 -fpre-include=/usr/include/finclude/math-vector-fortran.h
REM seed 867106640 -99413876 1671132239 -943445489 -1512292426 -194656453 -1656101192 1859683509 -910195689 -1639823775 -1631876418 1388344821 -2019787922 -1064642231 1403931271 953439861 1067416013 2046686825 210478285 590408710 -626545698 1615051062 -1089721355 1974864946 1890513984 -895516400 -906356980 799611338 21687466 1344003432 -1483457213 -1314105302 1692775979
REM
CELL 1.54180   50.00000   50.00000   50.00000   90.00000   90.00000   90.00000
LATT -1
SFAC C  
C      1  0.4353060000000  0.5184740000000  0.4932780000000 1.0
C      1  0.5379330000000  0.5184750000000  0.4473160000000 1.0
C      1  0.5264240000000  0.5184720000000  0.5591740000000 1.0
C      1  0.5208310000000  0.3892950000000  0.4645620000000 1.0
C      1  0.5200370000000  0.3892940000000  0.5357360000000 1.0
C      1  0.4587950000000  0.3892950000000  0.4994620000000 1.0
C      1  0.4694780000000  0.4652140000000  0.5606550000000 1.0
C      1  0.4624960000000  0.4652170000000  0.4432190000000 1.0
C      1  0.5676890000000  0.4652160000000  0.4958910000000 1.0
C      1  0.4586210000000  0.4614720000000  0.5203240000000 1.0
C      1  0.5028520000000  0.4614740000000  0.4539830000000 1.0
C      1  0.5381900000000  0.4614720000000  0.5254590000000 1.0
C      1  0.4642650000000  0.5452170000000  0.5399520000000 1.0
C      1  0.4830330000000  0.5452190000000  0.4490590000000 1.0
C      1  0.5523650000000  0.5452180000000  0.5107590000000 1.0
C      1  0.4030660000000  0.4951960000000  0.5637330000000 1.0
C      1  0.4930360000000  0.4952000000000  0.3841670000000 1.0
C      1  0.6035600000000  0.4951960000000  0.5518670000000 1.0
C      1  0.4114240000000  0.5232910000000  0.5783110000000 1.0
C      1  0.4762340000000  0.5232960000000  0.3841180000000 1.0
C      1  0.6120050000000  0.5232920000000  0.5373410000000 1.0
C      1  0.4369270000000  0.4085400000000  0.5024200000000 1.0
C      1  0.5292030000000  0.4085420000000  0.4441450000000 1.0
C      1  0.5335330000000  0.4085390000000  0.5531960000000 1.0
C      1  0.5694950000000  0.5243380000000  0.5638220000000 1.0
C      1  0.4097460000000  0.5243390000000  0.5282550000000 1.0
C      1  0.5204220000000  0.5243410000000  0.4076920000000 1.0
C      1  0.5115420000000  0.4216390000000  0.5673960000000 1.0
C      1  0.4356250000000  0.4216410000000  0.4762770000000 1.0
C      1  0.5524950000000  0.4216410000000  0.4560900000000 1.0
C      1  0.4005390000000  0.5558570000000  0.4883380000000 1.0
C      1  0.5595960000000  0.5558590000000  0.4196780000000 1.0
C      1  0.5395280000000  0.5558550000000  0.5917560000000 1.0
C      1  0.5222210000000  0.4995290000000  0.3908460000000 1.0
C      1  0.5831840000000  0.4995250000000  0.5738020000000 1.0
C      1  0.3942580000000  0.4995250000000  0.5351200000000 1.0
C      1  0.4957030000000  0.4690180000000  0.6048300000000 1.0
C      1  0.4111270000000  0.4690210000000  0.4438440000000 1.0
C      1  0.5928330000000  0.4690210000000  0.4510920000000 1.0
C      1  0.4840300000000  0.5042600000000  0.5235050000000 1.0
C      1  0.4873940000000  0.5042610000000  0.4743990000000 1.0
C      1  0.5282390000000  0.5042610000000  0.5018650000000 1.0
C      1  0.5059970000000  0.4952860000000  0.5984280000000 1.0
C      1  0.4115240000000  0.4952890000000  0.4559600000000 1.0
C      1  0.5821420000000  0.4952890000000  0.4453790000000 1.0
C      1  0.5145580000000  0.5967240000000  0.4582660000000 1.0
C      1  0.5286300000000  0.5967230000000  0.5334590000000 1.0
C      1  0.4564750000000  0.5967230000000  0.5080490000000 1.0
C      1  0.5560820000000  0.5947360000000  0.5220760000000 1.0
C      1  0.4526060000000  0.5947350000000  0.5375150000000 1.0
C      1  0.4909740000000  0.5947380000000  0.4401830000000 1.0
C      1  0.5367140000000  0.5009730000000  0.5959310000000 1.0
C      1  0.3983290000000  0.5009750000000  0.4838120000000 1.0
C      1  0.5646200000000  0.5009770000000  0.4200260000000 1.0
C      1  0.4764200000000  0.4550450000000  0.5881950000000 1.0
C      1  0.4351740000000  0.4550490000000  0.4354610000000 1.0
C      1  0.5880690000000  0.4550480000000  0.4761090000000 1.0
C      1  0.5585850000000  0.4807780000000  0.5845090000000 1.0
C      1  0.3972850000000  0.4807790000000  0.5084630000000 1.0
C      1  0.5437930000000  0.4807820000000  0.4067950000000 1.0
C      1  0.5041200000000  0.5648410000000  0.4137780000000 1.0
C      1  0.5723760000000  0.5648380000000  0.5466630000000 1.0
C      1  0.4231670000000  0.5648380000000  0.5393320000000 1.0
C      1  0.5654190000000  0.5247940000000  0.5314210000000 1.0
C      1  0.4398440000000  0.5247940000000  0.5409270000000 1.0
C      1  0.4943990000000  0.5247970000000  0.4274220000000 1.0
C      1  0.5540550000000  0.5290120000000  0.4680960000000 1.0
C      1  0.5003670000000  0.5290100000000  0.5627470000000 1.0
C      1  0.4452410000000  0.5290120000000  0.4689260000000 1.0
C      1  0.4313540000000  0.4298570000000  0.5246750000000 1.0
C      1  0.5127170000000  0.4298590000000  0.4281920000000 1.0
C      1  0.5555920000000  0.4298560000000  0.5468960000000 1.0
C      1  0.5326030000000  0.3773250000000  0.5128170000000 1.0
C      1  0.4723610000000  0.3773240000000  0.5218040000000 1.0
C      1  0.4946990000000  0.3773260000000  0.4651390000000 1.0
C      1  0.4682680000000  0.4791700000000  0.4705450000000 1.0
C      1  0.5411390000000  0.4791700000000  0.4872270000000 1.0
C      1  0.4902560000000  0.4791680000000  0.5419940000000 1.0
C      1  0.4669740000000  0.4584250000000  0.4924060000000 1.0
C      1  0.5228530000000  0.4584260000000  0.4751750000000 1.0
C      1  0.5098360000000  0.4584240000000  0.5321830000000 1.0
C      1  0.5082940000000  0.5117670000000  0.4512570000000 1.0
C      1  0.5378300000000  0.5117650000000  0.5315360000000 1.0
C      1  0.4535390000000  0.5117660000000  0.5169750000000 1.0
C      1  0.5564460000000  0.4381900000000  0.5133240000000 1.0
C      1  0.4600010000000  0.4381890000000  0.5422010000000 1.0
C      1  0.4832160000000  0.4381910000000  0.4442380000000 1.0
C      1  0.5597360000000  0.4451950000000  0.4410570000000 1.0
C      1  0.5209420000000  0.4451910000000  0.5811840000000 1.0
C      1  0.4189850000000  0.4451940000000  0.4775240000000 1.0
C      1  0.5865170000000  0.4770070000000  0.5359690000000 1.0
C      1  0.4253560000000  0.4770060000000  0.5569220000000 1.0
C      1  0.4877910000000  0.4770100000000  0.4068760000000 1.0
C      1  0.4342240000000  0.5132220000000  0.4479220000000 1.0
C      1  0.5777540000000  0.5132210000000  0.4690580000000 1.0
C      1  0.4876850000000  0.5132180000000  0.5827900000000 1.0
C      1  0.5244220000000  0.5973530000000  0.5634330000000 1.0
C      1  0.4326210000000  0.5973550000000  0.4894180000000 1.0
C      1  0.5426200000000  0.5973560000000  0.4469230000000 1.0
C      1  0.5179850000000  0.5528560000000  0.4709910000000 1.0
C      1  0.5158950000000  0.5528550000000  0.5300630000000 1.0
C      1  0.4657830000000  0.5528560000000  0.4987170000000 1.0
C      1  0.5953540000000  0.5540500000000  0.5283510000000 1.0
C      1  0.4275350000000  0.5540490000000  0.5683860000000 1.0
C      1  0.4767730000000  0.5540530000000  0.4030340000000 1.0
C      1  0.4369880000000  0.4254980000000  0.4344960000000 1.0
C      1  0.5879970000000  0.4254970000000  0.4781610000000 1.0
C      1  0.4746780000000  0.4254940000000  0.5871060000000 1.0
C      1  0.5679350000000  0.5560230000000  0.4670550000000 1.0
C      1  0.4943290000000  0.5560210000000  0.5752900000000 1.0
C      1  0.4373980000000  0.5560230000000  0.4574270000000 1.0
C      1  0.5476130000000  0.5285440000000  0.4201100000000 1.0
C      1  0.5451460000000  0.5285410000000  0.5811610000000 1.0
C      1  0.4069040000000  0.5285420000000  0.4984990000000 1.0
C      1  0.5356090000000  0.5324980000000  0.4902170000000 1.0
C      1  0.4904330000000  0.5324970000000  0.5357120000000 1.0
C      1  0.4736210000000  0.5324990000000  0.4738410000000 1.0
C      1  0.4624550000000  0.5712360000000  0.5526640000000 1.0
C      1  0.4729300000000  0.5712390000000  0.4411370000000 1.0
C      1  0.5642770000000  0.5712370000000  0.5059720000000 1.0
C      1  0.5906500000000  0.5140680000000  0.5166400000000 1.0
C      1  0.4400300000000  0.5140660000000  0.5701670000000 1.0
C      1  0.4689840000000  0.5140700000000  0.4129620000000 1.0
C      1  0.4106370000000  0.4524140000000  0.5054930000000 1.0
C      1  0.5396870000000  0.4524160000000  0.4198430000000 1.0
C      1  0.5493380000000  0.4524130000000  0.5744290000000 1.0
C      1  0.5607130000000  0.5731950000000  0.4439050000000 1.0
C      1  0.5179890000000  0.5731920000000  0.5806100000000 1.0
C      1  0.4209610000000  0.5731940000000  0.4752580000000 1.0
C      1  0.4474990000000  0.5608950000000  0.4231120000000 1.0
C      1  0.5926030000000  0.5608930000000  0.4929600000000 1.0
C      1  0.4595600000000  0.5608910000000  0.5837000000000 1.0
C      1  0.4598190000000  0.4157280000000  0.4545210000000 1.0
C      1  0.5592400000000  0.4157270000000  0.4879200000000 1.0
C      1  0.4806050000000  0.4157260000000  0.5573210000000 1.0
C      1  0.5419420000000  0.5562860000000  0.5498360000000 1.0
C      1  0.4356350000000  0.5562860000000  0.5113890000000 1.0
C      1  0.5220850000000  0.5562880000000  0.4385470000000 1.0
C      1  0.4611140000000  0.5251360000000  0.5876810000000 1.0
C      1  0.4432740000000  0.5251390000000  0.4224660000000 1.0
C      1  0.5952750000000  0.5251380000000  0.4896230000000 1.0
C      1  0.5100230000000  0.5789820000000  0.5175520000000 1.0
C      1  0.4795540000000  0.5789820000000  0.4998890000000 1.0
C      1  0.5100850000000  0.5789830000000  0.4823330000000 1.0
C      1  0.4904720000000  0.3913070000000  0.5392990000000 1.0
C      1  0.4704930000000  0.3913080000000  0.4720760000000 1.0
C      1  0.5386990000000  0.3913080000000  0.4883850000000 1.0
C      1  0.5065510000000  0.4763610000000  0.4290820000000 1.0
C      1  0.5579050000000  0.4763590000000  0.5411130000000 1.0
C      1  0.4352060000000  0.4763590000000  0.5295710000000 1.0
C      1  0.4998880000000  0.5021260000000  0.4999230000000 1.0
END
