TITL C-862127-1500-472 0.0292135239720495 125000 -785.842451494529 0 0 137 (C1) n - 1
REM
REM in /home/nfs/bkarasulu/CARBON/AIRSS/Generating-Clusters/TERSOFF/Higher-Symm/FIRE-HFTN
REM
REM
REM
REM
REM
REM ./C.cell (b20cbc046b6831c77cfcea5457e17084)
REM AIRSS Version 0.9.1 bugfix July 2018 build 013d7b7c2542+ Fri, 06 Jul 2018 19:26:36 +0100
REM compiler GCC version 9.2.1 20190827 (Red Hat 9.2.1-1)
REM options -cpp -mtune=generic -march=x86-64 -g -O0 -fpre-include=/usr/include/finclude/math-vector-fortran.h
REM seed 17628277 -364046963 393564137 -1159165928 -277048783 -467229058 -698672932 959156128 -384903384 -229066936 1761635089 1100708886 1358253595 1166707338 691133979 -311324099 -712872058 1047659926 7947000 78624031 2092521631 575743890 1240721239 2040571809 1207596339 1289531156 875346012 -1887333905 303628 -84626161 524326716 -973920902 -540674284
REM
CELL 1.54180   50.00000   50.00000   50.00000   90.00000   90.00000   90.00000
LATT -1
SFAC C  
C      1  0.5786540000000  0.5430450000000  0.4507830000000 1.0
C      1  0.5498480000000  0.4090280000000  0.4670920000000 1.0
C      1  0.5161010000000  0.4241180000000  0.4297310000000 1.0
C      1  0.4307540000000  0.4828010000000  0.4503050000000 1.0
C      1  0.4126760000000  0.5246760000000  0.4297670000000 1.0
C      1  0.5612920000000  0.4484860000000  0.4218910000000 1.0
C      1  0.4736660000000  0.5274810000000  0.6046990000000 1.0
C      1  0.4398790000000  0.4403170000000  0.4572810000000 1.0
C      1  0.4034200000000  0.4856550000000  0.4607860000000 1.0
C      1  0.5316080000000  0.4443040000000  0.4123910000000 1.0
C      1  0.4674140000000  0.5483480000000  0.5830930000000 1.0
C      1  0.5433530000000  0.5064280000000  0.4616000000000 1.0
C      1  0.4775380000000  0.4558910000000  0.5666350000000 1.0
C      1  0.4359830000000  0.4811960000000  0.4212760000000 1.0
C      1  0.4596760000000  0.3832940000000  0.4877730000000 1.0
C      1  0.6051260000000  0.4819840000000  0.5249630000000 1.0
C      1  0.5660170000000  0.4333400000000  0.4716250000000 1.0
C      1  0.4862450000000  0.5973060000000  0.4911220000000 1.0
C      1  0.5176220000000  0.4771840000000  0.4071870000000 1.0
C      1  0.4728470000000  0.4782650000000  0.4452620000000 1.0
C      1  0.5159860000000  0.5637880000000  0.4206520000000 1.0
C      1  0.5066290000000  0.4228030000000  0.5524430000000 1.0
C      1  0.4956370000000  0.5751800000000  0.4425110000000 1.0
C      1  0.4151100000000  0.4773240000000  0.5490870000000 1.0
C      1  0.4784620000000  0.6037980000000  0.5436790000000 1.0
C      1  0.5496440000000  0.4921400000000  0.4030210000000 1.0
C      1  0.5282060000000  0.5891250000000  0.5178360000000 1.0
C      1  0.4334810000000  0.4358880000000  0.5135780000000 1.0
C      1  0.5194990000000  0.4739790000000  0.4394120000000 1.0
C      1  0.4931530000000  0.5522150000000  0.4845450000000 1.0
C      1  0.4078210000000  0.5479720000000  0.5313380000000 1.0
C      1  0.4716220000000  0.5280130000000  0.5284870000000 1.0
C      1  0.4661830000000  0.5250420000000  0.4603050000000 1.0
C      1  0.5313010000000  0.4802550000000  0.5437270000000 1.0
C      1  0.3924880000000  0.5064320000000  0.4425860000000 1.0
C      1  0.4644090000000  0.5716970000000  0.4405770000000 1.0
C      1  0.4821420000000  0.4801550000000  0.4017780000000 1.0
C      1  0.4830900000000  0.5379140000000  0.4241000000000 1.0
C      1  0.4993160000000  0.4800860000000  0.4816870000000 1.0
C      1  0.4954150000000  0.5332770000000  0.4548070000000 1.0
C      1  0.4048940000000  0.4835900000000  0.4905190000000 1.0
C      1  0.4786690000000  0.4988770000000  0.4907190000000 1.0
C      1  0.4573160000000  0.4502130000000  0.5449910000000 1.0
C      1  0.6048150000000  0.5227710000000  0.4893540000000 1.0
C      1  0.4683030000000  0.5784420000000  0.5888100000000 1.0
C      1  0.5862440000000  0.4919930000000  0.4382560000000 1.0
C      1  0.4885390000000  0.4264730000000  0.5300600000000 1.0
C      1  0.4926170000000  0.4929470000000  0.5539840000000 1.0
C      1  0.4874620000000  0.4257770000000  0.4727020000000 1.0
C      1  0.4874800000000  0.3990590000000  0.4839210000000 1.0
C      1  0.5715770000000  0.4756780000000  0.4152630000000 1.0
C      1  0.5823050000000  0.4406930000000  0.5510810000000 1.0
C      1  0.5961040000000  0.4670290000000  0.5541750000000 1.0
C      1  0.5325760000000  0.4374040000000  0.5517460000000 1.0
C      1  0.5448690000000  0.4341090000000  0.5239480000000 1.0
C      1  0.5722340000000  0.5604840000000  0.4949960000000 1.0
C      1  0.4553880000000  0.5318460000000  0.5022180000000 1.0
C      1  0.5435430000000  0.4782300000000  0.4533080000000 1.0
C      1  0.5110270000000  0.4636520000000  0.5611070000000 1.0
C      1  0.5577560000000  0.4393320000000  0.5695340000000 1.0
C      1  0.4730860000000  0.5146300000000  0.4047910000000 1.0
C      1  0.4828510000000  0.4996900000000  0.5989450000000 1.0
C      1  0.4520920000000  0.5595800000000  0.4893740000000 1.0
C      1  0.4968720000000  0.5229330000000  0.4954020000000 1.0
C      1  0.5828080000000  0.4809780000000  0.5847280000000 1.0
C      1  0.5091510000000  0.5186960000000  0.5653520000000 1.0
C      1  0.4029580000000  0.5501710000000  0.5017560000000 1.0
C      1  0.5247520000000  0.4702010000000  0.5886020000000 1.0
C      1  0.5157740000000  0.5644860000000  0.5793080000000 1.0
C      1  0.5336610000000  0.4470570000000  0.5010780000000 1.0
C      1  0.5391790000000  0.5645340000000  0.5352310000000 1.0
C      1  0.5264950000000  0.5331370000000  0.4190050000000 1.0
C      1  0.5050430000000  0.5199240000000  0.5236580000000 1.0
C      1  0.5333590000000  0.4039270000000  0.4430750000000 1.0
C      1  0.5044420000000  0.5800300000000  0.4722780000000 1.0
C      1  0.4897220000000  0.5643710000000  0.5178880000000 1.0
C      1  0.4984240000000  0.5954950000000  0.5205680000000 1.0
C      1  0.4343490000000  0.5132420000000  0.4946530000000 1.0
C      1  0.4872310000000  0.3994710000000  0.5149620000000 1.0
C      1  0.6040040000000  0.4941660000000  0.4930560000000 1.0
C      1  0.5088060000000  0.5488710000000  0.5359960000000 1.0
C      1  0.4569130000000  0.3881130000000  0.5200200000000 1.0
C      1  0.5558340000000  0.4615230000000  0.5899930000000 1.0
C      1  0.4619220000000  0.4392450000000  0.4342860000000 1.0
C      1  0.5125080000000  0.4930530000000  0.6036990000000 1.0
C      1  0.4668300000000  0.4839370000000  0.5759030000000 1.0
C      1  0.5571600000000  0.4825120000000  0.5515670000000 1.0
C      1  0.4593630000000  0.5607880000000  0.5323290000000 1.0
C      1  0.4567180000000  0.4959530000000  0.4637900000000 1.0
C      1  0.5091910000000  0.5120540000000  0.4037880000000 1.0
C      1  0.4889750000000  0.4296290000000  0.4440880000000 1.0
C      1  0.4832090000000  0.5984450000000  0.5724490000000 1.0
C      1  0.5589860000000  0.5151410000000  0.4834850000000 1.0
C      1  0.5630340000000  0.5532390000000  0.5217610000000 1.0
C      1  0.5155510000000  0.4690870000000  0.5032030000000 1.0
C      1  0.4948850000000  0.5465830000000  0.5666530000000 1.0
C      1  0.5528960000000  0.5068180000000  0.5107280000000 1.0
C      1  0.5429520000000  0.5229330000000  0.5772360000000 1.0
C      1  0.5735640000000  0.4310580000000  0.5235250000000 1.0
C      1  0.5627440000000  0.5685780000000  0.4493360000000 1.0
C      1  0.5637090000000  0.4550160000000  0.4518990000000 1.0
C      1  0.5306430000000  0.5156830000000  0.6039880000000 1.0
C      1  0.4973890000000  0.4703770000000  0.4553000000000 1.0
C      1  0.4280150000000  0.5160310000000  0.5801710000000 1.0
C      1  0.4450380000000  0.4507200000000  0.4868730000000 1.0
C      1  0.5674540000000  0.5047860000000  0.5694390000000 1.0
C      1  0.4500340000000  0.5464450000000  0.4496290000000 1.0
C      1  0.5829570000000  0.5185240000000  0.5497840000000 1.0
C      1  0.4618140000000  0.4660350000000  0.4193810000000 1.0
C      1  0.5942900000000  0.4791970000000  0.4674790000000 1.0
C      1  0.4161600000000  0.4491730000000  0.5367020000000 1.0
C      1  0.4378150000000  0.5098180000000  0.4112750000000 1.0
C      1  0.4216150000000  0.5419840000000  0.4523430000000 1.0
C      1  0.5239780000000  0.5252330000000  0.4477390000000 1.0
C      1  0.4342690000000  0.5507820000000  0.5452420000000 1.0
C      1  0.4140230000000  0.5314960000000  0.4812370000000 1.0
C      1  0.4547920000000  0.4203420000000  0.5315630000000 1.0
C      1  0.4359800000000  0.4899580000000  0.5703540000000 1.0
C      1  0.5808150000000  0.5360530000000  0.4796790000000 1.0
C      1  0.5250610000000  0.4947130000000  0.5195830000000 1.0
C      1  0.5572640000000  0.5784390000000  0.4771760000000 1.0
C      1  0.4403250000000  0.5403800000000  0.5714380000000 1.0
C      1  0.4341350000000  0.4796250000000  0.4998560000000 1.0
C      1  0.5680620000000  0.5260920000000  0.5272230000000 1.0
C      1  0.4506990000000  0.4750400000000  0.5270550000000 1.0
C      1  0.3864410000000  0.4943890000000  0.5099860000000 1.0
C      1  0.5755460000000  0.5210890000000  0.4321620000000 1.0
C      1  0.4544660000000  0.5916890000000  0.5290050000000 1.0
C      1  0.3936080000000  0.4943800000000  0.5381360000000 1.0
C      1  0.5315520000000  0.5868060000000  0.4871020000000 1.0
C      1  0.5835560000000  0.4355830000000  0.4959180000000 1.0
C      1  0.5416100000000  0.5562110000000  0.5676350000000 1.0
C      1  0.5532830000000  0.5208220000000  0.4118860000000 1.0
C      1  0.4783540000000  0.4853560000000  0.5234640000000 1.0
C      1  0.4750450000000  0.4466590000000  0.4892540000000 1.0
C      1  0.4894920000000  0.4553760000000  0.5141890000000 1.0
C      1  0.4593900000000  0.5865880000000  0.4992000000000 1.0
END
