TITL C-862507-1800-1376 -5.45558086226629e-05 125000 -965.365923507166 0 0 173 (C1) n - 1
REM
REM in /home/nfs/bkarasulu/CARBON/AIRSS/Generating-Clusters/TERSOFF/Higher-Symm/FIRE-HFTN
REM
REM
REM
REM
REM
REM ./C.cell (b20cbc046b6831c77cfcea5457e17084)
REM AIRSS Version 0.9.1 bugfix July 2018 build 013d7b7c2542+ Fri, 06 Jul 2018 19:26:36 +0100
REM compiler GCC version 9.2.1 20190827 (Red Hat 9.2.1-1)
REM options -cpp -mtune=generic -march=x86-64 -g -O0 -fpre-include=/usr/include/finclude/math-vector-fortran.h
REM seed 1330168035 -1588277409 -1325609018 -2132434919 -491539509 1073114147 282932279 399181023 2115514583 -1182877894 -1242354534 287515611 -758296069 2079574182 -969315402 2045745747 -1045946908 384105326 1481057705 -169381163 899287054 -1132422766 19138130 -1114598828 1422514686 -701040732 1091721683 -24728535 1324899926 -516531830 -1589810742 -443076747 1749274390
REM
CELL 1.54180   50.00000   50.00000   50.00000   90.00000   90.00000   90.00000
LATT -1
SFAC C  
C      1  0.4898310000000  0.3784660000000  0.4847390000000 1.0
C      1  0.6103040000000  0.5520860000000  0.4841820000000 1.0
C      1  0.3997650000000  0.5695570000000  0.4845740000000 1.0
C      1  0.4899480000000  0.3784370000000  0.5162290000000 1.0
C      1  0.6103360000000  0.5520610000000  0.5156710000000 1.0
C      1  0.3997190000000  0.5695630000000  0.5160630000000 1.0
C      1  0.5578360000000  0.5009880000000  0.5169230000000 1.0
C      1  0.4703870000000  0.5496350000000  0.5167520000000 1.0
C      1  0.4718760000000  0.4495680000000  0.5169890000000 1.0
C      1  0.5577090000000  0.5008520000000  0.4836560000000 1.0
C      1  0.4702480000000  0.5496220000000  0.4834840000000 1.0
C      1  0.4718470000000  0.4495060000000  0.4837210000000 1.0
C      1  0.5236650000000  0.3852780000000  0.4851060000000 1.0
C      1  0.5874710000000  0.5784900000000  0.4836170000000 1.0
C      1  0.3887530000000  0.5368530000000  0.4849550000000 1.0
C      1  0.5242180000000  0.3850160000000  0.5168020000000 1.0
C      1  0.5875190000000  0.5779420000000  0.5153140000000 1.0
C      1  0.3882750000000  0.5365920000000  0.5166530000000 1.0
C      1  0.4696100000000  0.3998710000000  0.5265580000000 1.0
C      1  0.6020720000000  0.5238420000000  0.5262660000000 1.0
C      1  0.4284730000000  0.5764630000000  0.5263410000000 1.0
C      1  0.4695140000000  0.3997720000000  0.4742280000000 1.0
C      1  0.6018800000000  0.5237280000000  0.4739370000000 1.0
C      1  0.4283540000000  0.5764930000000  0.4740110000000 1.0
C      1  0.4203830000000  0.5227140000000  0.5659370000000 1.0
C      1  0.5203380000000  0.4198850000000  0.5660580000000 1.0
C      1  0.5594300000000  0.5580150000000  0.5659920000000 1.0
C      1  0.4201390000000  0.5224150000000  0.4343570000000 1.0
C      1  0.5203190000000  0.4195510000000  0.4344770000000 1.0
C      1  0.5592940000000  0.5575890000000  0.4344130000000 1.0
C      1  0.4359090000000  0.4870830000000  0.5244060000000 1.0
C      1  0.5433010000000  0.4510440000000  0.5244340000000 1.0
C      1  0.5209770000000  0.5618870000000  0.5240130000000 1.0
C      1  0.4359440000000  0.4872360000000  0.4764010000000 1.0
C      1  0.5430140000000  0.4509310000000  0.4764310000000 1.0
C      1  0.5207580000000  0.5619880000000  0.4760090000000 1.0
C      1  0.4575420000000  0.5510200000000  0.5690340000000 1.0
C      1  0.4772400000000  0.4378860000000  0.5692580000000 1.0
C      1  0.5653240000000  0.5116180000000  0.5691140000000 1.0
C      1  0.4573630000000  0.5507230000000  0.4312600000000 1.0
C      1  0.4771960000000  0.4376620000000  0.4314830000000 1.0
C      1  0.5652370000000  0.5112620000000  0.4313400000000 1.0
C      1  0.5939360000000  0.4712540000000  0.4734090000000 1.0
C      1  0.4777410000000  0.5958240000000  0.4732500000000 1.0
C      1  0.4281030000000  0.4329250000000  0.4735530000000 1.0
C      1  0.5941290000000  0.4714060000000  0.5270750000000 1.0
C      1  0.4778840000000  0.5958280000000  0.5269160000000 1.0
C      1  0.4281100000000  0.4329320000000  0.5272200000000 1.0
C      1  0.5109820000000  0.5295310000000  0.6134170000000 1.0
C      1  0.4691970000000  0.4950720000000  0.6134480000000 1.0
C      1  0.5199270000000  0.4760880000000  0.6134730000000 1.0
C      1  0.5108680000000  0.5291150000000  0.3869930000000 1.0
C      1  0.4690900000000  0.4946410000000  0.3870230000000 1.0
C      1  0.5198390000000  0.4757240000000  0.3870480000000 1.0
C      1  0.4278940000000  0.4377580000000  0.4448080000000 1.0
C      1  0.5898070000000  0.4685360000000  0.4446840000000 1.0
C      1  0.4820280000000  0.5934390000000  0.4445090000000 1.0
C      1  0.4279430000000  0.4378780000000  0.5559500000000 1.0
C      1  0.5899770000000  0.4689090000000  0.5558260000000 1.0
C      1  0.4822550000000  0.5936490000000  0.5556510000000 1.0
C      1  0.4380010000000  0.5486030000000  0.5183700000000 1.0
C      1  0.4889560000000  0.4220630000000  0.5185540000000 1.0
C      1  0.5731210000000  0.5295980000000  0.5185330000000 1.0
C      1  0.4378290000000  0.5485530000000  0.4818060000000 1.0
C      1  0.4889900000000  0.4219380000000  0.4819900000000 1.0
C      1  0.5730070000000  0.5294150000000  0.4819690000000 1.0
C      1  0.5166100000000  0.4666400000000  0.4720500000000 1.0
C      1  0.5204680000000  0.5311450000000  0.4718570000000 1.0
C      1  0.4627580000000  0.5022310000000  0.4720040000000 1.0
C      1  0.5167450000000  0.4667270000000  0.5286480000000 1.0
C      1  0.5205600000000  0.5311700000000  0.5284550000000 1.0
C      1  0.4627610000000  0.5022560000000  0.5286020000000 1.0
C      1  0.3824930000000  0.4836870000000  0.4798920000000 1.0
C      1  0.5728220000000  0.4064310000000  0.4798700000000 1.0
C      1  0.5447000000000  0.6079110000000  0.4898510000000 1.0
C      1  0.3841860000000  0.4848300000000  0.5105150000000 1.0
C      1  0.5710740000000  0.4073520000000  0.5104960000000 1.0
C      1  0.5446190000000  0.6099490000000  0.5204740000000 1.0
C      1  0.4784680000000  0.5244230000000  0.6127090000000 1.0
C      1  0.4898670000000  0.4694240000000  0.6128390000000 1.0
C      1  0.5317840000000  0.5068240000000  0.6127790000000 1.0
C      1  0.4783300000000  0.5240100000000  0.3876530000000 1.0
C      1  0.4897910000000  0.4690590000000  0.3877830000000 1.0
C      1  0.5316640000000  0.5064310000000  0.3877240000000 1.0
C      1  0.5382050000000  0.5751210000000  0.4221700000000 1.0
C      1  0.4155820000000  0.4953300000000  0.4222170000000 1.0
C      1  0.5460290000000  0.4290870000000  0.4222490000000 1.0
C      1  0.5382840000000  0.5755230000000  0.5781590000000 1.0
C      1  0.4157130000000  0.4957020000000  0.5782070000000 1.0
C      1  0.5460910000000  0.4294070000000  0.5782390000000 1.0
C      1  0.5663150000000  0.4690200000000  0.4853590000000 1.0
C      1  0.4935250000000  0.5730090000000  0.4851090000000 1.0
C      1  0.4399580000000  0.4580300000000  0.4854110000000 1.0
C      1  0.5664460000000  0.4691280000000  0.5152820000000 1.0
C      1  0.4936600000000  0.5730040000000  0.5150330000000 1.0
C      1  0.4399980000000  0.4579790000000  0.5153350000000 1.0
C      1  0.4415550000000  0.4075290000000  0.5154870000000 1.0
C      1  0.6093620000000  0.4957100000000  0.5152130000000 1.0
C      1  0.4491310000000  0.5968900000000  0.5152130000000 1.0
C      1  0.4415350000000  0.4075230000000  0.4853370000000 1.0
C      1  0.6092630000000  0.4956290000000  0.4850640000000 1.0
C      1  0.4490570000000  0.5968880000000  0.4850630000000 1.0
C      1  0.4974310000000  0.4232230000000  0.4174350000000 1.0
C      1  0.5676130000000  0.5359990000000  0.4173030000000 1.0
C      1  0.4347590000000  0.5403400000000  0.4172480000000 1.0
C      1  0.4975350000000  0.4234930000000  0.5832350000000 1.0
C      1  0.5676530000000  0.5363950000000  0.5831010000000 1.0
C      1  0.4349120000000  0.5407200000000  0.5830470000000 1.0
C      1  0.5051630000000  0.5501620000000  0.5739990000000 1.0
C      1  0.4541730000000  0.4795120000000  0.5741850000000 1.0
C      1  0.5408550000000  0.4708020000000  0.5741740000000 1.0
C      1  0.5049610000000  0.5499110000000  0.4262690000000 1.0
C      1  0.4540990000000  0.4793320000000  0.4264540000000 1.0
C      1  0.5406510000000  0.4704500000000  0.4264440000000 1.0
C      1  0.4071930000000  0.5055440000000  0.4821360000000 1.0
C      1  0.5415500000000  0.4168970000000  0.4821940000000 1.0
C      1  0.5510380000000  0.5775670000000  0.4820710000000 1.0
C      1  0.4072880000000  0.5055040000000  0.5182820000000 1.0
C      1  0.5416410000000  0.4170260000000  0.5183410000000 1.0
C      1  0.5511920000000  0.5776290000000  0.5182170000000 1.0
C      1  0.5003510000000  0.5287210000000  0.5517800000000 1.0
C      1  0.4750850000000  0.4860760000000  0.5519190000000 1.0
C      1  0.5246520000000  0.4855430000000  0.5519050000000 1.0
C      1  0.5002540000000  0.5285530000000  0.4485750000000 1.0
C      1  0.4750110000000  0.4859240000000  0.4487140000000 1.0
C      1  0.5245490000000  0.4853530000000  0.4487010000000 1.0
C      1  0.4508890000000  0.4244520000000  0.4332020000000 1.0
C      1  0.5898200000000  0.4950710000000  0.4330120000000 1.0
C      1  0.4590200000000  0.5801160000000  0.4329440000000 1.0
C      1  0.4509620000000  0.4246240000000  0.5675640000000 1.0
C      1  0.5899580000000  0.4955040000000  0.5673730000000 1.0
C      1  0.4592540000000  0.5804020000000  0.5673050000000 1.0
C      1  0.4264880000000  0.4682020000000  0.4384640000000 1.0
C      1  0.5641140000000  0.4521010000000  0.4384420000000 1.0
C      1  0.5091270000000  0.5794140000000  0.4382300000000 1.0
C      1  0.4265560000000  0.4683690000000  0.5621830000000 1.0
C      1  0.5642950000000  0.4524590000000  0.5621610000000 1.0
C      1  0.5093220000000  0.5796250000000  0.5619490000000 1.0
C      1  0.5551130000000  0.5297880000000  0.3907120000000 1.0
C      1  0.4463480000000  0.5325550000000  0.3906680000000 1.0
C      1  0.4982870000000  0.4370910000000  0.3908210000000 1.0
C      1  0.5551520000000  0.5302750000000  0.6097040000000 1.0
C      1  0.4465040000000  0.5330180000000  0.6096600000000 1.0
C      1  0.4985000000000  0.4374430000000  0.6098140000000 1.0
C      1  0.4240560000000  0.5257650000000  0.5355280000000 1.0
C      1  0.5157620000000  0.4214430000000  0.5356510000000 1.0
C      1  0.5603820000000  0.5533310000000  0.5356310000000 1.0
C      1  0.4236720000000  0.5256260000000  0.4647190000000 1.0
C      1  0.5158690000000  0.4211030000000  0.4648420000000 1.0
C      1  0.5601630000000  0.5529010000000  0.4648230000000 1.0
C      1  0.5481300000000  0.4955820000000  0.5871010000000 1.0
C      1  0.4800550000000  0.5440800000000  0.5869490000000 1.0
C      1  0.4719630000000  0.4608390000000  0.5871800000000 1.0
C      1  0.5479100000000  0.4952400000000  0.4134800000000 1.0
C      1  0.4798740000000  0.5437960000000  0.4133280000000 1.0
C      1  0.4719700000000  0.4606330000000  0.4135580000000 1.0
C      1  0.5224110000000  0.5553610000000  0.3993860000000 1.0
C      1  0.4406130000000  0.4915160000000  0.3994620000000 1.0
C      1  0.5368100000000  0.4526350000000  0.3994710000000 1.0
C      1  0.5225190000000  0.5557460000000  0.6009520000000 1.0
C      1  0.4407020000000  0.4919540000000  0.6010280000000 1.0
C      1  0.5368490000000  0.4529590000000  0.6010370000000 1.0
C      1  0.4706120000000  0.5322810000000  0.4585620000000 1.0
C      1  0.4866200000000  0.4584010000000  0.4587230000000 1.0
C      1  0.5426230000000  0.5091760000000  0.4586220000000 1.0
C      1  0.4706950000000  0.5324430000000  0.5418070000000 1.0
C      1  0.4866740000000  0.4585200000000  0.5419680000000 1.0
C      1  0.5426790000000  0.5093490000000  0.5418670000000 1.0
C      1  0.4791230000000  0.5011350000000  0.5002840000000 1.0
C      1  0.5113720000000  0.5175410000000  0.5002190000000 1.0
C      1  0.5094560000000  0.4814100000000  0.5003010000000 1.0
C      1  0.5000260000000  0.5001330000000  0.5601390000000 1.0
C      1  0.4999420000000  0.4999240000000  0.4403960000000 1.0
END
