TITL C-862506-1665-254 -1.4516423055894e-05 125000 -1123.17314802471 0 0 176 (Oh) n - 1
REM
REM in /home/nfs/bkarasulu/CARBON/AIRSS/Generating-Clusters/TERSOFF/Higher-Symm/FIRE-HFTN
REM
REM
REM
REM
REM
REM ./C.cell (b20cbc046b6831c77cfcea5457e17084)
REM AIRSS Version 0.9.1 bugfix July 2018 build 013d7b7c2542+ Fri, 06 Jul 2018 19:26:36 +0100
REM compiler GCC version 9.2.1 20190827 (Red Hat 9.2.1-1)
REM options -cpp -mtune=generic -march=x86-64 -g -O0 -fpre-include=/usr/include/finclude/math-vector-fortran.h
REM seed -2141033572 -1059426911 -1377746432 -1298781452 1770647489 959884562 2131339159 1019642219 253619112 608376690 1361569549 -420617651 -1898873697 -1381165146 -1876997583 720100488 -433482250 351467142 1756772130 727405439 -1966334964 689773622 49657138 -1235501185 1026550970 -1915641473 19650861 637848015 -1004590189 1696354743 -363906171 -178440099 681088065
REM
CELL 1.54180   50.00000   50.00000   50.00000   90.00000   90.00000   90.00000
LATT -1
SFAC C  
C      1  0.5322720000000  0.4266680000000  0.4259720000000 1.0
C      1  0.4263330000000  0.5326070000000  0.4259720000000 1.0
C      1  0.4263330000000  0.4266680000000  0.5319100000000 1.0
C      1  0.5322720000000  0.5740550000000  0.5733590000000 1.0
C      1  0.4677810000000  0.5740550000000  0.4259720000000 1.0
C      1  0.4677810000000  0.4266680000000  0.5733590000000 1.0
C      1  0.4263330000000  0.4681160000000  0.5733590000000 1.0
C      1  0.5737200000000  0.4681160000000  0.4259720000000 1.0
C      1  0.5737200000000  0.5326070000000  0.5733590000000 1.0
C      1  0.4263330000000  0.5740550000000  0.4674200000000 1.0
C      1  0.5737200000000  0.5740550000000  0.5319100000000 1.0
C      1  0.5737200000000  0.4266680000000  0.4674200000000 1.0
C      1  0.4677810000000  0.4266680000000  0.4259720000000 1.0
C      1  0.5737200000000  0.5326070000000  0.4259720000000 1.0
C      1  0.5737200000000  0.4266680000000  0.5319100000000 1.0
C      1  0.4677810000000  0.5740550000000  0.5733590000000 1.0
C      1  0.5322720000000  0.5740550000000  0.4259720000000 1.0
C      1  0.5322720000000  0.4266680000000  0.5733590000000 1.0
C      1  0.5737200000000  0.4681160000000  0.5733590000000 1.0
C      1  0.4263330000000  0.4681160000000  0.4259720000000 1.0
C      1  0.4263330000000  0.5326070000000  0.5733590000000 1.0
C      1  0.5737200000000  0.5740550000000  0.4674200000000 1.0
C      1  0.4263330000000  0.5740550000000  0.5319100000000 1.0
C      1  0.4263330000000  0.4266680000000  0.4674200000000 1.0
C      1  0.5605930000000  0.4737350000000  0.4730380000000 1.0
C      1  0.4734000000000  0.5609280000000  0.4730380000000 1.0
C      1  0.4734000000000  0.4737350000000  0.5602320000000 1.0
C      1  0.5605930000000  0.5269880000000  0.5262920000000 1.0
C      1  0.4394600000000  0.5269880000000  0.4730380000000 1.0
C      1  0.4394600000000  0.4737350000000  0.5262920000000 1.0
C      1  0.4734000000000  0.4397950000000  0.5262920000000 1.0
C      1  0.5266530000000  0.4397950000000  0.4730380000000 1.0
C      1  0.5266530000000  0.5609280000000  0.5262920000000 1.0
C      1  0.4734000000000  0.5269880000000  0.4390990000000 1.0
C      1  0.5266530000000  0.5269880000000  0.5602320000000 1.0
C      1  0.5266530000000  0.4737350000000  0.4390990000000 1.0
C      1  0.4394600000000  0.4737350000000  0.4730380000000 1.0
C      1  0.5266530000000  0.5609280000000  0.4730380000000 1.0
C      1  0.5266530000000  0.4737350000000  0.5602320000000 1.0
C      1  0.4394600000000  0.5269880000000  0.5262920000000 1.0
C      1  0.5605930000000  0.5269880000000  0.4730380000000 1.0
C      1  0.5605930000000  0.4737350000000  0.5262920000000 1.0
C      1  0.5266530000000  0.4397950000000  0.5262920000000 1.0
C      1  0.4734000000000  0.4397950000000  0.4730380000000 1.0
C      1  0.4734000000000  0.5609280000000  0.5262920000000 1.0
C      1  0.5266530000000  0.5269880000000  0.4390990000000 1.0
C      1  0.4734000000000  0.5269880000000  0.5602320000000 1.0
C      1  0.4734000000000  0.4737350000000  0.4390990000000 1.0
C      1  0.4056690000000  0.5167410000000  0.5568250000000 1.0
C      1  0.5571860000000  0.4060040000000  0.5160450000000 1.0
C      1  0.5164060000000  0.5575210000000  0.4053070000000 1.0
C      1  0.4056690000000  0.4839820000000  0.4425050000000 1.0
C      1  0.5943850000000  0.4839820000000  0.5568250000000 1.0
C      1  0.5943850000000  0.5167410000000  0.4425050000000 1.0
C      1  0.5571860000000  0.5947200000000  0.4832850000000 1.0
C      1  0.4428670000000  0.5947200000000  0.5160450000000 1.0
C      1  0.4428670000000  0.4060040000000  0.4832850000000 1.0
C      1  0.5164060000000  0.4432020000000  0.5940230000000 1.0
C      1  0.4836470000000  0.4432020000000  0.4053070000000 1.0
C      1  0.4836470000000  0.5575210000000  0.5940230000000 1.0
C      1  0.5943850000000  0.5167410000000  0.5568250000000 1.0
C      1  0.4428670000000  0.4060040000000  0.5160450000000 1.0
C      1  0.4836470000000  0.5575210000000  0.4053070000000 1.0
C      1  0.5943850000000  0.4839820000000  0.4425050000000 1.0
C      1  0.4056690000000  0.4839820000000  0.5568250000000 1.0
C      1  0.4056690000000  0.5167410000000  0.4425050000000 1.0
C      1  0.4428670000000  0.5947200000000  0.4832850000000 1.0
C      1  0.5571860000000  0.5947200000000  0.5160450000000 1.0
C      1  0.5571860000000  0.4060040000000  0.4832850000000 1.0
C      1  0.4836470000000  0.4432020000000  0.5940230000000 1.0
C      1  0.5164060000000  0.4432020000000  0.4053070000000 1.0
C      1  0.5164060000000  0.5575210000000  0.5940230000000 1.0
C      1  0.5311300000000  0.6067830000000  0.5307680000000 1.0
C      1  0.5311300000000  0.5314650000000  0.6060870000000 1.0
C      1  0.6064480000000  0.5314650000000  0.5307680000000 1.0
C      1  0.5311300000000  0.3939400000000  0.4685620000000 1.0
C      1  0.4689240000000  0.3939400000000  0.5307680000000 1.0
C      1  0.4689240000000  0.6067830000000  0.4685620000000 1.0
C      1  0.5311300000000  0.4692590000000  0.3932430000000 1.0
C      1  0.4689240000000  0.4692590000000  0.6060870000000 1.0
C      1  0.4689240000000  0.5314650000000  0.3932430000000 1.0
C      1  0.6064480000000  0.4692590000000  0.4685620000000 1.0
C      1  0.3936050000000  0.4692590000000  0.5307680000000 1.0
C      1  0.3936050000000  0.5314650000000  0.4685620000000 1.0
C      1  0.4689240000000  0.6067830000000  0.5307680000000 1.0
C      1  0.4689240000000  0.5314650000000  0.6060870000000 1.0
C      1  0.3936050000000  0.5314650000000  0.5307680000000 1.0
C      1  0.4689240000000  0.3939400000000  0.4685620000000 1.0
C      1  0.5311300000000  0.3939400000000  0.5307680000000 1.0
C      1  0.5311300000000  0.6067830000000  0.4685620000000 1.0
C      1  0.4689240000000  0.4692590000000  0.3932430000000 1.0
C      1  0.5311300000000  0.4692590000000  0.6060870000000 1.0
C      1  0.5311300000000  0.5314650000000  0.3932430000000 1.0
C      1  0.3936050000000  0.4692590000000  0.4685620000000 1.0
C      1  0.6064480000000  0.4692590000000  0.5307680000000 1.0
C      1  0.6064480000000  0.5314650000000  0.4685620000000 1.0
C      1  0.5157230000000  0.5856450000000  0.4839690000000 1.0
C      1  0.4843300000000  0.5160580000000  0.5849480000000 1.0
C      1  0.5853100000000  0.4846650000000  0.5153620000000 1.0
C      1  0.5157230000000  0.4150790000000  0.5153620000000 1.0
C      1  0.4843300000000  0.4150790000000  0.4839690000000 1.0
C      1  0.4843300000000  0.5856450000000  0.5153620000000 1.0
C      1  0.4843300000000  0.4846650000000  0.4143820000000 1.0
C      1  0.5157230000000  0.4846650000000  0.5849480000000 1.0
C      1  0.5157230000000  0.5160580000000  0.4143820000000 1.0
C      1  0.5853100000000  0.5160580000000  0.4839690000000 1.0
C      1  0.4147440000000  0.5160580000000  0.5153620000000 1.0
C      1  0.4147440000000  0.4846650000000  0.4839690000000 1.0
C      1  0.4843300000000  0.5856450000000  0.4839690000000 1.0
C      1  0.5157230000000  0.5160580000000  0.5849480000000 1.0
C      1  0.4147440000000  0.4846650000000  0.5153620000000 1.0
C      1  0.4843300000000  0.4150790000000  0.5153620000000 1.0
C      1  0.5157230000000  0.4150790000000  0.4839690000000 1.0
C      1  0.5157230000000  0.5856450000000  0.5153620000000 1.0
C      1  0.5157230000000  0.4846650000000  0.4143820000000 1.0
C      1  0.4843300000000  0.4846650000000  0.5849480000000 1.0
C      1  0.4843300000000  0.5160580000000  0.4143820000000 1.0
C      1  0.4147440000000  0.5160580000000  0.4839690000000 1.0
C      1  0.5853100000000  0.5160580000000  0.5153620000000 1.0
C      1  0.5853100000000  0.4846650000000  0.4839690000000 1.0
C      1  0.4836470000000  0.4060040000000  0.4425050000000 1.0
C      1  0.4428670000000  0.4839820000000  0.4053070000000 1.0
C      1  0.4056690000000  0.4432020000000  0.4832850000000 1.0
C      1  0.4836470000000  0.5947200000000  0.5568250000000 1.0
C      1  0.5164060000000  0.5947200000000  0.4425050000000 1.0
C      1  0.5164060000000  0.4060040000000  0.5568250000000 1.0
C      1  0.4428670000000  0.5167410000000  0.5940230000000 1.0
C      1  0.5571860000000  0.5167410000000  0.4053070000000 1.0
C      1  0.5571860000000  0.4839820000000  0.5940230000000 1.0
C      1  0.4056690000000  0.5575210000000  0.5160450000000 1.0
C      1  0.5943850000000  0.5575210000000  0.4832850000000 1.0
C      1  0.5943850000000  0.4432020000000  0.5160450000000 1.0
C      1  0.5164060000000  0.4060040000000  0.4425050000000 1.0
C      1  0.5571860000000  0.4839820000000  0.4053070000000 1.0
C      1  0.5943850000000  0.4432020000000  0.4832850000000 1.0
C      1  0.5164060000000  0.5947200000000  0.5568250000000 1.0
C      1  0.4836470000000  0.5947200000000  0.4425050000000 1.0
C      1  0.4836470000000  0.4060040000000  0.5568250000000 1.0
C      1  0.5571860000000  0.5167410000000  0.5940230000000 1.0
C      1  0.4428670000000  0.5167410000000  0.4053070000000 1.0
C      1  0.4428670000000  0.4839820000000  0.5940230000000 1.0
C      1  0.5943850000000  0.5575210000000  0.5160450000000 1.0
C      1  0.4056690000000  0.5575210000000  0.4832850000000 1.0
C      1  0.4056690000000  0.4432020000000  0.5160450000000 1.0
C      1  0.4528770000000  0.4868360000000  0.5468150000000 1.0
C      1  0.5471760000000  0.4532120000000  0.4861390000000 1.0
C      1  0.4865010000000  0.5475110000000  0.4525150000000 1.0
C      1  0.4528770000000  0.5138880000000  0.4525150000000 1.0
C      1  0.5471760000000  0.5138880000000  0.5468150000000 1.0
C      1  0.5471760000000  0.4868360000000  0.4525150000000 1.0
C      1  0.5471760000000  0.5475110000000  0.5131910000000 1.0
C      1  0.4528770000000  0.5475110000000  0.4861390000000 1.0
C      1  0.4528770000000  0.4532120000000  0.5131910000000 1.0
C      1  0.4865010000000  0.4532120000000  0.5468150000000 1.0
C      1  0.5135530000000  0.4532120000000  0.4525150000000 1.0
C      1  0.5135530000000  0.5475110000000  0.5468150000000 1.0
C      1  0.5471760000000  0.4868360000000  0.5468150000000 1.0
C      1  0.4528770000000  0.4532120000000  0.4861390000000 1.0
C      1  0.5135530000000  0.5475110000000  0.4525150000000 1.0
C      1  0.5471760000000  0.5138880000000  0.4525150000000 1.0
C      1  0.4528770000000  0.5138880000000  0.5468150000000 1.0
C      1  0.4528770000000  0.4868360000000  0.4525150000000 1.0
C      1  0.4528770000000  0.5475110000000  0.5131910000000 1.0
C      1  0.5471760000000  0.5475110000000  0.4861390000000 1.0
C      1  0.5471760000000  0.4532120000000  0.5131910000000 1.0
C      1  0.5135530000000  0.4532120000000  0.5468150000000 1.0
C      1  0.4865010000000  0.4532120000000  0.4525150000000 1.0
C      1  0.4865010000000  0.5475110000000  0.5468150000000 1.0
C      1  0.4390850000000  0.4394200000000  0.5606060000000 1.0
C      1  0.5609680000000  0.4394200000000  0.4387240000000 1.0
C      1  0.4390850000000  0.5613030000000  0.4387240000000 1.0
C      1  0.5609680000000  0.4394200000000  0.5606060000000 1.0
C      1  0.5609680000000  0.5613030000000  0.4387240000000 1.0
C      1  0.4390850000000  0.5613030000000  0.5606060000000 1.0
C      1  0.5609680000000  0.5613030000000  0.5606060000000 1.0
C      1  0.4390850000000  0.4394200000000  0.4387240000000 1.0
END
