TITL C-862129-6180-1218 -0.00313505231736135 125000 -913.717430829722 0 0 163 (D2) n - 1
REM
REM in /home/nfs/bkarasulu/CARBON/AIRSS/Generating-Clusters/TERSOFF/Higher-Symm/FIRE-HFTN
REM
REM
REM
REM
REM
REM ./C.cell (b20cbc046b6831c77cfcea5457e17084)
REM AIRSS Version 0.9.1 bugfix July 2018 build 013d7b7c2542+ Fri, 06 Jul 2018 19:26:36 +0100
REM compiler GCC version 9.2.1 20190827 (Red Hat 9.2.1-1)
REM options -cpp -mtune=generic -march=x86-64 -g -O0 -fpre-include=/usr/include/finclude/math-vector-fortran.h
REM seed 1504819534 -1352761600 172479459 -847331302 -701763623 172314254 285375958 1852291153 1797159999 -1862870169 -384827724 363827879 1713116212 -2117728834 1378754809 1560784868 -1241421398 1495122593 1386505057 -36067275 1275992845 916017423 -921753414 -1728769250 752007956 -1515800680 -878083846 1497325161 13547438 935356380 -1258984909 -2083105589 -637745034
REM
CELL 1.54180   50.00000   50.00000   50.00000   90.00000   90.00000   90.00000
LATT -1
SFAC C  
C      1  0.5529970000000  0.4845650000000  0.5028760000000 1.0
C      1  0.4473050000000  0.4845650000000  0.4974690000000 1.0
C      1  0.5529970000000  0.5143140000000  0.4974690000000 1.0
C      1  0.4473050000000  0.5143140000000  0.5028760000000 1.0
C      1  0.4969730000000  0.5269490000000  0.5801640000000 1.0
C      1  0.5033290000000  0.5269490000000  0.4201810000000 1.0
C      1  0.4969730000000  0.4719300000000  0.4201810000000 1.0
C      1  0.5033290000000  0.4719300000000  0.5801640000000 1.0
C      1  0.4838590000000  0.5445470000000  0.5216230000000 1.0
C      1  0.5164430000000  0.5445470000000  0.4787220000000 1.0
C      1  0.4838590000000  0.4543320000000  0.4787220000000 1.0
C      1  0.5164430000000  0.4543320000000  0.5216230000000 1.0
C      1  0.4466770000000  0.4974610000000  0.5564050000000 1.0
C      1  0.5536260000000  0.4974610000000  0.4439400000000 1.0
C      1  0.4466770000000  0.5014180000000  0.4439400000000 1.0
C      1  0.5536260000000  0.5014180000000  0.5564050000000 1.0
C      1  0.4596920000000  0.3961570000000  0.5055230000000 1.0
C      1  0.5406100000000  0.3961570000000  0.4948220000000 1.0
C      1  0.4596920000000  0.6027220000000  0.4948220000000 1.0
C      1  0.5406100000000  0.6027220000000  0.5055230000000 1.0
C      1  0.4232600000000  0.4559490000000  0.5916110000000 1.0
C      1  0.5770420000000  0.4559490000000  0.4087340000000 1.0
C      1  0.4232600000000  0.5429300000000  0.4087340000000 1.0
C      1  0.5770420000000  0.5429300000000  0.5916110000000 1.0
C      1  0.4685430000000  0.3982780000000  0.4767390000000 1.0
C      1  0.5317590000000  0.3982780000000  0.5236060000000 1.0
C      1  0.4685430000000  0.6006010000000  0.5236060000000 1.0
C      1  0.5317590000000  0.6006010000000  0.4767390000000 1.0
C      1  0.4209620000000  0.5286620000000  0.5971260000000 1.0
C      1  0.5793410000000  0.5286620000000  0.4032190000000 1.0
C      1  0.4209620000000  0.4702170000000  0.4032190000000 1.0
C      1  0.5793410000000  0.4702170000000  0.5971260000000 1.0
C      1  0.4052750000000  0.5105830000000  0.5423410000000 1.0
C      1  0.5950280000000  0.5105820000000  0.4580040000000 1.0
C      1  0.4052750000000  0.4882970000000  0.4580040000000 1.0
C      1  0.5950280000000  0.4882970000000  0.5423410000000 1.0
C      1  0.6127040000000  0.5127720000000  0.4960270000000 1.0
C      1  0.3875980000000  0.5127720000000  0.5043180000000 1.0
C      1  0.6127040000000  0.4861070000000  0.5043180000000 1.0
C      1  0.3875980000000  0.4861070000000  0.4960270000000 1.0
C      1  0.5124390000000  0.5508020000000  0.5229440000000 1.0
C      1  0.4878630000000  0.5508020000000  0.4774010000000 1.0
C      1  0.5124390000000  0.4480770000000  0.4774010000000 1.0
C      1  0.4878630000000  0.4480770000000  0.5229440000000 1.0
C      1  0.4210410000000  0.4627250000000  0.5348760000000 1.0
C      1  0.5792610000000  0.4627240000000  0.4654690000000 1.0
C      1  0.4210410000000  0.5361550000000  0.4654700000000 1.0
C      1  0.5792610000000  0.5361550000000  0.5348760000000 1.0
C      1  0.4984910000000  0.4117030000000  0.5809780000000 1.0
C      1  0.5018110000000  0.4117030000000  0.4193670000000 1.0
C      1  0.4984910000000  0.5871760000000  0.4193670000000 1.0
C      1  0.5018120000000  0.5871760000000  0.5809780000000 1.0
C      1  0.5528680000000  0.4713500000000  0.5566290000000 1.0
C      1  0.4474350000000  0.4713500000000  0.4437160000000 1.0
C      1  0.5528680000000  0.5275300000000  0.4437160000000 1.0
C      1  0.4474350000000  0.5275300000000  0.5566290000000 1.0
C      1  0.5023140000000  0.4005120000000  0.5290430000000 1.0
C      1  0.4979890000000  0.4005120000000  0.4713020000000 1.0
C      1  0.5023140000000  0.5983670000000  0.4713020000000 1.0
C      1  0.4979890000000  0.5983670000000  0.5290430000000 1.0
C      1  0.4757380000000  0.4434190000000  0.5484680000000 1.0
C      1  0.5245640000000  0.4434190000000  0.4518770000000 1.0
C      1  0.4757380000000  0.5554600000000  0.4518770000000 1.0
C      1  0.5245640000000  0.5554600000000  0.5484680000000 1.0
C      1  0.5233490000000  0.5411170000000  0.5922200000000 1.0
C      1  0.4769540000000  0.5411170000000  0.4081250000000 1.0
C      1  0.5233480000000  0.4577620000000  0.4081250000000 1.0
C      1  0.4769540000000  0.4577620000000  0.5922200000000 1.0
C      1  0.5311170000000  0.5211130000000  0.5460330000000 1.0
C      1  0.4691850000000  0.5211130000000  0.4543120000000 1.0
C      1  0.5311170000000  0.4777670000000  0.4543120000000 1.0
C      1  0.4691850000000  0.4777670000000  0.5460330000000 1.0
C      1  0.5238780000000  0.4811620000000  0.5144990000000 1.0
C      1  0.4764250000000  0.4811620000000  0.4858460000000 1.0
C      1  0.5238780000000  0.5177170000000  0.4858460000000 1.0
C      1  0.4764250000000  0.5177170000000  0.5144990000000 1.0
C      1  0.5353220000000  0.4257870000000  0.5665530000000 1.0
C      1  0.4649800000000  0.4257870000000  0.4337920000000 1.0
C      1  0.5353220000000  0.5730930000000  0.4337920000000 1.0
C      1  0.4649800000000  0.5730930000000  0.5665530000000 1.0
C      1  0.5823070000000  0.4869630000000  0.4455470000000 1.0
C      1  0.4179950000000  0.4869630000000  0.5547980000000 1.0
C      1  0.5823070000000  0.5119160000000  0.5547980000000 1.0
C      1  0.4179950000000  0.5119160000000  0.4455480000000 1.0
C      1  0.5855270000000  0.5235110000000  0.4850440000000 1.0
C      1  0.4147750000000  0.5235110000000  0.5153020000000 1.0
C      1  0.5855270000000  0.4753680000000  0.5153010000000 1.0
C      1  0.4147750000000  0.4753680000000  0.4850440000000 1.0
C      1  0.5888900000000  0.4534050000000  0.4930700000000 1.0
C      1  0.4114120000000  0.4534050000000  0.5072750000000 1.0
C      1  0.5888900000000  0.5454740000000  0.5072750000000 1.0
C      1  0.4114120000000  0.5454740000000  0.4930700000000 1.0
C      1  0.5594140000000  0.5836190000000  0.5186710000000 1.0
C      1  0.4408880000000  0.5836200000000  0.4816740000000 1.0
C      1  0.5594140000000  0.4152600000000  0.4816740000000 1.0
C      1  0.4408880000000  0.4152600000000  0.5186710000000 1.0
C      1  0.5897480000000  0.4803410000000  0.4174030000000 1.0
C      1  0.4105540000000  0.4803410000000  0.5829430000000 1.0
C      1  0.5897480000000  0.5185380000000  0.5829420000000 1.0
C      1  0.4105540000000  0.5185380000000  0.4174030000000 1.0
C      1  0.5921780000000  0.4960670000000  0.6015660000000 1.0
C      1  0.4081240000000  0.4960670000000  0.3987790000000 1.0
C      1  0.5921780000000  0.5028120000000  0.3987790000000 1.0
C      1  0.4081240000000  0.5028120000000  0.6015660000000 1.0
C      1  0.5521490000000  0.4467260000000  0.4204450000000 1.0
C      1  0.4481540000000  0.4467260000000  0.5799000000000 1.0
C      1  0.5521490000000  0.5521530000000  0.5799000000000 1.0
C      1  0.4481540000000  0.5521530000000  0.4204450000000 1.0
C      1  0.5269390000000  0.4834460000000  0.3903920000000 1.0
C      1  0.4733630000000  0.4834460000000  0.6099540000000 1.0
C      1  0.5269390000000  0.5154330000000  0.6099540000000 1.0
C      1  0.4733630000000  0.5154330000000  0.3903920000000 1.0
C      1  0.4905910000000  0.5673440000000  0.3994980000000 1.0
C      1  0.5097120000000  0.5673440000000  0.6008470000000 1.0
C      1  0.4905910000000  0.4315350000000  0.6008470000000 1.0
C      1  0.5097110000000  0.4315350000000  0.3994980000000 1.0
C      1  0.5325190000000  0.5436930000000  0.4271520000000 1.0
C      1  0.4677840000000  0.5436930000000  0.5731930000000 1.0
C      1  0.5325190000000  0.4551860000000  0.5731930000000 1.0
C      1  0.4677840000000  0.4551860000000  0.4271520000000 1.0
C      1  0.5732780000000  0.5749660000000  0.4702030000000 1.0
C      1  0.4270240000000  0.5749660000000  0.5301420000000 1.0
C      1  0.5732780000000  0.4239130000000  0.5301420000000 1.0
C      1  0.4270240000000  0.4239130000000  0.4702030000000 1.0
C      1  0.4928180000000  0.5814950000000  0.4473850000000 1.0
C      1  0.5074840000000  0.5814950000000  0.5529600000000 1.0
C      1  0.4928180000000  0.4173850000000  0.5529600000000 1.0
C      1  0.5074840000000  0.4173850000000  0.4473850000000 1.0
C      1  0.5782580000000  0.4604730000000  0.5688930000000 1.0
C      1  0.4220440000000  0.4604730000000  0.4314520000000 1.0
C      1  0.5782580000000  0.5384060000000  0.4314520000000 1.0
C      1  0.4220440000000  0.5384060000000  0.5688930000000 1.0
C      1  0.5779110000000  0.4281690000000  0.5010420000000 1.0
C      1  0.4223910000000  0.4281690000000  0.4993030000000 1.0
C      1  0.5779110000000  0.5707100000000  0.4993030000000 1.0
C      1  0.4223910000000  0.5707110000000  0.5010420000000 1.0
C      1  0.5480180000000  0.5844420000000  0.4588970000000 1.0
C      1  0.4522840000000  0.5844420000000  0.5414480000000 1.0
C      1  0.5480180000000  0.4144370000000  0.5414480000000 1.0
C      1  0.4522840000000  0.4144370000000  0.4588970000000 1.0
C      1  0.4509510000000  0.5328600000000  0.6023760000000 1.0
C      1  0.5493510000000  0.5328600000000  0.3979700000000 1.0
C      1  0.4509510000000  0.4660190000000  0.3979700000000 1.0
C      1  0.5493510000000  0.4660190000000  0.6023750000000 1.0
C      1  0.5257750000000  0.4869130000000  0.5998670000000 1.0
C      1  0.4745270000000  0.4869130000000  0.4004780000000 1.0
C      1  0.5257750000000  0.5119660000000  0.4004780000000 1.0
C      1  0.4745270000000  0.5119660000000  0.5998670000000 1.0
C      1  0.5522700000000  0.5283860000000  0.5242460000000 1.0
C      1  0.4480330000000  0.5283860000000  0.4760990000000 1.0
C      1  0.5522700000000  0.4704930000000  0.4760990000000 1.0
C      1  0.4480330000000  0.4704930000000  0.5242460000000 1.0
C      1  0.5528000000000  0.5688020000000  0.5488710000000 1.0
C      1  0.4475030000000  0.5688020000000  0.4514750000000 1.0
C      1  0.5527990000000  0.4300770000000  0.4514750000000 1.0
C      1  0.4475030000000  0.4300770000000  0.5488710000000 1.0
C      1  0.4767890000000  0.5648480000000  0.5009140000000 1.0
C      1  0.5235130000000  0.5648480000000  0.4994310000000 1.0
C      1  0.4767890000000  0.4340310000000  0.4994310000000 1.0
C      1  0.5235130000000  0.4340310000000  0.5009140000000 1.0
C      1  0.5001510000000  0.4129620000000  0.5001730000000 1.0
C      1  0.5001510000000  0.5859170000000  0.5001730000000 1.0
C      1  0.5001510000000  0.4994400000000  0.5001730000000 1.0
END
