TITL C-862506-1665-1454 0.0010391871054046 125000 -189.194936843443 0 0 34 (C1) n - 1
REM
REM in /home/nfs/bkarasulu/CARBON/AIRSS/Generating-Clusters/TERSOFF/Higher-Symm/FIRE-HFTN
REM
REM
REM
REM
REM
REM ./C.cell (b20cbc046b6831c77cfcea5457e17084)
REM AIRSS Version 0.9.1 bugfix July 2018 build 013d7b7c2542+ Fri, 06 Jul 2018 19:26:36 +0100
REM compiler GCC version 9.2.1 20190827 (Red Hat 9.2.1-1)
REM options -cpp -mtune=generic -march=x86-64 -g -O0 -fpre-include=/usr/include/finclude/math-vector-fortran.h
REM seed -267541927 1929590167 1936236747 1457207252 543236198 1215342042 1165160511 -548005988 1087584503 372133298 -1965430022 -484648679 -2137513847 1909783320 -853151298 -1722488391 471498574 2044181797 -1091827498 -1373826483 -951498212 -1800221617 145920418 -1524690620 40645701 580846451 432704191 -1841521023 351749205 215823535 647492682 2064798308 1167776114
REM
CELL 1.54180   50.00000   50.00000   50.00000   90.00000   90.00000   90.00000
LATT -1
SFAC C  
C      1  0.5145860000000  0.5595650000000  0.4948970000000 1.0
C      1  0.4850280000000  0.4408740000000  0.4960220000000 1.0
C      1  0.5135250000000  0.4405460000000  0.4945860000000 1.0
C      1  0.4860830000000  0.5596640000000  0.4957730000000 1.0
C      1  0.4803460000000  0.5162850000000  0.4513910000000 1.0
C      1  0.5203510000000  0.4838640000000  0.4514300000000 1.0
C      1  0.4879110000000  0.4812570000000  0.4522030000000 1.0
C      1  0.5126960000000  0.5185140000000  0.4520810000000 1.0
C      1  0.4739310000000  0.4862430000000  0.4800050000000 1.0
C      1  0.5262600000000  0.5139830000000  0.4800660000000 1.0
C      1  0.4652910000000  0.5162180000000  0.4810720000000 1.0
C      1  0.5352660000000  0.4839670000000  0.4813110000000 1.0
C      1  0.5107690000000  0.4648980000000  0.5486580000000 1.0
C      1  0.4886600000000  0.5206200000000  0.5474030000000 1.0
C      1  0.5150800000000  0.5329850000000  0.5480110000000 1.0
C      1  0.4851510000000  0.4787760000000  0.5471980000000 1.0
C      1  0.5357950000000  0.5292150000000  0.5276640000000 1.0
C      1  0.4638460000000  0.4727850000000  0.5279540000000 1.0
C      1  0.5332290000000  0.4690930000000  0.5302440000000 1.0
C      1  0.4662930000000  0.5292170000000  0.5303500000000 1.0
C      1  0.5293600000000  0.4637170000000  0.5018320000000 1.0
C      1  0.4709350000000  0.5358350000000  0.5022840000000 1.0
C      1  0.5293130000000  0.5352300000000  0.4999920000000 1.0
C      1  0.4707990000000  0.4656010000000  0.5006030000000 1.0
C      1  0.4390560000000  0.5270000000000  0.5402340000000 1.0
C      1  0.5599900000000  0.4733590000000  0.5407520000000 1.0
C      1  0.4360520000000  0.4767090000000  0.5354940000000 1.0
C      1  0.5632800000000  0.5240600000000  0.5354710000000 1.0
C      1  0.4661050000000  0.5279170000000  0.4287330000000 1.0
C      1  0.5347180000000  0.4722280000000  0.4288580000000 1.0
C      1  0.4751880000000  0.4628660000000  0.4334440000000 1.0
C      1  0.5255520000000  0.5368120000000  0.4333120000000 1.0
C      1  0.4245840000000  0.5022460000000  0.5419940000000 1.0
C      1  0.5749710000000  0.4978550000000  0.5381600000000 1.0
END
