TITL C-862506-1665-1320 0.000240900061301516 125000 -963.468560593411 0 0 159 (C2v) n - 1
REM
REM in /home/nfs/bkarasulu/CARBON/AIRSS/Generating-Clusters/TERSOFF/Higher-Symm/FIRE-HFTN
REM
REM
REM
REM
REM
REM ./C.cell (b20cbc046b6831c77cfcea5457e17084)
REM AIRSS Version 0.9.1 bugfix July 2018 build 013d7b7c2542+ Fri, 06 Jul 2018 19:26:36 +0100
REM compiler GCC version 9.2.1 20190827 (Red Hat 9.2.1-1)
REM options -cpp -mtune=generic -march=x86-64 -g -O0 -fpre-include=/usr/include/finclude/math-vector-fortran.h
REM seed -406155436 -1984098372 -1121191996 -54815822 -751065353 1149953254 1935425941 -1123642734 -82280649 -1922329395 -1822865050 1826535716 1969411922 816383367 1752575359 -773610765 88562659 393559346 -1345988564 1509297899 -1497114362 -1539738964 2144134018 -451850717 -2051926945 -1483473947 1172139745 -1038130634 -299662333 -555392191 1818398073 -1521267223 -665416098
REM
CELL 1.54180   50.00000   50.00000   50.00000   90.00000   90.00000   90.00000
LATT -1
SFAC C  
C      1  0.5147470000000  0.4668210000000  0.5979910000000 1.0
C      1  0.4858250000000  0.4668220000000  0.4022330000000 1.0
C      1  0.4858250000000  0.4668210000000  0.5979910000000 1.0
C      1  0.5147470000000  0.4668220000000  0.4022330000000 1.0
C      1  0.4594530000000  0.5303150000000  0.5298330000000 1.0
C      1  0.5411170000000  0.5303160000000  0.4703910000000 1.0
C      1  0.5411170000000  0.5303150000000  0.5298330000000 1.0
C      1  0.4594530000000  0.5303150000000  0.4703910000000 1.0
C      1  0.4861370000000  0.4543910000000  0.4500180000000 1.0
C      1  0.5144350000000  0.4543910000000  0.5502050000000 1.0
C      1  0.5144350000000  0.4543910000000  0.4500180000000 1.0
C      1  0.4861370000000  0.4543910000000  0.5502050000000 1.0
C      1  0.4788880000000  0.4463290000000  0.5225200000000 1.0
C      1  0.5216840000000  0.4463300000000  0.4777040000000 1.0
C      1  0.5216840000000  0.4463290000000  0.5225200000000 1.0
C      1  0.4788880000000  0.4463290000000  0.4777040000000 1.0
C      1  0.4197430000000  0.4126250000000  0.5160150000000 1.0
C      1  0.5808290000000  0.4126260000000  0.4842080000000 1.0
C      1  0.5808290000000  0.4126260000000  0.5160150000000 1.0
C      1  0.4197430000000  0.4126250000000  0.4842080000000 1.0
C      1  0.4846720000000  0.4999430000000  0.5492140000000 1.0
C      1  0.5158990000000  0.4999430000000  0.4510100000000 1.0
C      1  0.5158990000000  0.4999430000000  0.5492140000000 1.0
C      1  0.4846720000000  0.4999430000000  0.4510100000000 1.0
C      1  0.4738250000000  0.5510570000000  0.4853070000000 1.0
C      1  0.5267460000000  0.5510580000000  0.5149170000000 1.0
C      1  0.5267460000000  0.5510580000000  0.4853070000000 1.0
C      1  0.4738250000000  0.5510570000000  0.5149170000000 1.0
C      1  0.5838740000000  0.5021970000000  0.5307890000000 1.0
C      1  0.4166970000000  0.5021960000000  0.4694360000000 1.0
C      1  0.4166970000000  0.5021960000000  0.5307880000000 1.0
C      1  0.5838740000000  0.5021970000000  0.4694360000000 1.0
C      1  0.5262340000000  0.5490130000000  0.5729580000000 1.0
C      1  0.4743360000000  0.5490140000000  0.4272670000000 1.0
C      1  0.4743360000000  0.5490130000000  0.5729580000000 1.0
C      1  0.5262340000000  0.5490140000000  0.4272670000000 1.0
C      1  0.5575090000000  0.5836040000000  0.5572710000000 1.0
C      1  0.4430610000000  0.5836040000000  0.4429540000000 1.0
C      1  0.4430610000000  0.5836040000000  0.5572710000000 1.0
C      1  0.5575090000000  0.5836050000000  0.4429540000000 1.0
C      1  0.5565780000000  0.4934040000000  0.4056530000000 1.0
C      1  0.4439930000000  0.4934020000000  0.5945710000000 1.0
C      1  0.4439930000000  0.4934030000000  0.4056530000000 1.0
C      1  0.5565780000000  0.4934030000000  0.5945710000000 1.0
C      1  0.4083750000000  0.5464110000000  0.4450530000000 1.0
C      1  0.5921950000000  0.5464110000000  0.5551710000000 1.0
C      1  0.5921950000000  0.5464120000000  0.4450530000000 1.0
C      1  0.4083750000000  0.5464100000000  0.5551710000000 1.0
C      1  0.5143440000000  0.5490040000000  0.5990320000000 1.0
C      1  0.4862270000000  0.5490050000000  0.4011920000000 1.0
C      1  0.4862270000000  0.5490040000000  0.5990320000000 1.0
C      1  0.5143440000000  0.5490050000000  0.4011920000000 1.0
C      1  0.5880430000000  0.4485720000000  0.4454570000000 1.0
C      1  0.4125290000000  0.4485700000000  0.5547670000000 1.0
C      1  0.4125290000000  0.4485710000000  0.4454570000000 1.0
C      1  0.5880430000000  0.4485710000000  0.5547670000000 1.0
C      1  0.5586640000000  0.4664340000000  0.5151720000000 1.0
C      1  0.4419070000000  0.4664330000000  0.4850520000000 1.0
C      1  0.4419070000000  0.4664330000000  0.5151720000000 1.0
C      1  0.5586640000000  0.4664340000000  0.4850520000000 1.0
C      1  0.6105740000000  0.5098960000000  0.4844530000000 1.0
C      1  0.3899960000000  0.5098940000000  0.5157720000000 1.0
C      1  0.3899960000000  0.5098950000000  0.4844530000000 1.0
C      1  0.6105740000000  0.5098960000000  0.5157720000000 1.0
C      1  0.5291330000000  0.4175620000000  0.4826510000000 1.0
C      1  0.4714390000000  0.4175620000000  0.5175730000000 1.0
C      1  0.4714390000000  0.4175620000000  0.4826510000000 1.0
C      1  0.5291330000000  0.4175620000000  0.5175730000000 1.0
C      1  0.4857790000000  0.5121670000000  0.3810430000000 1.0
C      1  0.5147920000000  0.5121660000000  0.6191820000000 1.0
C      1  0.5147920000000  0.5121670000000  0.3810430000000 1.0
C      1  0.4857790000000  0.5121660000000  0.6191820000000 1.0
C      1  0.4175100000000  0.5177390000000  0.5569020000000 1.0
C      1  0.5830610000000  0.5177400000000  0.4433220000000 1.0
C      1  0.5830610000000  0.5177400000000  0.5569020000000 1.0
C      1  0.4175100000000  0.5177390000000  0.4433220000000 1.0
C      1  0.5670470000000  0.4277110000000  0.5589300000000 1.0
C      1  0.4335250000000  0.4277100000000  0.4412930000000 1.0
C      1  0.4335250000000  0.4277100000000  0.5589300000000 1.0
C      1  0.5670470000000  0.4277110000000  0.4412930000000 1.0
C      1  0.4228750000000  0.5668500000000  0.5702380000000 1.0
C      1  0.5776950000000  0.5668520000000  0.4299870000000 1.0
C      1  0.5776950000000  0.5668510000000  0.5702380000000 1.0
C      1  0.4228750000000  0.5668510000000  0.4299860000000 1.0
C      1  0.5358930000000  0.5945960000000  0.5147640000000 1.0
C      1  0.4646770000000  0.5945960000000  0.4854610000000 1.0
C      1  0.4646770000000  0.5945960000000  0.5147640000000 1.0
C      1  0.5358930000000  0.5945970000000  0.4854610000000 1.0
C      1  0.5297320000000  0.5735930000000  0.4421940000000 1.0
C      1  0.4708380000000  0.5735920000000  0.5580310000000 1.0
C      1  0.4708380000000  0.5735930000000  0.4421940000000 1.0
C      1  0.5297320000000  0.5735930000000  0.5580310000000 1.0
C      1  0.5586880000000  0.5131880000000  0.5726810000000 1.0
C      1  0.4418830000000  0.5131880000000  0.4275440000000 1.0
C      1  0.4418830000000  0.5131870000000  0.5726810000000 1.0
C      1  0.5586880000000  0.5131880000000  0.4275440000000 1.0
C      1  0.5563460000000  0.5083550000000  0.5154840000000 1.0
C      1  0.4442250000000  0.5083550000000  0.4847400000000 1.0
C      1  0.4442250000000  0.5083550000000  0.5154840000000 1.0
C      1  0.5563460000000  0.5083560000000  0.4847400000000 1.0
C      1  0.4708030000000  0.4902600000000  0.3929640000000 1.0
C      1  0.5297680000000  0.4902590000000  0.6072600000000 1.0
C      1  0.5297680000000  0.4902600000000  0.3929650000000 1.0
C      1  0.4708030000000  0.4902580000000  0.6072600000000 1.0
C      1  0.4311970000000  0.4670860000000  0.5907690000000 1.0
C      1  0.5693750000000  0.4670880000000  0.4094550000000 1.0
C      1  0.5693750000000  0.4670870000000  0.5907690000000 1.0
C      1  0.4311970000000  0.4670870000000  0.4094550000000 1.0
C      1  0.6004480000000  0.5575530000000  0.4710160000000 1.0
C      1  0.4001230000000  0.5575510000000  0.5292090000000 1.0
C      1  0.4001230000000  0.5575520000000  0.4710160000000 1.0
C      1  0.6004480000000  0.5575530000000  0.5292090000000 1.0
C      1  0.4379030000000  0.5921030000000  0.5290880000000 1.0
C      1  0.5626670000000  0.5921040000000  0.4711370000000 1.0
C      1  0.5626670000000  0.5921040000000  0.5290880000000 1.0
C      1  0.4379030000000  0.5921030000000  0.4711370000000 1.0
C      1  0.5540250000000  0.4448320000000  0.5791130000000 1.0
C      1  0.4465470000000  0.4448320000000  0.4211110000000 1.0
C      1  0.4465470000000  0.4448310000000  0.5791130000000 1.0
C      1  0.5540250000000  0.4448330000000  0.4211110000000 1.0
C      1  0.4440570000000  0.4127390000000  0.5327860000000 1.0
C      1  0.5565150000000  0.4127410000000  0.4674370000000 1.0
C      1  0.5565150000000  0.4127400000000  0.5327860000000 1.0
C      1  0.4440570000000  0.4127400000000  0.4674370000000 1.0
C      1  0.5850450000000  0.5782960000000  0.4854900000000 1.0
C      1  0.4155250000000  0.5782950000000  0.5147350000000 1.0
C      1  0.4155250000000  0.5782950000000  0.4854900000000 1.0
C      1  0.5850450000000  0.5782960000000  0.5147350000000 1.0
C      1  0.4126900000000  0.4660600000000  0.5302040000000 1.0
C      1  0.5878820000000  0.4660620000000  0.4700200000000 1.0
C      1  0.5878820000000  0.4660610000000  0.5302040000000 1.0
C      1  0.4126900000000  0.4660600000000  0.4700200000000 1.0
C      1  0.5157620000000  0.5755630000000  0.4699800000000 1.0
C      1  0.4848080000000  0.5755620000000  0.5302450000000 1.0
C      1  0.4848080000000  0.5755620000000  0.4699800000000 1.0
C      1  0.5157620000000  0.5755620000000  0.5302450000000 1.0
C      1  0.4737540000000  0.4514010000000  0.5764600000000 1.0
C      1  0.5268180000000  0.4514030000000  0.4237640000000 1.0
C      1  0.5268180000000  0.4514020000000  0.5764600000000 1.0
C      1  0.4737540000000  0.4514020000000  0.4237640000000 1.0
C      1  0.4663470000000  0.5240960000000  0.5597270000000 1.0
C      1  0.5342240000000  0.5240970000000  0.4404980000000 1.0
C      1  0.5342240000000  0.5240960000000  0.5597270000000 1.0
C      1  0.4663470000000  0.5240960000000  0.4404980000000 1.0
C      1  0.6148430000000  0.4780620000000  0.5158940000000 1.0
C      1  0.3857280000000  0.4780600000000  0.4843300000000 1.0
C      1  0.3857280000000  0.4780600000000  0.5158940000000 1.0
C      1  0.6148430000000  0.4780620000000  0.4843300000000 1.0
C      1  0.5351830000000  0.4858000000000  0.4733640000000 1.0
C      1  0.4653880000000  0.4858000000000  0.5268600000000 1.0
C      1  0.4653880000000  0.4858000000000  0.4733640000000 1.0
C      1  0.5351830000000  0.4858000000000  0.5268600000000 1.0
C      1  0.5982110000000  0.4395090000000  0.5150540000000 1.0
C      1  0.4023610000000  0.4395080000000  0.4851690000000 1.0
C      1  0.4023610000000  0.4395070000000  0.5150540000000 1.0
C      1  0.5982110000000  0.4395090000000  0.4851700000000 1.0
C      1  0.5002860000000  0.4042530000000  0.5251340000000 1.0
C      1  0.5002860000000  0.4042530000000  0.4750890000000 1.0
C      1  0.5002860000000  0.4576150000000  0.5001120000000 1.0
END
