TITL C-862129-6180-1144 59.3182966243289 125000 -807.684932591394 0 0 136 (C1) n - 1
REM
REM in /home/nfs/bkarasulu/CARBON/AIRSS/Generating-Clusters/TERSOFF/Higher-Symm/FIRE-HFTN
REM
REM
REM
REM
REM
REM ./C.cell (b20cbc046b6831c77cfcea5457e17084)
REM AIRSS Version 0.9.1 bugfix July 2018 build 013d7b7c2542+ Fri, 06 Jul 2018 19:26:36 +0100
REM compiler GCC version 9.2.1 20190827 (Red Hat 9.2.1-1)
REM options -cpp -mtune=generic -march=x86-64 -g -O0 -fpre-include=/usr/include/finclude/math-vector-fortran.h
REM seed 1326903632 433479608 2069436891 -548687962 -1772359175 550125115 501593982 1229385929 1607757797 -434288655 -1793077380 612221384 955167233 -1103552249 -7211464 1385929555 -1194354172 -442738303 -1272124005 1080969890 1417611109 1265779066 -1734885477 1520095214 398420019 -974024733 -15373792 -785517878 -67201115 -108672378 -307700054 1636914874 1116006857
REM
CELL 1.54180   50.00000   50.00000   50.00000   90.00000   90.00000   90.00000
LATT -1
SFAC C  
C      1  0.5539430000000  0.4796310000000  0.5089040000000 1.0
C      1  0.5459610000000  0.4313100000000  0.5128210000000 1.0
C      1  0.5078520000000  0.4688550000000  0.4638840000000 1.0
C      1  0.5055730000000  0.4921000000000  0.5759440000000 1.0
C      1  0.5052930000000  0.5205420000000  0.5775600000000 1.0
C      1  0.5239680000000  0.5610940000000  0.5568880000000 1.0
C      1  0.4782970000000  0.4692890000000  0.5041020000000 1.0
C      1  0.5127420000000  0.5877130000000  0.5605590000000 1.0
C      1  0.6074150000000  0.4976670000000  0.5268460000000 1.0
C      1  0.4913570000000  0.5074320000000  0.4658070000000 1.0
C      1  0.4783040000000  0.4688400000000  0.4556030000000 1.0
C      1  0.5358100000000  0.5261110000000  0.3974370000000 1.0
C      1  0.4467260000000  0.4378630000000  0.4703550000000 1.0
C      1  0.4579530000000  0.5439980000000  0.4491510000000 1.0
C      1  0.4506150000000  0.5205530000000  0.4334460000000 1.0
C      1  0.5085140000000  0.5368800000000  0.5543970000000 1.0
C      1  0.5160840000000  0.4320280000000  0.3983430000000 1.0
C      1  0.5360120000000  0.5555870000000  0.4744590000000 1.0
C      1  0.4762120000000  0.4798300000000  0.5331800000000 1.0
C      1  0.6118560000000  0.4653600000000  0.4871570000000 1.0
C      1  0.5101570000000  0.4834900000000  0.4245870000000 1.0
C      1  0.5598530000000  0.4177840000000  0.4880380000000 1.0
C      1  0.5792400000000  0.5272710000000  0.5771050000000 1.0
C      1  0.4467660000000  0.4766500000000  0.5972250000000 1.0
C      1  0.4600680000000  0.5811020000000  0.5739780000000 1.0
C      1  0.6121140000000  0.5408910000000  0.4844740000000 1.0
C      1  0.4830710000000  0.5876130000000  0.5237600000000 1.0
C      1  0.4279050000000  0.4787030000000  0.4208080000000 1.0
C      1  0.4828570000000  0.5595460000000  0.4460630000000 1.0
C      1  0.4302500000000  0.5459000000000  0.5181300000000 1.0
C      1  0.5778790000000  0.5321400000000  0.4408380000000 1.0
C      1  0.4604330000000  0.4182770000000  0.5332300000000 1.0
C      1  0.4249040000000  0.4662760000000  0.5801170000000 1.0
C      1  0.4514500000000  0.5523660000000  0.5764980000000 1.0
C      1  0.5326350000000  0.4789500000000  0.4074600000000 1.0
C      1  0.5542770000000  0.4595440000000  0.5546610000000 1.0
C      1  0.4620790000000  0.5330470000000  0.5968910000000 1.0
C      1  0.5231020000000  0.4422120000000  0.4676810000000 1.0
C      1  0.4296770000000  0.4497980000000  0.4230330000000 1.0
C      1  0.4081770000000  0.4885330000000  0.5692140000000 1.0
C      1  0.4537370000000  0.4946120000000  0.5426790000000 1.0
C      1  0.5068370000000  0.5481030000000  0.4332780000000 1.0
C      1  0.4793100000000  0.6225110000000  0.5569640000000 1.0
C      1  0.4555050000000  0.4114720000000  0.4856990000000 1.0
C      1  0.5510850000000  0.5014280000000  0.4040140000000 1.0
C      1  0.5563080000000  0.5495110000000  0.4303330000000 1.0
C      1  0.3873840000000  0.5348890000000  0.5388030000000 1.0
C      1  0.6013870000000  0.4542760000000  0.4619480000000 1.0
C      1  0.4078450000000  0.4590400000000  0.5025950000000 1.0
C      1  0.5342510000000  0.6042530000000  0.4658950000000 1.0
C      1  0.6141620000000  0.5466390000000  0.5138190000000 1.0
C      1  0.5596510000000  0.4544630000000  0.5252850000000 1.0
C      1  0.4828440000000  0.5924120000000  0.5545690000000 1.0
C      1  0.4861870000000  0.5129220000000  0.3983640000000 1.0
C      1  0.4642530000000  0.5402370000000  0.5208730000000 1.0
C      1  0.4159580000000  0.5336530000000  0.4958030000000 1.0
C      1  0.4375840000000  0.4880160000000  0.4733230000000 1.0
C      1  0.4488160000000  0.4356390000000  0.4398530000000 1.0
C      1  0.4773710000000  0.4620610000000  0.3912950000000 1.0
C      1  0.4684720000000  0.5208490000000  0.4983630000000 1.0
C      1  0.4689410000000  0.4771560000000  0.4295650000000 1.0
C      1  0.4581400000000  0.5164950000000  0.4051480000000 1.0
C      1  0.3873920000000  0.5086700000000  0.5264740000000 1.0
C      1  0.4431400000000  0.5801560000000  0.4949730000000 1.0
C      1  0.5395300000000  0.5041460000000  0.5177560000000 1.0
C      1  0.5224340000000  0.4438450000000  0.4975520000000 1.0
C      1  0.5539720000000  0.4361360000000  0.4643390000000 1.0
C      1  0.5714650000000  0.5019520000000  0.4261120000000 1.0
C      1  0.4495280000000  0.5152310000000  0.4785650000000 1.0
C      1  0.5326200000000  0.4098650000000  0.5293200000000 1.0
C      1  0.3934230000000  0.4853880000000  0.5434920000000 1.0
C      1  0.4131830000000  0.5477600000000  0.5425950000000 1.0
C      1  0.5896790000000  0.4528720000000  0.5288670000000 1.0
C      1  0.4857020000000  0.5856350000000  0.4606220000000 1.0
C      1  0.4006160000000  0.5090880000000  0.4997230000000 1.0
C      1  0.5733820000000  0.4555360000000  0.4534840000000 1.0
C      1  0.4551680000000  0.4302260000000  0.5598600000000 1.0
C      1  0.5366180000000  0.4524600000000  0.3964640000000 1.0
C      1  0.5324210000000  0.5540500000000  0.4454180000000 1.0
C      1  0.5727390000000  0.4995180000000  0.5836610000000 1.0
C      1  0.5555700000000  0.5880830000000  0.4536740000000 1.0
C      1  0.4288430000000  0.4411930000000  0.5660310000000 1.0
C      1  0.5289640000000  0.6094430000000  0.5495940000000 1.0
C      1  0.6095060000000  0.5260080000000  0.5351490000000 1.0
C      1  0.4392390000000  0.4940380000000  0.3974610000000 1.0
C      1  0.4978800000000  0.4904660000000  0.4909240000000 1.0
C      1  0.5038140000000  0.4484300000000  0.5605330000000 1.0
C      1  0.4880690000000  0.4382310000000  0.4045200000000 1.0
C      1  0.4965780000000  0.4784570000000  0.5998480000000 1.0
C      1  0.4311120000000  0.5655740000000  0.4731050000000 1.0
C      1  0.4430840000000  0.5082720000000  0.6000790000000 1.0
C      1  0.4961590000000  0.5286340000000  0.5289680000000 1.0
C      1  0.5089050000000  0.5938840000000  0.4780080000000 1.0
C      1  0.5768770000000  0.4769430000000  0.5659620000000 1.0
C      1  0.4961080000000  0.4453510000000  0.5092370000000 1.0
C      1  0.5611080000000  0.5486060000000  0.5849810000000 1.0
C      1  0.4902760000000  0.4071340000000  0.4446010000000 1.0
C      1  0.5807580000000  0.5800620000000  0.4667160000000 1.0
C      1  0.5068630000000  0.3991260000000  0.5178000000000 1.0
C      1  0.4125240000000  0.4845350000000  0.4889180000000 1.0
C      1  0.5080200000000  0.5317190000000  0.4074190000000 1.0
C      1  0.4218900000000  0.4354220000000  0.4931160000000 1.0
C      1  0.4748100000000  0.4258150000000  0.4285330000000 1.0
C      1  0.5626860000000  0.4816490000000  0.4473000000000 1.0
C      1  0.5569980000000  0.5404250000000  0.4883990000000 1.0
C      1  0.5991850000000  0.5146190000000  0.4810050000000 1.0
C      1  0.4388510000000  0.4127850000000  0.5129950000000 1.0
C      1  0.6038660000000  0.5337130000000  0.5626730000000 1.0
C      1  0.6057110000000  0.4921890000000  0.4980510000000 1.0
C      1  0.5553670000000  0.4969150000000  0.4697490000000 1.0
C      1  0.4784010000000  0.4406180000000  0.5759590000000 1.0
C      1  0.5249930000000  0.6152160000000  0.5217250000000 1.0
C      1  0.5047860000000  0.6000880000000  0.5070220000000 1.0
C      1  0.4188960000000  0.5151140000000  0.5816870000000 1.0
C      1  0.4345100000000  0.4970220000000  0.4438280000000 1.0
C      1  0.3960140000000  0.4602480000000  0.5290100000000 1.0
C      1  0.5452510000000  0.3918360000000  0.4857960000000 1.0
C      1  0.4584520000000  0.4657180000000  0.4778220000000 1.0
C      1  0.5946750000000  0.5543310000000  0.4620270000000 1.0
C      1  0.5156130000000  0.3941810000000  0.4881600000000 1.0
C      1  0.5065400000000  0.5068700000000  0.4412440000000 1.0
C      1  0.6001710000000  0.4755180000000  0.5454130000000 1.0
C      1  0.5108170000000  0.5066420000000  0.5131480000000 1.0
C      1  0.4901760000000  0.5307640000000  0.5993460000000 1.0
C      1  0.5526730000000  0.5298770000000  0.5149330000000 1.0
C      1  0.4642190000000  0.5698690000000  0.5122120000000 1.0
C      1  0.4926250000000  0.4868400000000  0.3865690000000 1.0
C      1  0.4729490000000  0.4620700000000  0.5973830000000 1.0
C      1  0.4994790000000  0.4759200000000  0.5508880000000 1.0
C      1  0.5072410000000  0.4146200000000  0.4670350000000 1.0
C      1  0.4248550000000  0.5417410000000  0.5680670000000 1.0
C      1  0.4869060000000  0.4210390000000  0.5214070000000 1.0
C      1  0.5321660000000  0.4457960000000  0.5689650000000 1.0
C      1  0.4537670000000  0.5228770000000  0.5442040000000 1.0
C      1  0.5713390000000  0.5207760000000  0.4716230000000 1.0
C      1  0.4464440000000  0.6007410000000  0.5907940000000 1.0
END
