TITL C-862130-1496-1277 -0.00207415840397257 125000 -147.228662556514 0 0 28 (C2v) n - 1
REM
REM in /home/nfs/bkarasulu/CARBON/AIRSS/Generating-Clusters/TERSOFF/Higher-Symm/FIRE-HFTN
REM
REM
REM
REM
REM
REM ./C.cell (b20cbc046b6831c77cfcea5457e17084)
REM AIRSS Version 0.9.1 bugfix July 2018 build 013d7b7c2542+ Fri, 06 Jul 2018 19:26:36 +0100
REM compiler GCC version 9.2.1 20190827 (Red Hat 9.2.1-1)
REM options -cpp -mtune=generic -march=x86-64 -g -O0 -fpre-include=/usr/include/finclude/math-vector-fortran.h
REM seed -463482375 -916097078 1869363320 -171310822 1301143931 -1285793615 -821668633 151516384 -634899769 1894570355 194421682 65665213 242021819 -1696161799 -791421335 -1940709126 -1970898317 1621803830 1102918356 -974081073 709319917 1714141627 -251616867 -1110368198 1343528253 1642087926 1602072267 152968955 741323976 -2004481717 -126098724 910631997 620830667
REM
CELL 1.54180   50.00000   50.00000   50.00000   90.00000   90.00000   90.00000
LATT -1
SFAC C  
C      1  0.5407990000000  0.5136170000000  0.4688560000000 1.0
C      1  0.4994090000000  0.5442630000000  0.4715890000000 1.0
C      1  0.4574350000000  0.5137580000000  0.4726350000000 1.0
C      1  0.4734080000000  0.4643850000000  0.4717680000000 1.0
C      1  0.5249030000000  0.4647840000000  0.4689650000000 1.0
C      1  0.4574670000000  0.5138690000000  0.5270770000000 1.0
C      1  0.4994420000000  0.5443780000000  0.5279490000000 1.0
C      1  0.5408350000000  0.5137430000000  0.5307590000000 1.0
C      1  0.5249390000000  0.4649100000000  0.5308680000000 1.0
C      1  0.4734410000000  0.4645000000000  0.5281280000000 1.0
C      1  0.5245400000000  0.5360400000000  0.5417700000000 1.0
C      1  0.4731100000000  0.5361530000000  0.5394980000000 1.0
C      1  0.4570110000000  0.4866970000000  0.5396080000000 1.0
C      1  0.4986560000000  0.4565230000000  0.5419480000000 1.0
C      1  0.5395150000000  0.4871990000000  0.5439880000000 1.0
C      1  0.4730630000000  0.5359910000000  0.4601050000000 1.0
C      1  0.5244910000000  0.5358680000000  0.4577730000000 1.0
C      1  0.5394640000000  0.4870180000000  0.4557380000000 1.0
C      1  0.4986070000000  0.4563510000000  0.4579510000000 1.0
C      1  0.4569640000000  0.4865350000000  0.4602150000000 1.0
C      1  0.5242680000000  0.4700470000000  0.4999060000000 1.0
C      1  0.5372280000000  0.5098610000000  0.4998180000000 1.0
C      1  0.4686380000000  0.5101720000000  0.4998570000000 1.0
C      1  0.5030350000000  0.5339950000000  0.4997880000000 1.0
C      1  0.4824190000000  0.4706660000000  0.4999300000000 1.0
C      1  0.5011290000000  0.4995230000000  0.4674880000000 1.0
C      1  0.5011670000000  0.4996550000000  0.5322310000000 1.0
C      1  0.5028700000000  0.4990290000000  0.4998600000000 1.0
END
