TITL C-862127-1500-487 24.1900220296397 125000 -163.199575472296 0 0 31 (C1) n - 1
REM
REM in /home/nfs/bkarasulu/CARBON/AIRSS/Generating-Clusters/TERSOFF/Higher-Symm/FIRE-HFTN
REM
REM
REM
REM
REM
REM ./C.cell (b20cbc046b6831c77cfcea5457e17084)
REM AIRSS Version 0.9.1 bugfix July 2018 build 013d7b7c2542+ Fri, 06 Jul 2018 19:26:36 +0100
REM compiler GCC version 9.2.1 20190827 (Red Hat 9.2.1-1)
REM options -cpp -mtune=generic -march=x86-64 -g -O0 -fpre-include=/usr/include/finclude/math-vector-fortran.h
REM seed 1297289681 -1007601596 -1890506214 -1982035557 872957597 2034992972 1608586769 -1842785930 -1652057034 1155273148 -675309083 -405694863 2021570693 1552004063 492202832 626571951 -1893498213 -1477156980 -1768923661 853775440 -1380065177 -1464484475 -1912449546 -285782145 -58331874 -1878701781 -1607884118 1057100691 -1448171766 -392770122 751593396 1686538253 2131641813
REM
CELL 1.54180   50.00000   50.00000   50.00000   90.00000   90.00000   90.00000
LATT -1
SFAC C  
C      1  0.5405700000000  0.4362940000000  0.5195670000000 1.0
C      1  0.5422940000000  0.4318670000000  0.4901120000000 1.0
C      1  0.5311800000000  0.4504160000000  0.4693350000000 1.0
C      1  0.5114010000000  0.4433550000000  0.4479200000000 1.0
C      1  0.4828970000000  0.4375800000000  0.4526150000000 1.0
C      1  0.4748040000000  0.4275760000000  0.4786670000000 1.0
C      1  0.4507600000000  0.4338290000000  0.4938920000000 1.0
C      1  0.4491850000000  0.4320970000000  0.5234150000000 1.0
C      1  0.4661220000000  0.4474840000000  0.5425530000000 1.0
C      1  0.4947850000000  0.4423010000000  0.5486250000000 1.0
C      1  0.5175530000000  0.4522140000000  0.5319990000000 1.0
C      1  0.5081600000000  0.5188550000000  0.5584780000000 1.0
C      1  0.5327550000000  0.5244370000000  0.5423600000000 1.0
C      1  0.5328610000000  0.5312890000000  0.5139300000000 1.0
C      1  0.5532600000000  0.5247810000000  0.4943230000000 1.0
C      1  0.5436230000000  0.5208150000000  0.4668480000000 1.0
C      1  0.5163260000000  0.5284060000000  0.4572600000000 1.0
C      1  0.4911700000000  0.5135780000000  0.4633400000000 1.0
C      1  0.4658380000000  0.5256320000000  0.4740380000000 1.0
C      1  0.4552730000000  0.5212750000000  0.5013870000000 1.0
C      1  0.4714630000000  0.5071740000000  0.5223860000000 1.0
C      1  0.4799840000000  0.5187140000000  0.5482670000000 1.0
C      1  0.5053990000000  0.4542970000000  0.5053500000000 1.0
C      1  0.5011730000000  0.4793430000000  0.4914480000000 1.0
C      1  0.5080830000000  0.5289880000000  0.5002790000000 1.0
C      1  0.5126990000000  0.4044020000000  0.5016770000000 1.0
C      1  0.4898680000000  0.5999680000000  0.5018570000000 1.0
C      1  0.5052370000000  0.5790450000000  0.4890580000000 1.0
C      1  0.4981530000000  0.4285160000000  0.4946130000000 1.0
C      1  0.4938940000000  0.5042990000000  0.5042070000000 1.0
C      1  0.4965490000000  0.5515870000000  0.4861650000000 1.0
END
