TITL C-862129-6180-117 0.00497739920931322 125000 -872.472824735987 0 0 146 (C1) n - 1
REM
REM in /home/nfs/bkarasulu/CARBON/AIRSS/Generating-Clusters/TERSOFF/Higher-Symm/FIRE-HFTN
REM
REM
REM
REM
REM
REM ./C.cell (b20cbc046b6831c77cfcea5457e17084)
REM AIRSS Version 0.9.1 bugfix July 2018 build 013d7b7c2542+ Fri, 06 Jul 2018 19:26:36 +0100
REM compiler GCC version 9.2.1 20190827 (Red Hat 9.2.1-1)
REM options -cpp -mtune=generic -march=x86-64 -g -O0 -fpre-include=/usr/include/finclude/math-vector-fortran.h
REM seed 1578122273 -567403179 -1452163998 -275723937 21369947 -49895093 -1292875812 -479953622 208204199 614006110 -1138717712 -1093935739 -2143373466 -1265835303 -1853834312 -1206845218 -1885685822 -507165776 -371112156 -1194100828 -1415394823 -2121893989 1167226751 -1517085144 -1360115602 1536943077 606449217 -485348379 -1294640368 142452354 -1431234107 688718166 1604758662
REM
CELL 1.54180   50.00000   50.00000   50.00000   90.00000   90.00000   90.00000
LATT -1
SFAC C  
C      1  0.4200700000000  0.4404010000000  0.5357910000000 1.0
C      1  0.4293610000000  0.5478870000000  0.5298580000000 1.0
C      1  0.5308620000000  0.5917580000000  0.5362160000000 1.0
C      1  0.5954490000000  0.5021230000000  0.5351800000000 1.0
C      1  0.5280480000000  0.4149380000000  0.5356780000000 1.0
C      1  0.5745730000000  0.4454020000000  0.5377350000000 1.0
C      1  0.5803590000000  0.5559780000000  0.5361250000000 1.0
C      1  0.4749600000000  0.5891640000000  0.5347850000000 1.0
C      1  0.4053190000000  0.4988560000000  0.5339210000000 1.0
C      1  0.4662830000000  0.4079520000000  0.5365750000000 1.0
C      1  0.5155770000000  0.4413240000000  0.4241010000000 1.0
C      1  0.4369480000000  0.4628870000000  0.4239130000000 1.0
C      1  0.4460280000000  0.5509070000000  0.4176810000000 1.0
C      1  0.5288930000000  0.5702390000000  0.4177170000000 1.0
C      1  0.5606770000000  0.4950370000000  0.4265940000000 1.0
C      1  0.4831630000000  0.4312160000000  0.4250530000000 1.0
C      1  0.5651550000000  0.4643320000000  0.4192340000000 1.0
C      1  0.5457870000000  0.5454560000000  0.4289680000000 1.0
C      1  0.4756580000000  0.5574120000000  0.4311510000000 1.0
C      1  0.4361190000000  0.4972680000000  0.4215250000000 1.0
C      1  0.5146360000000  0.3874410000000  0.4610750000000 1.0
C      1  0.3935440000000  0.4509570000000  0.4664990000000 1.0
C      1  0.4234620000000  0.5806200000000  0.4693280000000 1.0
C      1  0.5570110000000  0.6025970000000  0.4618810000000 1.0
C      1  0.6127210000000  0.4797960000000  0.4616240000000 1.0
C      1  0.4861440000000  0.3848270000000  0.4663360000000 1.0
C      1  0.6035300000000  0.4530070000000  0.4660450000000 1.0
C      1  0.5800150000000  0.5856090000000  0.4649050000000 1.0
C      1  0.4453920000000  0.5993540000000  0.4671250000000 1.0
C      1  0.3867640000000  0.4789300000000  0.4620220000000 1.0
C      1  0.4264800000000  0.4908480000000  0.5823890000000 1.0
C      1  0.4729460000000  0.5608430000000  0.5772900000000 1.0
C      1  0.5578180000000  0.5506810000000  0.5828360000000 1.0
C      1  0.5590200000000  0.4671480000000  0.5836850000000 1.0
C      1  0.4826930000000  0.4314290000000  0.5794360000000 1.0
C      1  0.5739550000000  0.4947200000000  0.5828310000000 1.0
C      1  0.5307650000000  0.5665680000000  0.5836300000000 1.0
C      1  0.4623830000000  0.5341900000000  0.5680210000000 1.0
C      1  0.4311420000000  0.4592350000000  0.5838660000000 1.0
C      1  0.5063700000000  0.4476930000000  0.5700590000000 1.0
C      1  0.4587900000000  0.4185320000000  0.4397080000000 1.0
C      1  0.4147650000000  0.5135740000000  0.4344680000000 1.0
C      1  0.4851500000000  0.5842730000000  0.4389560000000 1.0
C      1  0.5741270000000  0.5426070000000  0.4384530000000 1.0
C      1  0.5623670000000  0.4425250000000  0.4385400000000 1.0
C      1  0.5374800000000  0.4267890000000  0.4373240000000 1.0
C      1  0.5827070000000  0.5131560000000  0.4374790000000 1.0
C      1  0.5149580000000  0.5873620000000  0.4370120000000 1.0
C      1  0.4232410000000  0.5424540000000  0.4354030000000 1.0
C      1  0.4340130000000  0.4357760000000  0.4395340000000 1.0
C      1  0.4733190000000  0.5918390000000  0.4648910000000 1.0
C      1  0.5791460000000  0.5567230000000  0.4639890000000 1.0
C      1  0.5758040000000  0.4449930000000  0.4646560000000 1.0
C      1  0.4670260000000  0.4067280000000  0.4654360000000 1.0
C      1  0.4060310000000  0.5007900000000  0.4611610000000 1.0
C      1  0.5296310000000  0.5932160000000  0.4623080000000 1.0
C      1  0.4252140000000  0.5523810000000  0.4629930000000 1.0
C      1  0.4205100000000  0.4400070000000  0.4653850000000 1.0
C      1  0.5295050000000  0.4124920000000  0.4620510000000 1.0
C      1  0.5955660000000  0.5029830000000  0.4621080000000 1.0
C      1  0.5610210000000  0.5507720000000  0.5128740000000 1.0
C      1  0.5638530000000  0.4612880000000  0.5133380000000 1.0
C      1  0.4790270000000  0.4230950000000  0.5129810000000 1.0
C      1  0.4254100000000  0.4918480000000  0.5111930000000 1.0
C      1  0.4753960000000  0.5695950000000  0.5113190000000 1.0
C      1  0.4508430000000  0.5444820000000  0.5072520000000 1.0
C      1  0.4323590000000  0.4565390000000  0.5126170000000 1.0
C      1  0.5148460000000  0.4271960000000  0.5102960000000 1.0
C      1  0.5780330000000  0.4944480000000  0.5105920000000 1.0
C      1  0.5329280000000  0.5734810000000  0.5110920000000 1.0
C      1  0.5591940000000  0.4433430000000  0.4888650000000 1.0
C      1  0.4610000000000  0.4222890000000  0.4891920000000 1.0
C      1  0.4217720000000  0.5086950000000  0.4853350000000 1.0
C      1  0.4883110000000  0.5828110000000  0.4881330000000 1.0
C      1  0.5759270000000  0.5407960000000  0.4884340000000 1.0
C      1  0.4373560000000  0.4393580000000  0.4890570000000 1.0
C      1  0.5350650000000  0.4260220000000  0.4874540000000 1.0
C      1  0.5846170000000  0.5127640000000  0.4873080000000 1.0
C      1  0.5173270000000  0.5843770000000  0.4873180000000 1.0
C      1  0.4393970000000  0.5327370000000  0.4809110000000 1.0
C      1  0.5784160000000  0.5112030000000  0.5592250000000 1.0
C      1  0.5294670000000  0.4367640000000  0.5572560000000 1.0
C      1  0.4372460000000  0.4418570000000  0.5612430000000 1.0
C      1  0.4378000000000  0.5305250000000  0.5537900000000 1.0
C      1  0.5168300000000  0.5777810000000  0.5604470000000 1.0
C      1  0.4224460000000  0.5066520000000  0.5580480000000 1.0
C      1  0.4614060000000  0.4257010000000  0.5611270000000 1.0
C      1  0.5547940000000  0.4496630000000  0.5607800000000 1.0
C      1  0.5707390000000  0.5392510000000  0.5595730000000 1.0
C      1  0.4879230000000  0.5772410000000  0.5593850000000 1.0
C      1  0.4908570000000  0.5440510000000  0.5199370000000 1.0
C      1  0.5408700000000  0.5265870000000  0.5250340000000 1.0
C      1  0.5346770000000  0.4736380000000  0.5235970000000 1.0
C      1  0.4827950000000  0.4527510000000  0.5223560000000 1.0
C      1  0.4567590000000  0.4990490000000  0.5243140000000 1.0
C      1  0.5195560000000  0.5465210000000  0.5178930000000 1.0
C      1  0.4751440000000  0.5186490000000  0.5109120000000 1.0
C      1  0.4588690000000  0.4689240000000  0.5220540000000 1.0
C      1  0.5110110000000  0.4598230000000  0.5128620000000 1.0
C      1  0.5478780000000  0.5000280000000  0.5159400000000 1.0
C      1  0.4542600000000  0.4671220000000  0.6045340000000 1.0
C      1  0.4723600000000  0.5152070000000  0.5906510000000 1.0
C      1  0.5152800000000  0.5486520000000  0.6061100000000 1.0
C      1  0.5514520000000  0.5033810000000  0.6035110000000 1.0
C      1  0.5074400000000  0.4709230000000  0.5911120000000 1.0
C      1  0.5340930000000  0.4758010000000  0.6029270000000 1.0
C      1  0.5435020000000  0.5319750000000  0.6037510000000 1.0
C      1  0.4864840000000  0.5436560000000  0.6010800000000 1.0
C      1  0.4511290000000  0.4981960000000  0.6019740000000 1.0
C      1  0.4801880000000  0.4542430000000  0.6022160000000 1.0
C      1  0.4516820000000  0.5021250000000  0.3936800000000 1.0
C      1  0.4855370000000  0.5445400000000  0.4049920000000 1.0
C      1  0.5387180000000  0.5328880000000  0.4012570000000 1.0
C      1  0.5433870000000  0.4713960000000  0.3964970000000 1.0
C      1  0.4829380000000  0.4517550000000  0.3998360000000 1.0
C      1  0.5466350000000  0.5037750000000  0.3974490000000 1.0
C      1  0.5126060000000  0.5510910000000  0.3947950000000 1.0
C      1  0.4590880000000  0.5316340000000  0.3925480000000 1.0
C      1  0.4578750000000  0.4690840000000  0.3992840000000 1.0
C      1  0.5168140000000  0.4566080000000  0.3958180000000 1.0
C      1  0.5143600000000  0.3896970000000  0.5441450000000 1.0
C      1  0.3919900000000  0.4494490000000  0.5398940000000 1.0
C      1  0.4250790000000  0.5767610000000  0.5369290000000 1.0
C      1  0.5580540000000  0.6022000000000  0.5429220000000 1.0
C      1  0.6130640000000  0.4792090000000  0.5424200000000 1.0
C      1  0.4851850000000  0.3859060000000  0.5437520000000 1.0
C      1  0.6028770000000  0.4517950000000  0.5436320000000 1.0
C      1  0.5819500000000  0.5850870000000  0.5422600000000 1.0
C      1  0.4466380000000  0.5964010000000  0.5394800000000 1.0
C      1  0.3848590000000  0.4778400000000  0.5383590000000 1.0
C      1  0.4558930000000  0.4982470000000  0.4451760000000 1.0
C      1  0.4814290000000  0.5393510000000  0.4535960000000 1.0
C      1  0.5306340000000  0.5279400000000  0.4481140000000 1.0
C      1  0.5230650000000  0.4792360000000  0.4588660000000 1.0
C      1  0.4789260000000  0.4526790000000  0.4535400000000 1.0
C      1  0.5382210000000  0.5001870000000  0.4464020000000 1.0
C      1  0.5082610000000  0.5370800000000  0.4635940000000 1.0
C      1  0.4609140000000  0.5216270000000  0.4622790000000 1.0
C      1  0.4556210000000  0.4693620000000  0.4524780000000 1.0
C      1  0.5061020000000  0.4609580000000  0.4448490000000 1.0
C      1  0.4036830000000  0.5295450000000  0.5256760000000 1.0
C      1  0.5600760000000  0.4170680000000  0.5331860000000 1.0
C      1  0.4339450000000  0.4109270000000  0.5323020000000 1.0
C      1  0.6032880000000  0.5335190000000  0.5319980000000 1.0
C      1  0.5021200000000  0.6066620000000  0.5320570000000 1.0
C      1  0.4898370000000  0.5060560000000  0.4884460000000 1.0
END
