TITL C-862507-1800-1169 -8.69908546644635e-06 125000 -368.78048828134 0 0 73 (Cs) n - 1
REM
REM in /home/nfs/bkarasulu/CARBON/AIRSS/Generating-Clusters/TERSOFF/Higher-Symm/FIRE-HFTN
REM
REM
REM
REM
REM
REM ./C.cell (b20cbc046b6831c77cfcea5457e17084)
REM AIRSS Version 0.9.1 bugfix July 2018 build 013d7b7c2542+ Fri, 06 Jul 2018 19:26:36 +0100
REM compiler GCC version 9.2.1 20190827 (Red Hat 9.2.1-1)
REM options -cpp -mtune=generic -march=x86-64 -g -O0 -fpre-include=/usr/include/finclude/math-vector-fortran.h
REM seed 2008752332 745025928 -1890374014 61434197 -1474262099 -1607786958 -1749142412 -435148762 1540639576 -875135598 97810167 913320361 -1213360742 -676598251 -1360888731 461118680 1880623389 1328101151 892983431 460842819 543513222 -1129128044 -1923887409 912155365 198062639 444482962 -73152357 -134469355 1982093386 -692829907 666923291 -1770569788 1925179250
REM
CELL 1.54180   50.00000   50.00000   50.00000   90.00000   90.00000   90.00000
LATT -1
SFAC C  
C      1  0.5190770000000  0.4324700000000  0.4881590000000 1.0
C      1  0.5190790000000  0.4684380000000  0.5605330000000 1.0
C      1  0.5190840000000  0.5485350000000  0.5495010000000 1.0
C      1  0.5190700000000  0.5618060000000  0.4699830000000 1.0
C      1  0.5190860000000  0.4903860000000  0.4318630000000 1.0
C      1  0.4826880000000  0.4324700000000  0.4881590000000 1.0
C      1  0.4826870000000  0.4684380000000  0.5605330000000 1.0
C      1  0.4826810000000  0.5485350000000  0.5495010000000 1.0
C      1  0.4826950000000  0.5618060000000  0.4699830000000 1.0
C      1  0.4826790000000  0.4903860000000  0.4318630000000 1.0
C      1  0.4419700000000  0.4707440000000  0.4683800000000 1.0
C      1  0.4420740000000  0.4613380000000  0.5181190000000 1.0
C      1  0.4420440000000  0.5056910000000  0.5426440000000 1.0
C      1  0.4419850000000  0.5428020000000  0.5082840000000 1.0
C      1  0.4421390000000  0.5210920000000  0.4624320000000 1.0
C      1  0.5597950000000  0.4707440000000  0.4683800000000 1.0
C      1  0.5596910000000  0.4613380000000  0.5181190000000 1.0
C      1  0.5597210000000  0.5056910000000  0.5426440000000 1.0
C      1  0.5597800000000  0.5428020000000  0.5082840000000 1.0
C      1  0.5596260000000  0.5210920000000  0.4624320000000 1.0
C      1  0.5464240000000  0.4779180000000  0.5405040000000 1.0
C      1  0.5465930000000  0.5323060000000  0.5341080000000 1.0
C      1  0.5464860000000  0.5426610000000  0.4804780000000 1.0
C      1  0.5465280000000  0.4943670000000  0.4537300000000 1.0
C      1  0.5465960000000  0.4545160000000  0.4910020000000 1.0
C      1  0.4553410000000  0.4779180000000  0.5405040000000 1.0
C      1  0.4551730000000  0.5323060000000  0.5341080000000 1.0
C      1  0.4552790000000  0.5426610000000  0.4804780000000 1.0
C      1  0.4552370000000  0.4943670000000  0.4537300000000 1.0
C      1  0.4551690000000  0.4545160000000  0.4910020000000 1.0
C      1  0.4855060000000  0.5294960000000  0.5763150000000 1.0
C      1  0.4854560000000  0.5821590000000  0.4959000000000 1.0
C      1  0.4855110000000  0.5216080000000  0.4214050000000 1.0
C      1  0.4854610000000  0.4315290000000  0.4552190000000 1.0
C      1  0.4855010000000  0.4369280000000  0.5511510000000 1.0
C      1  0.5162590000000  0.5294960000000  0.5763150000000 1.0
C      1  0.5163090000000  0.5821590000000  0.4959000000000 1.0
C      1  0.5162540000000  0.5216080000000  0.4214050000000 1.0
C      1  0.5163040000000  0.4315290000000  0.4552190000000 1.0
C      1  0.5162640000000  0.4369280000000  0.5511510000000 1.0
C      1  0.5852090000000  0.5035290000000  0.5256840000000 1.0
C      1  0.5852170000000  0.5258210000000  0.5049220000000 1.0
C      1  0.5851240000000  0.5128530000000  0.4773520000000 1.0
C      1  0.5852280000000  0.4826000000000  0.4810040000000 1.0
C      1  0.5852000000000  0.4768480000000  0.5109260000000 1.0
C      1  0.4165560000000  0.5035290000000  0.5256840000000 1.0
C      1  0.4165480000000  0.5258210000000  0.5049220000000 1.0
C      1  0.4166410000000  0.5128530000000  0.4773520000000 1.0
C      1  0.4165370000000  0.4826000000000  0.4810040000000 1.0
C      1  0.4165650000000  0.4768480000000  0.5109260000000 1.0
C      1  0.4867480000000  0.5057350000000  0.5417220000000 1.0
C      1  0.4867560000000  0.5420520000000  0.5082390000000 1.0
C      1  0.4865950000000  0.5205460000000  0.4633600000000 1.0
C      1  0.4867490000000  0.4711800000000  0.4689530000000 1.0
C      1  0.4867460000000  0.4621190000000  0.5175860000000 1.0
C      1  0.5150180000000  0.5057350000000  0.5417220000000 1.0
C      1  0.5150090000000  0.5420520000000  0.5082390000000 1.0
C      1  0.5151700000000  0.5205460000000  0.4633600000000 1.0
C      1  0.5150160000000  0.4711800000000  0.4689530000000 1.0
C      1  0.5150190000000  0.4621190000000  0.5175860000000 1.0
C      1  0.4732200000000  0.4336330000000  0.5226170000000 1.0
C      1  0.4732370000000  0.5014140000000  0.5703250000000 1.0
C      1  0.4731040000000  0.5678980000000  0.5209430000000 1.0
C      1  0.4731700000000  0.5410660000000  0.4425530000000 1.0
C      1  0.4731050000000  0.4578080000000  0.4434430000000 1.0
C      1  0.5285450000000  0.4336330000000  0.5226170000000 1.0
C      1  0.5285280000000  0.5014140000000  0.5703250000000 1.0
C      1  0.5286620000000  0.5678980000000  0.5209430000000 1.0
C      1  0.5285950000000  0.5410660000000  0.4425530000000 1.0
C      1  0.5286600000000  0.4578080000000  0.4434430000000 1.0
C      1  0.5257960000000  0.5069330000000  0.4880190000000 1.0
C      1  0.4759690000000  0.5069330000000  0.4880190000000 1.0
C      1  0.5008830000000  0.4987870000000  0.5028010000000 1.0
END
