TITL C-862507-1800-880 14.8036087402477 125000 -204.053218442899 0 0 38 (C1) n - 1
REM
REM in /home/nfs/bkarasulu/CARBON/AIRSS/Generating-Clusters/TERSOFF/Higher-Symm/FIRE-HFTN
REM
REM
REM
REM
REM
REM ./C.cell (b20cbc046b6831c77cfcea5457e17084)
REM AIRSS Version 0.9.1 bugfix July 2018 build 013d7b7c2542+ Fri, 06 Jul 2018 19:26:36 +0100
REM compiler GCC version 9.2.1 20190827 (Red Hat 9.2.1-1)
REM options -cpp -mtune=generic -march=x86-64 -g -O0 -fpre-include=/usr/include/finclude/math-vector-fortran.h
REM seed -2005145277 -1920444169 310155196 -1298988115 674911609 -2017572229 2079880057 1728075997 -1027707440 -1647347843 1975457681 1875709479 -1943791161 2107388492 487531933 -94798745 -1667915135 -392426594 1992383811 -48944414 -353181669 -571847519 1320078180 -1470550901 -2097521242 172861908 -247844316 1536468715 -1922453836 -1044147157 -1884283834 1460941781 134093701
REM
CELL 1.54180   50.00000   50.00000   50.00000   90.00000   90.00000   90.00000
LATT -1
SFAC C  
C      1  0.5188440000000  0.5137140000000  0.4543670000000 1.0
C      1  0.5074970000000  0.5041050000000  0.5465650000000 1.0
C      1  0.4581750000000  0.4515690000000  0.5316120000000 1.0
C      1  0.5351440000000  0.5574690000000  0.4349700000000 1.0
C      1  0.4669430000000  0.5164920000000  0.5675060000000 1.0
C      1  0.4826600000000  0.4635340000000  0.4129710000000 1.0
C      1  0.5427260000000  0.4971780000000  0.4486960000000 1.0
C      1  0.5412430000000  0.5854720000000  0.4398810000000 1.0
C      1  0.4556070000000  0.4709440000000  0.5095150000000 1.0
C      1  0.4490430000000  0.5068210000000  0.5463460000000 1.0
C      1  0.5236640000000  0.5718480000000  0.5277340000000 1.0
C      1  0.4968060000000  0.4506080000000  0.5661380000000 1.0
C      1  0.5138190000000  0.5460090000000  0.5187940000000 1.0
C      1  0.4911300000000  0.5443770000000  0.4982850000000 1.0
C      1  0.5591160000000  0.4981250000000  0.4963930000000 1.0
C      1  0.4873060000000  0.4461460000000  0.5379600000000 1.0
C      1  0.4309340000000  0.4854220000000  0.5556890000000 1.0
C      1  0.4786150000000  0.4696540000000  0.4924740000000 1.0
C      1  0.5455130000000  0.5442710000000  0.4112260000000 1.0
C      1  0.4920400000000  0.4754000000000  0.5824720000000 1.0
C      1  0.4925180000000  0.4905800000000  0.5261230000000 1.0
C      1  0.4837030000000  0.4553040000000  0.4407010000000 1.0
C      1  0.4980400000000  0.4983010000000  0.4688370000000 1.0
C      1  0.5090100000000  0.4780350000000  0.5039150000000 1.0
C      1  0.4927260000000  0.5032720000000  0.5717550000000 1.0
C      1  0.5186200000000  0.5426120000000  0.4538690000000 1.0
C      1  0.5014480000000  0.5563720000000  0.4727520000000 1.0
C      1  0.4388010000000  0.4576870000000  0.5525870000000 1.0
C      1  0.5083940000000  0.4479450000000  0.5140650000000 1.0
C      1  0.5254220000000  0.5211990000000  0.5292410000000 1.0
C      1  0.5084600000000  0.4417610000000  0.4827610000000 1.0
C      1  0.4676120000000  0.5599430000000  0.5081390000000 1.0
C      1  0.5326770000000  0.4998010000000  0.5087490000000 1.0
C      1  0.4633730000000  0.4994300000000  0.5191020000000 1.0
C      1  0.4824950000000  0.5148550000000  0.4933690000000 1.0
C      1  0.5639940000000  0.4998880000000  0.4680530000000 1.0
C      1  0.5311910000000  0.4701200000000  0.4461890000000 1.0
C      1  0.5046920000000  0.4637390000000  0.4602020000000 1.0
END
