TITL C-862506-1665-288 1.52059710467938e-06 125000 -363.404383746718 0 0 64 (C4) n - 1
REM
REM in /home/nfs/bkarasulu/CARBON/AIRSS/Generating-Clusters/TERSOFF/Higher-Symm/FIRE-HFTN
REM
REM
REM
REM
REM
REM ./C.cell (b20cbc046b6831c77cfcea5457e17084)
REM AIRSS Version 0.9.1 bugfix July 2018 build 013d7b7c2542+ Fri, 06 Jul 2018 19:26:36 +0100
REM compiler GCC version 9.2.1 20190827 (Red Hat 9.2.1-1)
REM options -cpp -mtune=generic -march=x86-64 -g -O0 -fpre-include=/usr/include/finclude/math-vector-fortran.h
REM seed 1956136801 -482548384 -864610558 -1438459258 260026645 1161165459 -774619002 -1743393850 1113437968 107113185 -1495476156 1582754431 -652853916 97374399 1466408236 -1698582848 1103402782 489767223 -1761573586 -742624966 -293232095 504757093 -1827230020 -1114393077 -1828854457 1850504047 -1827544386 1251924 -774981859 -1491875451 -644961660 1879327277 -252057066
REM
CELL 1.54180   50.00000   50.00000   50.00000   90.00000   90.00000   90.00000
LATT -1
SFAC C  
C      1  0.5692230000000  0.4825370000000  0.5353700000000 1.0
C      1  0.5692230000000  0.5353700000000  0.5174630000000 1.0
C      1  0.5692230000000  0.5174630000000  0.4646300000000 1.0
C      1  0.5692230000000  0.4646300000000  0.4825370000000 1.0
C      1  0.5623400000000  0.5114280000000  0.5383030000000 1.0
C      1  0.5623400000000  0.4616970000000  0.5114280000000 1.0
C      1  0.5623400000000  0.4885720000000  0.4616970000000 1.0
C      1  0.5623400000000  0.5383030000000  0.4885720000000 1.0
C      1  0.4904210000000  0.5617920000000  0.4534950000000 1.0
C      1  0.4904210000000  0.4534950000000  0.4382080000000 1.0
C      1  0.4904210000000  0.4382080000000  0.5465050000000 1.0
C      1  0.4904210000000  0.5465050000000  0.5617920000000 1.0
C      1  0.4975750000000  0.4354170000000  0.4600300000000 1.0
C      1  0.4975750000000  0.5399700000000  0.4354170000000 1.0
C      1  0.4975750000000  0.5645830000000  0.5399700000000 1.0
C      1  0.4975750000000  0.4600300000000  0.5645830000000 1.0
C      1  0.5462400000000  0.5381820000000  0.4498300000000 1.0
C      1  0.5462400000000  0.4498300000000  0.4618180000000 1.0
C      1  0.5462400000000  0.4618180000000  0.5501700000000 1.0
C      1  0.5462400000000  0.5501700000000  0.5381820000000 1.0
C      1  0.5381370000000  0.4772370000000  0.4393210000000 1.0
C      1  0.5381370000000  0.5606800000000  0.4772370000000 1.0
C      1  0.5381370000000  0.5227630000000  0.5606800000000 1.0
C      1  0.5381370000000  0.4393200000000  0.5227630000000 1.0
C      1  0.4254950000000  0.4822670000000  0.4691720000000 1.0
C      1  0.4254950000000  0.4691720000000  0.5177330000000 1.0
C      1  0.4254950000000  0.5177330000000  0.5308280000000 1.0
C      1  0.4254950000000  0.5308280000000  0.4822670000000 1.0
C      1  0.4147480000000  0.5091090000000  0.4662220000000 1.0
C      1  0.4147480000000  0.5337780000000  0.5091080000000 1.0
C      1  0.4147480000000  0.4908920000000  0.5337780000000 1.0
C      1  0.4147480000000  0.4662220000000  0.4908910000000 1.0
C      1  0.4647370000000  0.4671340000000  0.4411420000000 1.0
C      1  0.4647370000000  0.4411420000000  0.5328660000000 1.0
C      1  0.4647370000000  0.5328660000000  0.5588580000000 1.0
C      1  0.4647370000000  0.5588580000000  0.4671340000000 1.0
C      1  0.4824790000000  0.5154600000000  0.4396850000000 1.0
C      1  0.4824790000000  0.5603150000000  0.5154600000000 1.0
C      1  0.4824790000000  0.4845400000000  0.5603150000000 1.0
C      1  0.4824790000000  0.4396850000000  0.4845400000000 1.0
C      1  0.5256680000000  0.4279740000000  0.4617910000000 1.0
C      1  0.5256680000000  0.4617910000000  0.5720260000000 1.0
C      1  0.5256680000000  0.5720260000000  0.5382090000000 1.0
C      1  0.5256680000000  0.5382090000000  0.4279740000000 1.0
C      1  0.5128210000000  0.5755360000000  0.4667080000000 1.0
C      1  0.5128210000000  0.5332920000000  0.5755360000000 1.0
C      1  0.5128210000000  0.4244640000000  0.5332920000000 1.0
C      1  0.5128210000000  0.4667080000000  0.4244640000000 1.0
C      1  0.4556080000000  0.5192000000000  0.5333280000000 1.0
C      1  0.4556080000000  0.5333290000000  0.4808000000000 1.0
C      1  0.4556080000000  0.4808000000000  0.4666710000000 1.0
C      1  0.4556080000000  0.4666710000000  0.5191990000000 1.0
C      1  0.4667660000000  0.4905530000000  0.5360340000000 1.0
C      1  0.4667660000000  0.4639660000000  0.4905530000000 1.0
C      1  0.4667660000000  0.5094470000000  0.4639660000000 1.0
C      1  0.4667660000000  0.5360340000000  0.5094470000000 1.0
C      1  0.5200960000000  0.4939600000000  0.4633190000000 1.0
C      1  0.5200960000000  0.4633190000000  0.5060400000000 1.0
C      1  0.5200960000000  0.5060400000000  0.5366810000000 1.0
C      1  0.5200960000000  0.5366810000000  0.4939600000000 1.0
C      1  0.5276460000000  0.5208230000000  0.4693430000000 1.0
C      1  0.5276460000000  0.5306570000000  0.5208230000000 1.0
C      1  0.5276460000000  0.4791770000000  0.5306580000000 1.0
C      1  0.5276460000000  0.4693430000000  0.4791770000000 1.0
END
