TITL C-862502-1143-424 -5.63748971030862e-08 125000 -12.3085327188615 0 0 4 (D(inf)h) n - 1
REM
REM in /home/nfs/bkarasulu/CARBON/AIRSS/Generating-Clusters/TERSOFF/Higher-Symm/FIRE-HFTN
REM
REM
REM
REM
REM
REM ./C.cell (b20cbc046b6831c77cfcea5457e17084)
REM AIRSS Version 0.9.1 bugfix July 2018 build 013d7b7c2542+ Fri, 06 Jul 2018 19:26:36 +0100
REM compiler GCC version 9.2.1 20190827 (Red Hat 9.2.1-1)
REM options -cpp -mtune=generic -march=x86-64 -g -O0 -fpre-include=/usr/include/finclude/math-vector-fortran.h
REM seed -2042724980 10264382 1543572067 766950305 -726274710 -1439436504 2007731212 -1217841414 -1003103865 -2050640782 275774136 543793998 1906938719 1187045565 -1457211852 -1134000085 -1120709872 107429568 2051543631 1570006285 581514433 1968978614 45031106 1991871015 -9265273 2065914866 773470435 1532838174 1207660573 1440612535 421724826 1016506920 -681335523
REM
CELL 1.54180   50.00000   50.00000   50.00000   90.00000   90.00000   90.00000
LATT -1
SFAC C  
C      1  0.5017050000000  0.5021510000000  0.5454270000000 1.0
C      1  0.5017050000000  0.5021510000000  0.4545730000000 1.0
C      1  0.5017050000000  0.5021510000000  0.4845060000000 1.0
C      1  0.5017050000000  0.5021510000000  0.5154940000000 1.0
END
