TITL C-862507-1800-1043 0.000123169248774027 125000 -499.779828397396 0 0 98 (C3h) n - 1
REM
REM in /home/nfs/bkarasulu/CARBON/AIRSS/Generating-Clusters/TERSOFF/Higher-Symm/FIRE-HFTN
REM
REM
REM
REM
REM
REM ./C.cell (b20cbc046b6831c77cfcea5457e17084)
REM AIRSS Version 0.9.1 bugfix July 2018 build 013d7b7c2542+ Fri, 06 Jul 2018 19:26:36 +0100
REM compiler GCC version 9.2.1 20190827 (Red Hat 9.2.1-1)
REM options -cpp -mtune=generic -march=x86-64 -g -O0 -fpre-include=/usr/include/finclude/math-vector-fortran.h
REM seed -1551250003 381788666 2139356174 -990600579 435023777 -677558210 576100356 1966667357 1652325977 234850424 -2025073810 -622776492 -1042804648 -1757754368 542771396 -1264102210 480398385 -61687686 1207834199 -1547614682 -827048724 -1707654267 515269774 -33229254 2040225807 1173104362 1921007597 602699391 -269781449 1017659548 -825170552 1484494808 -581370680
REM
CELL 1.54180   50.00000   50.00000   50.00000   90.00000   90.00000   90.00000
LATT -1
SFAC C  
C      1  0.4692920000000  0.4852710000000  0.5258950000000 1.0
C      1  0.4928510000000  0.4852710000000  0.4604550000000 1.0
C      1  0.5377440000000  0.4852710000000  0.5135770000000 1.0
C      1  0.4692920000000  0.5154760000000  0.5258950000000 1.0
C      1  0.4928510000000  0.5154760000000  0.4604550000000 1.0
C      1  0.5377440000000  0.5154760000000  0.5135770000000 1.0
C      1  0.4603320000000  0.4725270000000  0.5564430000000 1.0
C      1  0.4708760000000  0.4725270000000  0.4374220000000 1.0
C      1  0.5686790000000  0.4725270000000  0.5060630000000 1.0
C      1  0.4603320000000  0.5282200000000  0.5564430000000 1.0
C      1  0.4708760000000  0.5282190000000  0.4374220000000 1.0
C      1  0.5686790000000  0.5282200000000  0.5060630000000 1.0
C      1  0.4177290000000  0.4832400000000  0.5280430000000 1.0
C      1  0.5167720000000  0.4832400000000  0.4147260000000 1.0
C      1  0.5653860000000  0.4832400000000  0.5571590000000 1.0
C      1  0.4177290000000  0.5175070000000  0.5280430000000 1.0
C      1  0.5167720000000  0.5175070000000  0.4147260000000 1.0
C      1  0.5653860000000  0.5175070000000  0.5571590000000 1.0
C      1  0.5424370000000  0.5533280000000  0.4400370000000 1.0
C      1  0.5306330000000  0.5533280000000  0.5667300000000 1.0
C      1  0.4268160000000  0.5533280000000  0.4931610000000 1.0
C      1  0.5424370000000  0.4474180000000  0.4400370000000 1.0
C      1  0.5306330000000  0.4474180000000  0.5667300000000 1.0
C      1  0.4268160000000  0.4474180000000  0.4931610000000 1.0
C      1  0.4799880000000  0.5727130000000  0.5363860000000 1.0
C      1  0.4784170000000  0.5727130000000  0.4644730000000 1.0
C      1  0.5414810000000  0.5727130000000  0.4990690000000 1.0
C      1  0.4799880000000  0.4280340000000  0.5363860000000 1.0
C      1  0.4784170000000  0.4280340000000  0.4644730000000 1.0
C      1  0.5414810000000  0.4280340000000  0.4990690000000 1.0
C      1  0.4509140000000  0.4852230000000  0.4620320000000 1.0
C      1  0.5573470000000  0.4852230000000  0.4764710000000 1.0
C      1  0.4916260000000  0.4852230000000  0.5614250000000 1.0
C      1  0.4509140000000  0.5155240000000  0.4620320000000 1.0
C      1  0.5573470000000  0.5155240000000  0.4764710000000 1.0
C      1  0.4916260000000  0.5155240000000  0.5614250000000 1.0
C      1  0.4757000000000  0.5776550000000  0.4940510000000 1.0
C      1  0.5172250000000  0.5776550000000  0.4819270000000 1.0
C      1  0.5069620000000  0.5776550000000  0.5239500000000 1.0
C      1  0.4757000000000  0.4230920000000  0.4940510000000 1.0
C      1  0.5172250000000  0.4230920000000  0.4819270000000 1.0
C      1  0.5069620000000  0.4230920000000  0.5239500000000 1.0
C      1  0.4450980000000  0.5145060000000  0.5779590000000 1.0
C      1  0.4598590000000  0.5145060000000  0.4134710000000 1.0
C      1  0.5949290000000  0.5145060000000  0.5084980000000 1.0
C      1  0.4450980000000  0.4862410000000  0.5779590000000 1.0
C      1  0.4598590000000  0.4862410000000  0.4134710000000 1.0
C      1  0.5949290000000  0.4862410000000  0.5084980000000 1.0
C      1  0.5413030000000  0.4673840000000  0.4186580000000 1.0
C      1  0.5497150000000  0.4673840000000  0.5764370000000 1.0
C      1  0.4088680000000  0.4673840000000  0.5048320000000 1.0
C      1  0.5413030000000  0.5333620000000  0.4186580000000 1.0
C      1  0.5497150000000  0.5333620000000  0.5764370000000 1.0
C      1  0.4088680000000  0.5333620000000  0.5048320000000 1.0
C      1  0.4976190000000  0.4598150000000  0.4276200000000 1.0
C      1  0.5637960000000  0.4598150000000  0.5341240000000 1.0
C      1  0.4384720000000  0.4598150000000  0.5381830000000 1.0
C      1  0.4976190000000  0.5409320000000  0.4276200000000 1.0
C      1  0.5637960000000  0.5409320000000  0.5341240000000 1.0
C      1  0.4384720000000  0.5409320000000  0.5381830000000 1.0
C      1  0.4987090000000  0.4821120000000  0.5927180000000 1.0
C      1  0.4202720000000  0.4821120000000  0.4525200000000 1.0
C      1  0.5809060000000  0.4821120000000  0.4546900000000 1.0
C      1  0.4987090000000  0.5186340000000  0.5927180000000 1.0
C      1  0.4202720000000  0.5186340000000  0.4525200000000 1.0
C      1  0.5809060000000  0.5186340000000  0.4546900000000 1.0
C      1  0.5251500000000  0.5342340000000  0.4958010000000 1.0
C      1  0.4909840000000  0.5342340000000  0.5238770000000 1.0
C      1  0.4837520000000  0.5342340000000  0.4802500000000 1.0
C      1  0.5251500000000  0.4665130000000  0.4958010000000 1.0
C      1  0.4909840000000  0.4665130000000  0.5238770000000 1.0
C      1  0.4837520000000  0.4665130000000  0.4802500000000 1.0
C      1  0.5267760000000  0.4835560000000  0.4576800000000 1.0
C      1  0.5231850000000  0.4835560000000  0.5443450000000 1.0
C      1  0.4499260000000  0.4835560000000  0.4979030000000 1.0
C      1  0.5267760000000  0.5171910000000  0.4576800000000 1.0
C      1  0.5231850000000  0.5171910000000  0.5443450000000 1.0
C      1  0.4499260000000  0.5171910000000  0.4979030000000 1.0
C      1  0.5362800000000  0.4369160000000  0.5337290000000 1.0
C      1  0.4525720000000  0.4369160000000  0.5145520000000 1.0
C      1  0.5110340000000  0.4369160000000  0.4516470000000 1.0
C      1  0.5362800000000  0.5638310000000  0.5337290000000 1.0
C      1  0.4525720000000  0.5638310000000  0.5145520000000 1.0
C      1  0.5110340000000  0.5638310000000  0.4516470000000 1.0
C      1  0.4533490000000  0.4357730000000  0.4503540000000 1.0
C      1  0.5662420000000  0.4357730000000  0.4844180000000 1.0
C      1  0.4802950000000  0.4357730000000  0.5651550000000 1.0
C      1  0.4533490000000  0.5649740000000  0.4503540000000 1.0
C      1  0.5662420000000  0.5649740000000  0.4844180000000 1.0
C      1  0.4802950000000  0.5649740000000  0.5651550000000 1.0
C      1  0.5033780000000  0.4490870000000  0.5789990000000 1.0
C      1  0.4298180000000  0.4490870000000  0.4634230000000 1.0
C      1  0.5666900000000  0.4490870000000  0.4575060000000 1.0
C      1  0.5033780000000  0.5516600000000  0.5789990000000 1.0
C      1  0.4298180000000  0.5516600000000  0.4634230000000 1.0
C      1  0.5666900000000  0.5516600000000  0.4575060000000 1.0
C      1  0.4999620000000  0.5438880000000  0.4999760000000 1.0
C      1  0.4999620000000  0.4568580000000  0.4999760000000 1.0
END
