TITL C-862503-991-1270 0.00312708028709756 125000 -642.571923543772 0 0 116 (C2) n - 1
REM
REM in /home/nfs/bkarasulu/CARBON/AIRSS/Generating-Clusters/TERSOFF/Higher-Symm/FIRE-HFTN
REM
REM
REM
REM
REM
REM ./C.cell (b20cbc046b6831c77cfcea5457e17084)
REM AIRSS Version 0.9.1 bugfix July 2018 build 013d7b7c2542+ Fri, 06 Jul 2018 19:26:36 +0100
REM compiler GCC version 9.2.1 20190827 (Red Hat 9.2.1-1)
REM options -cpp -mtune=generic -march=x86-64 -g -O0 -fpre-include=/usr/include/finclude/math-vector-fortran.h
REM seed 283233064 758917216 1736674500 -820058811 -1481857510 -264829327 -1219994866 1181744409 890320181 -990593074 756645523 2059348265 1163233422 1954558721 -2018713045 1305689329 -966092305 489387363 1073718762 940693726 1976977591 6668797 -1207909493 -245204605 76189473 -641644008 1747865770 -380583818 1597397619 -591502993 882918694 -2099311941 -843972369
REM
CELL 1.54180   50.00000   50.00000   50.00000   90.00000   90.00000   90.00000
LATT -1
SFAC C  
C      1  0.5250600000000  0.4624410000000  0.5864130000000 1.0
C      1  0.4738150000000  0.4610430000000  0.4084210000000 1.0
C      1  0.5250600000000  0.5375590000000  0.4135870000000 1.0
C      1  0.4738150000000  0.5389570000000  0.5915790000000 1.0
C      1  0.4898730000000  0.4469220000000  0.4620960000000 1.0
C      1  0.5094910000000  0.4433400000000  0.5327190000000 1.0
C      1  0.4898730000000  0.5530780000000  0.5379040000000 1.0
C      1  0.5094910000000  0.5566600000000  0.4672810000000 1.0
C      1  0.5773430000000  0.5254210000000  0.4519180000000 1.0
C      1  0.4229460000000  0.5249260000000  0.5514110000000 1.0
C      1  0.5773430000000  0.4745790000000  0.5480820000000 1.0
C      1  0.4229460000000  0.4750740000000  0.4485890000000 1.0
C      1  0.5175300000000  0.4722090000000  0.3889080000000 1.0
C      1  0.4891220000000  0.4947190000000  0.5898840000000 1.0
C      1  0.5175300000000  0.5277910000000  0.6110920000000 1.0
C      1  0.4891220000000  0.5052810000000  0.4101160000000 1.0
C      1  0.5556680000000  0.4986360000000  0.5629600000000 1.0
C      1  0.4446530000000  0.4975030000000  0.4358840000000 1.0
C      1  0.5556680000000  0.5013640000000  0.4370400000000 1.0
C      1  0.4446530000000  0.5024970000000  0.5641160000000 1.0
C      1  0.4609570000000  0.5641740000000  0.4648250000000 1.0
C      1  0.5389780000000  0.5648770000000  0.5358050000000 1.0
C      1  0.4609570000000  0.4358260000000  0.5351750000000 1.0
C      1  0.5389780000000  0.4351230000000  0.4641950000000 1.0
C      1  0.5790290000000  0.4774460000000  0.5178260000000 1.0
C      1  0.4192530000000  0.4758380000000  0.4786120000000 1.0
C      1  0.5790290000000  0.5225540000000  0.4821740000000 1.0
C      1  0.4192530000000  0.5241620000000  0.5213880000000 1.0
C      1  0.4978320000000  0.4774350000000  0.4100580000000 1.0
C      1  0.5032470000000  0.4764680000000  0.5746470000000 1.0
C      1  0.4978320000000  0.5225650000000  0.5899420000000 1.0
C      1  0.5032470000000  0.5235320000000  0.4253530000000 1.0
C      1  0.4795030000000  0.5638980000000  0.5771180000000 1.0
C      1  0.5202250000000  0.5644000000000  0.4251620000000 1.0
C      1  0.4795030000000  0.4361020000000  0.4228820000000 1.0
C      1  0.5202250000000  0.4356000000000  0.5748380000000 1.0
C      1  0.4846130000000  0.4946470000000  0.4798070000000 1.0
C      1  0.5122780000000  0.4913620000000  0.5218260000000 1.0
C      1  0.4846130000000  0.5053530000000  0.5201930000000 1.0
C      1  0.5122780000000  0.5086380000000  0.4781740000000 1.0
C      1  0.5114240000000  0.4212730000000  0.4753440000000 1.0
C      1  0.4869440000000  0.4199440000000  0.5225680000000 1.0
C      1  0.5114240000000  0.5787270000000  0.5246560000000 1.0
C      1  0.4869440000000  0.5800560000000  0.4774320000000 1.0
C      1  0.5388790000000  0.4337500000000  0.5478460000000 1.0
C      1  0.4601260000000  0.4354900000000  0.4491040000000 1.0
C      1  0.5388790000000  0.5662500000000  0.4521540000000 1.0
C      1  0.4601260000000  0.5645100000000  0.5508960000000 1.0
C      1  0.4968060000000  0.4712660000000  0.5466310000000 1.0
C      1  0.5070350000000  0.4670760000000  0.4428310000000 1.0
C      1  0.4968060000000  0.5287340000000  0.4533690000000 1.0
C      1  0.5070350000000  0.5329240000000  0.5571690000000 1.0
C      1  0.4475690000000  0.4761180000000  0.4864610000000 1.0
C      1  0.5499390000000  0.4762870000000  0.5109660000000 1.0
C      1  0.4475690000000  0.5238820000000  0.5135390000000 1.0
C      1  0.5499390000000  0.5237130000000  0.4890340000000 1.0
C      1  0.4592470000000  0.5164380000000  0.4869320000000 1.0
C      1  0.5366520000000  0.5158170000000  0.5157000000000 1.0
C      1  0.4592470000000  0.4835620000000  0.5130680000000 1.0
C      1  0.5366520000000  0.4841830000000  0.4843000000000 1.0
C      1  0.5671560000000  0.5532760000000  0.4439450000000 1.0
C      1  0.4329940000000  0.5520600000000  0.5597960000000 1.0
C      1  0.5671560000000  0.4467240000000  0.5560550000000 1.0
C      1  0.4329940000000  0.4479400000000  0.4402040000000 1.0
C      1  0.4623700000000  0.4845090000000  0.4598700000000 1.0
C      1  0.5368590000000  0.4815200000000  0.5396760000000 1.0
C      1  0.4623700000000  0.5154910000000  0.5401300000000 1.0
C      1  0.5368590000000  0.5184800000000  0.4603240000000 1.0
C      1  0.4571250000000  0.5785750000000  0.5235180000000 1.0
C      1  0.5428770000000  0.5835220000000  0.4775600000000 1.0
C      1  0.4571250000000  0.4214250000000  0.4764820000000 1.0
C      1  0.5428770000000  0.4164780000000  0.5224400000000 1.0
C      1  0.5360660000000  0.4369300000000  0.4324930000000 1.0
C      1  0.4639090000000  0.4399670000000  0.5664750000000 1.0
C      1  0.5360660000000  0.5630700000000  0.5675070000000 1.0
C      1  0.4639090000000  0.5600330000000  0.4335250000000 1.0
C      1  0.4489040000000  0.4760480000000  0.4127630000000 1.0
C      1  0.5501140000000  0.4770770000000  0.5851210000000 1.0
C      1  0.4489040000000  0.5239520000000  0.5872370000000 1.0
C      1  0.5501140000000  0.5229230000000  0.4148790000000 1.0
C      1  0.5516870000000  0.5318570000000  0.5765490000000 1.0
C      1  0.4487080000000  0.5309840000000  0.4228310000000 1.0
C      1  0.5516870000000  0.4681430000000  0.4234510000000 1.0
C      1  0.4487080000000  0.4690160000000  0.5771690000000 1.0
C      1  0.4901150000000  0.5735130000000  0.4217430000000 1.0
C      1  0.5089740000000  0.5749350000000  0.5789620000000 1.0
C      1  0.4901150000000  0.4264870000000  0.5782570000000 1.0
C      1  0.5089740000000  0.4250650000000  0.4210380000000 1.0
C      1  0.5185320000000  0.5899930000000  0.4911510000000 1.0
C      1  0.4817860000000  0.5835780000000  0.5101890000000 1.0
C      1  0.5185320000000  0.4100070000000  0.5088490000000 1.0
C      1  0.4817860000000  0.4164220000000  0.4898110000000 1.0
C      1  0.4335320000000  0.4245500000000  0.4932410000000 1.0
C      1  0.5661390000000  0.4201590000000  0.5054210000000 1.0
C      1  0.4335320000000  0.5754500000000  0.5067590000000 1.0
C      1  0.5661390000000  0.5798410000000  0.4945790000000 1.0
C      1  0.5325850000000  0.4659220000000  0.4625180000000 1.0
C      1  0.4697430000000  0.4648860000000  0.5332400000000 1.0
C      1  0.5325850000000  0.5340780000000  0.5374820000000 1.0
C      1  0.4697430000000  0.5351140000000  0.4667600000000 1.0
C      1  0.5094890000000  0.5375240000000  0.4923140000000 1.0
C      1  0.4893120000000  0.5348100000000  0.5135430000000 1.0
C      1  0.5094890000000  0.4624760000000  0.5076860000000 1.0
C      1  0.4893120000000  0.4651900000000  0.4864570000000 1.0
C      1  0.5450720000000  0.4701980000000  0.3949920000000 1.0
C      1  0.4632180000000  0.4859530000000  0.5979630000000 1.0
C      1  0.5450720000000  0.5298020000000  0.6050080000000 1.0
C      1  0.4632180000000  0.5140470000000  0.4020370000000 1.0
C      1  0.6003140000000  0.4667500000000  0.5013850000000 1.0
C      1  0.3968540000000  0.4870400000000  0.4934310000000 1.0
C      1  0.6003140000000  0.5332500000000  0.4986150000000 1.0
C      1  0.3968540000000  0.5129600000000  0.5065690000000 1.0
C      1  0.5640610000000  0.5729450000000  0.5226990000000 1.0
C      1  0.4354680000000  0.5705910000000  0.4781700000000 1.0
C      1  0.5640610000000  0.4270550000000  0.4773010000000 1.0
C      1  0.4354680000000  0.4294090000000  0.5218300000000 1.0
END
