TITL C-862505-1648-421 20.4328426157469 125000 -733.356936456893 0 0 126 (C5) n - 1
REM
REM in /home/nfs/bkarasulu/CARBON/AIRSS/Generating-Clusters/TERSOFF/Higher-Symm/FIRE-HFTN
REM
REM
REM
REM
REM
REM ./C.cell (b20cbc046b6831c77cfcea5457e17084)
REM AIRSS Version 0.9.1 bugfix July 2018 build 013d7b7c2542+ Fri, 06 Jul 2018 19:26:36 +0100
REM compiler GCC version 9.2.1 20190827 (Red Hat 9.2.1-1)
REM options -cpp -mtune=generic -march=x86-64 -g -O0 -fpre-include=/usr/include/finclude/math-vector-fortran.h
REM seed -1059783088 -1761808241 -506063661 -201607060 19170279 1676201652 1743105169 64023754 187272330 2116658934 -1896075827 140650147 2079396273 -197921486 -340823413 -565332543 -2145716915 2075701700 -1454879597 1852778051 -1919273848 -1525950674 -1201204916 -1550976873 1431247732 -567784708 904965393 -247405788 -931115962 -1210779042 -623675593 -1253826520 1908378390
REM
CELL 1.54180   50.00000   50.00000   50.00000   90.00000   90.00000   90.00000
LATT -1
SFAC C  
C      1  0.5297670000000  0.4610590000000  0.5823760000000 1.0
C      1  0.5297660000000  0.5659440000000  0.5623400000000 1.0
C      1  0.5297660000000  0.5793000000000  0.4563980000000 1.0
C      1  0.5297670000000  0.4826700000000  0.4109570000000 1.0
C      1  0.5297670000000  0.4095930000000  0.4888150000000 1.0
C      1  0.4904370000000  0.4967900000000  0.4501830000000 1.0
C      1  0.4904370000000  0.4512630000000  0.4875080000000 1.0
C      1  0.4904370000000  0.4726920000000  0.5423410000000 1.0
C      1  0.4904360000000  0.5314630000000  0.5389050000000 1.0
C      1  0.4904360000000  0.5463560000000  0.4819480000000 1.0
C      1  0.6116600000000  0.5137630000000  0.5217340000000 1.0
C      1  0.6116600000000  0.5245570000000  0.4934770000000 1.0
C      1  0.6116600000000  0.5010190000000  0.4744800000000 1.0
C      1  0.6116600000000  0.4756770000000  0.4909960000000 1.0
C      1  0.6116600000000  0.4835540000000  0.5202000000000 1.0
C      1  0.4311360000000  0.4728240000000  0.5235290000000 1.0
C      1  0.4311350000000  0.5136120000000  0.5329660000000 1.0
C      1  0.4311350000000  0.5351910000000  0.4970890000000 1.0
C      1  0.4311360000000  0.5077400000000  0.4654800000000 1.0
C      1  0.4311360000000  0.4691940000000  0.4818210000000 1.0
C      1  0.3876400000000  0.5394300000000  0.5242340000000 1.0
C      1  0.3876400000000  0.5348650000000  0.4698370000000 1.0
C      1  0.3876410000000  0.4817200000000  0.4573690000000 1.0
C      1  0.3876410000000  0.4534390000000  0.5040600000000 1.0
C      1  0.3876410000000  0.4891060000000  0.5453850000000 1.0
C      1  0.4727340000000  0.4874520000000  0.5597870000000 1.0
C      1  0.4727330000000  0.5526170000000  0.5302580000000 1.0
C      1  0.4727340000000  0.5446700000000  0.4591580000000 1.0
C      1  0.4727340000000  0.4745930000000  0.4447450000000 1.0
C      1  0.4727340000000  0.4392310000000  0.5069370000000 1.0
C      1  0.5002280000000  0.4938850000000  0.4027850000000 1.0
C      1  0.5002280000000  0.4052870000000  0.4756240000000 1.0
C      1  0.5002280000000  0.4471820000000  0.5823940000000 1.0
C      1  0.5002270000000  0.5616730000000  0.5755430000000 1.0
C      1  0.5002270000000  0.5905370000000  0.4645390000000 1.0
C      1  0.5951400000000  0.4527370000000  0.4825030000000 1.0
C      1  0.5951400000000  0.4683880000000  0.5393940000000 1.0
C      1  0.5951390000000  0.5273300000000  0.5420890000000 1.0
C      1  0.5951390000000  0.5481080000000  0.4868640000000 1.0
C      1  0.5951400000000  0.5020070000000  0.4500380000000 1.0
C      1  0.5840060000000  0.5115700000000  0.5640020000000 1.0
C      1  0.5840060000000  0.5640780000000  0.5086250000000 1.0
C      1  0.5840060000000  0.5276370000000  0.4415740000000 1.0
C      1  0.5840070000000  0.4526070000000  0.4555110000000 1.0
C      1  0.5840070000000  0.4426770000000  0.5311760000000 1.0
C      1  0.4009560000000  0.4660650000000  0.4798110000000 1.0
C      1  0.4009560000000  0.4699460000000  0.5258840000000 1.0
C      1  0.4009560000000  0.5149630000000  0.5364300000000 1.0
C      1  0.4009560000000  0.5389040000000  0.4968750000000 1.0
C      1  0.4009560000000  0.5086830000000  0.4618830000000 1.0
C      1  0.4447200000000  0.5306780000000  0.4311670000000 1.0
C      1  0.4447210000000  0.4436490000000  0.4494010000000 1.0
C      1  0.4447210000000  0.4340980000000  0.5378060000000 1.0
C      1  0.4447200000000  0.5152230000000  0.5742080000000 1.0
C      1  0.4447190000000  0.5749130000000  0.5083020000000 1.0
C      1  0.4836910000000  0.4531040000000  0.4297390000000 1.0
C      1  0.4836910000000  0.4183190000000  0.5227380000000 1.0
C      1  0.4836900000000  0.4960180000000  0.5845590000000 1.0
C      1  0.4836890000000  0.5788230000000  0.5297670000000 1.0
C      1  0.4836900000000  0.5523010000000  0.4340830000000 1.0
C      1  0.5582700000000  0.5269650000000  0.4256800000000 1.0
C      1  0.5582710000000  0.4372840000000  0.4512380000000 1.0
C      1  0.5582710000000  0.4338780000000  0.5444290000000 1.0
C      1  0.5582700000000  0.5214550000000  0.5764650000000 1.0
C      1  0.5582700000000  0.5789860000000  0.5030740000000 1.0
C      1  0.4682080000000  0.4464730000000  0.5840090000000 1.0
C      1  0.4682070000000  0.5629900000000  0.5767160000000 1.0
C      1  0.4682070000000  0.5920590000000  0.4636490000000 1.0
C      1  0.4682080000000  0.4935090000000  0.4010620000000 1.0
C      1  0.4682090000000  0.4035320000000  0.4754490000000 1.0
C      1  0.5522570000000  0.5887080000000  0.4747130000000 1.0
C      1  0.5522590000000  0.5029970000000  0.4076690000000 1.0
C      1  0.5522590000000  0.4127480000000  0.4684680000000 1.0
C      1  0.5522590000000  0.4426830000000  0.5730880000000 1.0
C      1  0.5522580000000  0.5514320000000  0.5769470000000 1.0
C      1  0.4490200000000  0.5021170000000  0.4237920000000 1.0
C      1  0.4490200000000  0.4278100000000  0.4742860000000 1.0
C      1  0.4490200000000  0.4528690000000  0.5605600000000 1.0
C      1  0.4490190000000  0.5426650000000  0.5633870000000 1.0
C      1  0.4490190000000  0.5731020000000  0.4788600000000 1.0
C      1  0.5074370000000  0.4423700000000  0.4408820000000 1.0
C      1  0.5074370000000  0.4256000000000  0.5363900000000 1.0
C      1  0.5074360000000  0.5112520000000  0.5818540000000 1.0
C      1  0.5074360000000  0.5809580000000  0.5144430000000 1.0
C      1  0.5074360000000  0.5383860000000  0.4273170000000 1.0
C      1  0.4413460000000  0.4434770000000  0.5050680000000 1.0
C      1  0.4413460000000  0.4869860000000  0.5551720000000 1.0
C      1  0.4413450000000  0.5480830000000  0.5292750000000 1.0
C      1  0.4413450000000  0.5423330000000  0.4631660000000 1.0
C      1  0.4413460000000  0.4776830000000  0.4482050000000 1.0
C      1  0.5337090000000  0.4553020000000  0.4340770000000 1.0
C      1  0.5337090000000  0.4231240000000  0.5219880000000 1.0
C      1  0.5337080000000  0.4967900000000  0.5797580000000 1.0
C      1  0.5337070000000  0.5744960000000  0.5275500000000 1.0
C      1  0.5337080000000  0.5488550000000  0.4375130000000 1.0
C      1  0.4103950000000  0.4738240000000  0.4379220000000 1.0
C      1  0.4103950000000  0.4325040000000  0.5055600000000 1.0
C      1  0.4103950000000  0.4840640000000  0.5657590000000 1.0
C      1  0.4103940000000  0.5572490000000  0.5353250000000 1.0
C      1  0.4103940000000  0.5509200000000  0.4563180000000 1.0
C      1  0.5020140000000  0.5341940000000  0.5650090000000 1.0
C      1  0.5020140000000  0.5720270000000  0.4874180000000 1.0
C      1  0.5020150000000  0.5099250000000  0.4274590000000 1.0
C      1  0.5020160000000  0.4337100000000  0.4679940000000 1.0
C      1  0.5020150000000  0.4487090000000  0.5530050000000 1.0
C      1  0.5049170000000  0.5236440000000  0.4902160000000 1.0
C      1  0.5049170000000  0.4976350000000  0.4743390000000 1.0
C      1  0.5049170000000  0.4744980000000  0.4941690000000 1.0
C      1  0.5049170000000  0.4862070000000  0.5223020000000 1.0
C      1  0.5049170000000  0.5165810000000  0.5198590000000 1.0
C      1  0.5487230000000  0.4445610000000  0.5022490000000 1.0
C      1  0.5487220000000  0.4846410000000  0.5532700000000 1.0
C      1  0.5487220000000  0.5455500000000  0.5309190000000 1.0
C      1  0.5487220000000  0.5431140000000  0.4660830000000 1.0
C      1  0.5487230000000  0.4807000000000  0.4483650000000 1.0
C      1  0.5781230000000  0.4838750000000  0.5567330000000 1.0
C      1  0.5781220000000  0.5486060000000  0.5327180000000 1.0
C      1  0.5781220000000  0.5457700000000  0.4637330000000 1.0
C      1  0.5781230000000  0.4792850000000  0.4451130000000 1.0
C      1  0.5781230000000  0.4410320000000  0.5025900000000 1.0
C      1  0.5374600000000  0.4715470000000  0.5001940000000 1.0
C      1  0.5374600000000  0.4910250000000  0.5269700000000 1.0
C      1  0.5374600000000  0.5225100000000  0.5167190000000 1.0
C      1  0.5374600000000  0.5224900000000  0.4836080000000 1.0
C      1  0.5374600000000  0.4909930000000  0.4733950000000 1.0
C      1  0.4372790000000  0.4997120000000  0.5001770000000 1.0
END
