TITL C-862503-991-755 -0.000370071543501992 125000 -163.157351303053 0 0 30 (C1) n - 1
REM
REM in /home/nfs/bkarasulu/CARBON/AIRSS/Generating-Clusters/TERSOFF/Higher-Symm/FIRE-HFTN
REM
REM
REM
REM
REM
REM ./C.cell (b20cbc046b6831c77cfcea5457e17084)
REM AIRSS Version 0.9.1 bugfix July 2018 build 013d7b7c2542+ Fri, 06 Jul 2018 19:26:36 +0100
REM compiler GCC version 9.2.1 20190827 (Red Hat 9.2.1-1)
REM options -cpp -mtune=generic -march=x86-64 -g -O0 -fpre-include=/usr/include/finclude/math-vector-fortran.h
REM seed -414412907 -171395683 -1005979654 -583142853 -1466300603 1088113174 -1700482706 1018500204 1362144968 599206018 -206048645 -1802612784 1937953797 -901398116 -996756498 -1843146125 -1167355437 -1355889839 -467666185 -714010724 1168592357 -2128198769 -1345904202 1869548640 -365902314 375969538 1825360854 -1189262081 1874438635 1216104497 162230293 1881506928 1752196422
REM
CELL 1.54180   50.00000   50.00000   50.00000   90.00000   90.00000   90.00000
LATT -1
SFAC C  
C      1  0.4774530000000  0.5105020000000  0.5537620000000 1.0
C      1  0.4975840000000  0.4907710000000  0.5102650000000 1.0
C      1  0.4741180000000  0.5066170000000  0.5248140000000 1.0
C      1  0.4321160000000  0.4988350000000  0.4909030000000 1.0
C      1  0.4776240000000  0.4417960000000  0.5499030000000 1.0
C      1  0.5433370000000  0.5439860000000  0.5091920000000 1.0
C      1  0.5415060000000  0.4729100000000  0.5701100000000 1.0
C      1  0.5168610000000  0.4476330000000  0.5188630000000 1.0
C      1  0.5040610000000  0.4407020000000  0.4938460000000 1.0
C      1  0.5102380000000  0.4703450000000  0.4501390000000 1.0
C      1  0.5272700000000  0.4947860000000  0.5102380000000 1.0
C      1  0.4850780000000  0.5281810000000  0.4785460000000 1.0
C      1  0.5409620000000  0.5092610000000  0.4452540000000 1.0
C      1  0.5346750000000  0.4842650000000  0.4589860000000 1.0
C      1  0.5422160000000  0.4820710000000  0.4877670000000 1.0
C      1  0.4604300000000  0.5277330000000  0.4618430000000 1.0
C      1  0.4442470000000  0.5031750000000  0.4639080000000 1.0
C      1  0.5243680000000  0.5574930000000  0.4912630000000 1.0
C      1  0.5247930000000  0.5334460000000  0.4468630000000 1.0
C      1  0.5101330000000  0.5421430000000  0.4706790000000 1.0
C      1  0.4586810000000  0.4801450000000  0.4516770000000 1.0
C      1  0.4974150000000  0.4972640000000  0.5700110000000 1.0
C      1  0.5139200000000  0.4750190000000  0.5611640000000 1.0
C      1  0.4475580000000  0.4931560000000  0.5161660000000 1.0
C      1  0.5196990000000  0.5860710000000  0.4939130000000 1.0
C      1  0.4856190000000  0.4785570000000  0.4628410000000 1.0
C      1  0.4770610000000  0.5314460000000  0.5076490000000 1.0
C      1  0.5382730000000  0.5186670000000  0.5229020000000 1.0
C      1  0.5027830000000  0.4547820000000  0.5432800000000 1.0
C      1  0.4899210000000  0.4982400000000  0.4832510000000 1.0
END
