TITL C-862131-2149-379 4.0331202824425e-05 125000 -199.113403888517 0 0 37 (C3) n - 1
REM
REM in /home/nfs/bkarasulu/CARBON/AIRSS/Generating-Clusters/TERSOFF/Higher-Symm/FIRE-HFTN
REM
REM
REM
REM
REM
REM ./C.cell (b20cbc046b6831c77cfcea5457e17084)
REM AIRSS Version 0.9.1 bugfix July 2018 build 013d7b7c2542+ Fri, 06 Jul 2018 19:26:36 +0100
REM compiler GCC version 9.2.1 20190827 (Red Hat 9.2.1-1)
REM options -cpp -mtune=generic -march=x86-64 -g -O0 -fpre-include=/usr/include/finclude/math-vector-fortran.h
REM seed 1026443519 1218655637 374077001 743472659 -763334353 1148209572 1572636937 -1750557434 1661397963 607361676 1986499145 1841119152 106000018 -96163973 -1806735361 1800431667 2100724126 -1463980924 -149348754 1119632854 913448670 -480535896 1052703487 -1740781762 614317999 1365728516 -1154233261 -597715455 -910166750 -551056957 -1411878395 -1077299202 1280333511
REM
CELL 1.54180   50.00000   50.00000   50.00000   90.00000   90.00000   90.00000
LATT -1
SFAC C  
C      1  0.4968080000000  0.5347800000000  0.5463730000000 1.0
C      1  0.5394610000000  0.5347800000000  0.4805690000000 1.0
C      1  0.4611470000000  0.5347800000000  0.4765320000000 1.0
C      1  0.4884770000000  0.5494400000000  0.4724730000000 1.0
C      1  0.4796270000000  0.5494400000000  0.5247330000000 1.0
C      1  0.5293110000000  0.5494400000000  0.5062680000000 1.0
C      1  0.5270240000000  0.4921710000000  0.5431320000000 1.0
C      1  0.5215460000000  0.4921710000000  0.4560220000000 1.0
C      1  0.4488460000000  0.4921710000000  0.5043210000000 1.0
C      1  0.5482710000000  0.4788400000000  0.4975490000000 1.0
C      1  0.4714470000000  0.4788400000000  0.4604120000000 1.0
C      1  0.4776980000000  0.4788400000000  0.5455120000000 1.0
C      1  0.5025100000000  0.4765570000000  0.4705300000000 1.0
C      1  0.4709280000000  0.4765570000000  0.5135530000000 1.0
C      1  0.5239780000000  0.4765570000000  0.5193920000000 1.0
C      1  0.5075220000000  0.5136070000000  0.4426630000000 1.0
C      1  0.4442890000000  0.5136070000000  0.5231460000000 1.0
C      1  0.5456060000000  0.5136070000000  0.5376660000000 1.0
C      1  0.5199770000000  0.4457320000000  0.5244290000000 1.0
C      1  0.5088720000000  0.4457320000000  0.4714760000000 1.0
C      1  0.4685670000000  0.4457320000000  0.5075690000000 1.0
C      1  0.4785980000000  0.5048650000000  0.4398340000000 1.0
C      1  0.4563010000000  0.5048650000000  0.5496090000000 1.0
C      1  0.5625180000000  0.5048650000000  0.5140310000000 1.0
C      1  0.5669090000000  0.5269780000000  0.4949410000000 1.0
C      1  0.4598690000000  0.5269780000000  0.4455760000000 1.0
C      1  0.4706380000000  0.5269780000000  0.5629580000000 1.0
C      1  0.4577280000000  0.5369610000000  0.5095000000000 1.0
C      1  0.5270680000000  0.5369610000000  0.5328500000000 1.0
C      1  0.5126200000000  0.5369610000000  0.4611240000000 1.0
C      1  0.4904820000000  0.4460910000000  0.5344780000000 1.0
C      1  0.5323230000000  0.4460910000000  0.4919950000000 1.0
C      1  0.4746110000000  0.4460910000000  0.4770020000000 1.0
C      1  0.4548520000000  0.5004900000000  0.4777370000000 1.0
C      1  0.5009990000000  0.5004900000000  0.5512220000000 1.0
C      1  0.5415650000000  0.5004900000000  0.4745150000000 1.0
C      1  0.4991390000000  0.4822710000000  0.5011580000000 1.0
END
