TITL C-862507-1800-901 0.000400186591520536 125000 -197.309984540073 0 0 38 (C2) n - 1
REM
REM in /home/nfs/bkarasulu/CARBON/AIRSS/Generating-Clusters/TERSOFF/Higher-Symm/FIRE-HFTN
REM
REM
REM
REM
REM
REM ./C.cell (b20cbc046b6831c77cfcea5457e17084)
REM AIRSS Version 0.9.1 bugfix July 2018 build 013d7b7c2542+ Fri, 06 Jul 2018 19:26:36 +0100
REM compiler GCC version 9.2.1 20190827 (Red Hat 9.2.1-1)
REM options -cpp -mtune=generic -march=x86-64 -g -O0 -fpre-include=/usr/include/finclude/math-vector-fortran.h
REM seed 1512631339 1606615669 -919290754 -1959198959 493860210 1927000207 -233079422 379538873 860094931 672993647 -426943865 -2048875331 1513449535 -1392539448 -879965999 1929943643 1907699975 -925281641 1572005597 -1466547278 63158399 -233598972 1844417876 1951552994 -1586115612 667552391 97260562 -952832527 -98756467 1126889366 336873627 -1692158535 -1185018952
REM
CELL 1.54180   50.00000   50.00000   50.00000   90.00000   90.00000   90.00000
LATT -1
SFAC C  
C      1  0.4915920000000  0.4759680000000  0.4566410000000 1.0
C      1  0.4915920000000  0.5240320000000  0.5433590000000 1.0
C      1  0.4496000000000  0.5097360000000  0.4630580000000 1.0
C      1  0.4496000000000  0.4902640000000  0.5369420000000 1.0
C      1  0.4873740000000  0.4903830000000  0.5185830000000 1.0
C      1  0.4873740000000  0.5096170000000  0.4814170000000 1.0
C      1  0.5213950000000  0.5119730000000  0.4412280000000 1.0
C      1  0.5213950000000  0.4880270000000  0.5587720000000 1.0
C      1  0.4858180000000  0.4356750000000  0.5207160000000 1.0
C      1  0.4858180000000  0.5643250000000  0.4792840000000 1.0
C      1  0.5169130000000  0.5414290000000  0.4447750000000 1.0
C      1  0.5169130000000  0.4585710000000  0.5552250000000 1.0
C      1  0.4939630000000  0.4999710000000  0.4401830000000 1.0
C      1  0.4939630000000  0.5000290000000  0.5598170000000 1.0
C      1  0.4867770000000  0.5530060000000  0.5070610000000 1.0
C      1  0.4867770000000  0.4469940000000  0.4929390000000 1.0
C      1  0.5457750000000  0.5235580000000  0.4851520000000 1.0
C      1  0.5457750000000  0.4764420000000  0.5148480000000 1.0
C      1  0.4758570000000  0.5210160000000  0.4540000000000 1.0
C      1  0.4758570000000  0.4789840000000  0.5460000000000 1.0
C      1  0.4492160000000  0.5070650000000  0.5131730000000 1.0
C      1  0.4492160000000  0.4929350000000  0.4868270000000 1.0
C      1  0.4954070000000  0.5223730000000  0.5118760000000 1.0
C      1  0.4954070000000  0.4776270000000  0.4881240000000 1.0
C      1  0.5254590000000  0.5125930000000  0.5085060000000 1.0
C      1  0.5254590000000  0.4874070000000  0.4914940000000 1.0
C      1  0.4894830000000  0.5485330000000  0.4550120000000 1.0
C      1  0.4894830000000  0.4514670000000  0.5449880000000 1.0
C      1  0.5384540000000  0.4480620000000  0.5061210000000 1.0
C      1  0.5384540000000  0.5519380000000  0.4938790000000 1.0
C      1  0.5209390000000  0.5550730000000  0.5178680000000 1.0
C      1  0.5209390000000  0.4449270000000  0.4821320000000 1.0
C      1  0.4563770000000  0.4625570000000  0.4846110000000 1.0
C      1  0.4563770000000  0.5374430000000  0.5153890000000 1.0
C      1  0.5311300000000  0.4619540000000  0.4586170000000 1.0
C      1  0.5311300000000  0.5380460000000  0.5413830000000 1.0
C      1  0.5384720000000  0.5030350000000  0.5382060000000 1.0
C      1  0.5384720000000  0.4969650000000  0.4617940000000 1.0
END
