TITL C-862134-6730-8 -0.000183400699072933 125000 -954.771645137227 0 0 169 (C2) n - 1
REM
REM in /home/nfs/bkarasulu/CARBON/AIRSS/Generating-Clusters/TERSOFF/Higher-Symm/FIRE-HFTN
REM
REM
REM
REM
REM
REM ./C.cell (b20cbc046b6831c77cfcea5457e17084)
REM AIRSS Version 0.9.1 bugfix July 2018 build 013d7b7c2542+ Fri, 06 Jul 2018 19:26:36 +0100
REM compiler GCC version 9.2.1 20190827 (Red Hat 9.2.1-1)
REM options -cpp -mtune=generic -march=x86-64 -g -O0 -fpre-include=/usr/include/finclude/math-vector-fortran.h
REM seed -625420400 -1225241272 1654521123 769082600 387861310 466271163 317583884 -775251171 -1208749582 -1541947924 -589471067 -1471362091 1394593640 81107488 514601732 483597478 1996751921 16219610 503501102 1817714460 -779237069 -1514845956 174610834 -664014160 -833285102 917724702 -721082362 -1113498539 -1180225478 239411772 1409101139 -970987967 -1347143832
REM
CELL 1.54180   50.00000   50.00000   50.00000   90.00000   90.00000   90.00000
LATT -1
SFAC C  
C      1  0.4365440000000  0.5440750000000  0.5676270000000 1.0
C      1  0.4365440000000  0.4562090000000  0.4319170000000 1.0
C      1  0.5625220000000  0.5419480000000  0.5669930000000 1.0
C      1  0.5625230000000  0.4583380000000  0.4325490000000 1.0
C      1  0.5259240000000  0.5197670000000  0.4518260000000 1.0
C      1  0.5259250000000  0.4805180000000  0.5477170000000 1.0
C      1  0.4707510000000  0.5244940000000  0.4451440000000 1.0
C      1  0.4707520000000  0.4757900000000  0.5543990000000 1.0
C      1  0.5407600000000  0.5146040000000  0.4936270000000 1.0
C      1  0.5407610000000  0.4856820000000  0.5059160000000 1.0
C      1  0.4626990000000  0.5137720000000  0.4939040000000 1.0
C      1  0.4626990000000  0.4865120000000  0.5056400000000 1.0
C      1  0.5281110000000  0.3964220000000  0.5217390000000 1.0
C      1  0.5281080000000  0.6038640000000  0.4778040000000 1.0
C      1  0.4742840000000  0.3958000000000  0.5240280000000 1.0
C      1  0.4742810000000  0.6044840000000  0.4755150000000 1.0
C      1  0.5550730000000  0.5405060000000  0.4186420000000 1.0
C      1  0.5550750000000  0.4597800000000  0.5809000000000 1.0
C      1  0.4445880000000  0.5434700000000  0.4183500000000 1.0
C      1  0.4445900000000  0.4568130000000  0.5811940000000 1.0
C      1  0.4150330000000  0.5489960000000  0.4611820000000 1.0
C      1  0.4150350000000  0.4512860000000  0.5383620000000 1.0
C      1  0.5886680000000  0.5504830000000  0.4644980000000 1.0
C      1  0.5886700000000  0.4498040000000  0.5350440000000 1.0
C      1  0.5296870000000  0.5908760000000  0.4441650000000 1.0
C      1  0.5296900000000  0.4094100000000  0.5553780000000 1.0
C      1  0.4707170000000  0.5948120000000  0.4407130000000 1.0
C      1  0.4707200000000  0.4054720000000  0.5588310000000 1.0
C      1  0.4741280000000  0.4438030000000  0.5175040000000 1.0
C      1  0.4741270000000  0.5564810000000  0.4820400000000 1.0
C      1  0.5268510000000  0.4432500000000  0.5169830000000 1.0
C      1  0.5268500000000  0.5570360000000  0.4825600000000 1.0
C      1  0.4832220000000  0.5378980000000  0.5040440000000 1.0
C      1  0.4832230000000  0.4623860000000  0.4955000000000 1.0
C      1  0.5178950000000  0.5385790000000  0.5040570000000 1.0
C      1  0.5178960000000  0.4617060000000  0.4954860000000 1.0
C      1  0.5756960000000  0.4910310000000  0.4250570000000 1.0
C      1  0.5756960000000  0.5092560000000  0.5744850000000 1.0
C      1  0.4245310000000  0.4896070000000  0.4244750000000 1.0
C      1  0.4245310000000  0.5106760000000  0.5750700000000 1.0
C      1  0.4855090000000  0.4245790000000  0.5756320000000 1.0
C      1  0.4855060000000  0.5757050000000  0.4239120000000 1.0
C      1  0.5147080000000  0.4258420000000  0.5746540000000 1.0
C      1  0.5147050000000  0.5744430000000  0.4248890000000 1.0
C      1  0.4395090000000  0.5889960000000  0.4430070000000 1.0
C      1  0.4395120000000  0.4112870000000  0.5565370000000 1.0
C      1  0.5588450000000  0.5811360000000  0.4458050000000 1.0
C      1  0.5588480000000  0.4191500000000  0.5537380000000 1.0
C      1  0.5142390000000  0.5410290000000  0.3871630000000 1.0
C      1  0.5142410000000  0.4592560000000  0.6123800000000 1.0
C      1  0.4854760000000  0.5413280000000  0.3873700000000 1.0
C      1  0.4854780000000  0.4589560000000  0.6121730000000 1.0
C      1  0.4820980000000  0.4561900000000  0.4005550000000 1.0
C      1  0.4820980000000  0.5440940000000  0.5989890000000 1.0
C      1  0.5137540000000  0.4577820000000  0.4048160000000 1.0
C      1  0.5137540000000  0.5425030000000  0.5947270000000 1.0
C      1  0.5862240000000  0.4871880000000  0.5161940000000 1.0
C      1  0.5862240000000  0.5130990000000  0.4833480000000 1.0
C      1  0.4138500000000  0.4887240000000  0.5175580000000 1.0
C      1  0.4138490000000  0.5115590000000  0.4819860000000 1.0
C      1  0.5346080000000  0.5027540000000  0.3993810000000 1.0
C      1  0.5346100000000  0.4975320000000  0.6001620000000 1.0
C      1  0.4642230000000  0.5033150000000  0.3951310000000 1.0
C      1  0.4642240000000  0.4969690000000  0.6044130000000 1.0
C      1  0.4584420000000  0.4277020000000  0.4361930000000 1.0
C      1  0.4584410000000  0.5725820000000  0.5633510000000 1.0
C      1  0.5408410000000  0.4298420000000  0.4365990000000 1.0
C      1  0.5408400000000  0.5704440000000  0.5629440000000 1.0
C      1  0.5604800000000  0.5118520000000  0.4094020000000 1.0
C      1  0.5604820000000  0.4884340000000  0.5901400000000 1.0
C      1  0.4394470000000  0.5121750000000  0.4094910000000 1.0
C      1  0.4394480000000  0.4881080000000  0.5900520000000 1.0
C      1  0.4850480000000  0.5934690000000  0.5039990000000 1.0
C      1  0.4850500000000  0.4068150000000  0.4955440000000 1.0
C      1  0.5163000000000  0.5932200000000  0.5046470000000 1.0
C      1  0.5163020000000  0.4070660000000  0.4948960000000 1.0
C      1  0.4292290000000  0.5673220000000  0.5227170000000 1.0
C      1  0.4292310000000  0.4329610000000  0.4768270000000 1.0
C      1  0.5718780000000  0.5677650000000  0.5245310000000 1.0
C      1  0.5718800000000  0.4325210000000  0.4750110000000 1.0
C      1  0.4605130000000  0.4673350000000  0.4496660000000 1.0
C      1  0.4605130000000  0.5329490000000  0.5498780000000 1.0
C      1  0.5378290000000  0.4691950000000  0.4508560000000 1.0
C      1  0.5378280000000  0.5310910000000  0.5486870000000 1.0
C      1  0.4439950000000  0.5966880000000  0.4729610000000 1.0
C      1  0.4439980000000  0.4035960000000  0.5265830000000 1.0
C      1  0.5590560000000  0.5969440000000  0.4735040000000 1.0
C      1  0.5590590000000  0.4033420000000  0.5260390000000 1.0
C      1  0.5566230000000  0.4810150000000  0.5352550000000 1.0
C      1  0.5566220000000  0.5192710000000  0.4642870000000 1.0
C      1  0.4450710000000  0.4849340000000  0.5317860000000 1.0
C      1  0.4450700000000  0.5153490000000  0.4677580000000 1.0
C      1  0.5174640000000  0.5717600000000  0.5823880000000 1.0
C      1  0.5174650000000  0.4285250000000  0.4171560000000 1.0
C      1  0.4814790000000  0.5730840000000  0.5834850000000 1.0
C      1  0.4814800000000  0.4272010000000  0.4160590000000 1.0
C      1  0.6061450000000  0.5277490000000  0.5405000000000 1.0
C      1  0.6061450000000  0.4725380000000  0.4590420000000 1.0
C      1  0.3950170000000  0.5277210000000  0.5405120000000 1.0
C      1  0.3950170000000  0.4725610000000  0.4590320000000 1.0
C      1  0.5310030000000  0.5244440000000  0.6115200000000 1.0
C      1  0.5310020000000  0.4758420000000  0.3880230000000 1.0
C      1  0.4666010000000  0.5240160000000  0.6154130000000 1.0
C      1  0.4666000000000  0.4762680000000  0.3841310000000 1.0
C      1  0.5151170000000  0.4774890000000  0.4315050000000 1.0
C      1  0.5151170000000  0.5227960000000  0.5680380000000 1.0
C      1  0.4812900000000  0.4747750000000  0.4270710000000 1.0
C      1  0.4812910000000  0.5255090000000  0.5724720000000 1.0
C      1  0.4012610000000  0.4960980000000  0.4410370000000 1.0
C      1  0.4012610000000  0.5041840000000  0.5585080000000 1.0
C      1  0.6000340000000  0.4973370000000  0.4415610000000 1.0
C      1  0.6000350000000  0.5029510000000  0.5579810000000 1.0
C      1  0.5296680000000  0.4466220000000  0.5912100000000 1.0
C      1  0.5296660000000  0.5536630000000  0.4083330000000 1.0
C      1  0.4705790000000  0.4454580000000  0.5911710000000 1.0
C      1  0.4705760000000  0.5548260000000  0.4083730000000 1.0
C      1  0.5773910000000  0.5276060000000  0.5092920000000 1.0
C      1  0.5773920000000  0.4726810000000  0.4902500000000 1.0
C      1  0.4251140000000  0.5276360000000  0.5065190000000 1.0
C      1  0.4251150000000  0.4726470000000  0.4930250000000 1.0
C      1  0.3996840000000  0.4769880000000  0.5431560000000 1.0
C      1  0.3996830000000  0.5232950000000  0.4563890000000 1.0
C      1  0.6040930000000  0.4760550000000  0.5410850000000 1.0
C      1  0.6040920000000  0.5242330000000  0.4584570000000 1.0
C      1  0.4247720000000  0.4444150000000  0.5053560000000 1.0
C      1  0.4247700000000  0.5558680000000  0.4941880000000 1.0
C      1  0.5771070000000  0.4443030000000  0.5028680000000 1.0
C      1  0.5771050000000  0.5559840000000  0.4966740000000 1.0
C      1  0.3873190000000  0.4890760000000  0.4854300000000 1.0
C      1  0.3873190000000  0.5112050000000  0.5141150000000 1.0
C      1  0.6135880000000  0.4926590000000  0.4844620000000 1.0
C      1  0.6135880000000  0.5076290000000  0.5150800000000 1.0
C      1  0.4484470000000  0.5702060000000  0.4847350000000 1.0
C      1  0.4484490000000  0.4300780000000  0.5148090000000 1.0
C      1  0.5532210000000  0.5702290000000  0.4859470000000 1.0
C      1  0.5532230000000  0.4300570000000  0.5135950000000 1.0
C      1  0.4164160000000  0.5506010000000  0.5448100000000 1.0
C      1  0.4164170000000  0.4496820000000  0.4547350000000 1.0
C      1  0.5836430000000  0.5497610000000  0.5458440000000 1.0
C      1  0.5836440000000  0.4505260000000  0.4536980000000 1.0
C      1  0.5158630000000  0.5076080000000  0.4229950000000 1.0
C      1  0.5158640000000  0.4926770000000  0.5765480000000 1.0
C      1  0.4835600000000  0.5087010000000  0.4188320000000 1.0
C      1  0.4835610000000  0.4915830000000  0.5807110000000 1.0
C      1  0.5151480000000  0.5473790000000  0.4569700000000 1.0
C      1  0.5151500000000  0.4529060000000  0.5425740000000 1.0
C      1  0.4851920000000  0.5487950000000  0.4561080000000 1.0
C      1  0.4851940000000  0.4514900000000  0.5434350000000 1.0
C      1  0.5579550000000  0.4863440000000  0.4676110000000 1.0
C      1  0.5579550000000  0.5139420000000  0.5319320000000 1.0
C      1  0.4429570000000  0.4844570000000  0.4686440000000 1.0
C      1  0.4429570000000  0.5158260000000  0.5309000000000 1.0
C      1  0.4627160000000  0.4209770000000  0.4710370000000 1.0
C      1  0.4627140000000  0.5793070000000  0.5285070000000 1.0
C      1  0.5378980000000  0.4217310000000  0.4700290000000 1.0
C      1  0.5378960000000  0.5785550000000  0.5295140000000 1.0
C      1  0.4728280000000  0.4500470000000  0.4701580000000 1.0
C      1  0.4728280000000  0.5502370000000  0.5293860000000 1.0
C      1  0.5276440000000  0.4506950000000  0.4705760000000 1.0
C      1  0.5276430000000  0.5495910000000  0.5289670000000 1.0
C      1  0.5641340000000  0.4502060000000  0.5536100000000 1.0
C      1  0.5641330000000  0.5500800000000  0.4459320000000 1.0
C      1  0.4297950000000  0.4393110000000  0.5608120000000 1.0
C      1  0.4297930000000  0.5609720000000  0.4387320000000 1.0
C      1  0.4835430000000  0.4997600000000  0.5395480000000 1.0
C      1  0.4835430000000  0.5005240000000  0.4599960000000 1.0
C      1  0.5092870000000  0.5000580000000  0.5295280000000 1.0
C      1  0.5092870000000  0.5002270000000  0.4700150000000 1.0
C      1  0.5019240000000  0.5001420000000  0.4997720000000 1.0
END
