TITL C-862132-7359-523 -9.05328012029804e-05 125000 -108.872816220881 0 0 23 (C1) n - 1
REM
REM in /home/nfs/bkarasulu/CARBON/AIRSS/Generating-Clusters/TERSOFF/Higher-Symm/FIRE-HFTN
REM
REM
REM
REM
REM
REM ./C.cell (b20cbc046b6831c77cfcea5457e17084)
REM AIRSS Version 0.9.1 bugfix July 2018 build 013d7b7c2542+ Fri, 06 Jul 2018 19:26:36 +0100
REM compiler GCC version 9.2.1 20190827 (Red Hat 9.2.1-1)
REM options -cpp -mtune=generic -march=x86-64 -g -O0 -fpre-include=/usr/include/finclude/math-vector-fortran.h
REM seed -206491498 -1908625182 2047294128 -127717909 -1642670296 1596550303 -1197634162 -1491360656 -7467422 1608324491 2028027317 583821917 1773941116 1297893319 1314757802 1006406296 -110312908 -1225777350 825475354 -1663314658 620222789 -708402322 -1079106795 1558903453 -274845556 -781522406 760386989 -346937791 -1284237970 -303827565 -1280064710 -1518958875 408930927
REM
CELL 1.54180   50.00000   50.00000   50.00000   90.00000   90.00000   90.00000
LATT -1
SFAC C  
C      1  0.4699310000000  0.4994740000000  0.4610290000000 1.0
C      1  0.4622270000000  0.4720210000000  0.5006580000000 1.0
C      1  0.5095920000000  0.4694300000000  0.4754150000000 1.0
C      1  0.5178430000000  0.5008250000000  0.4597890000000 1.0
C      1  0.5256690000000  0.5006000000000  0.5370900000000 1.0
C      1  0.4794500000000  0.4986980000000  0.5370030000000 1.0
C      1  0.5315200000000  0.5225290000000  0.5119400000000 1.0
C      1  0.5339410000000  0.4711650000000  0.4985570000000 1.0
C      1  0.4653810000000  0.5216830000000  0.4857680000000 1.0
C      1  0.4928680000000  0.5413350000000  0.4787310000000 1.0
C      1  0.4846960000000  0.4661500000000  0.5246620000000 1.0
C      1  0.5038240000000  0.5403840000000  0.5192260000000 1.0
C      1  0.5467460000000  0.4980610000000  0.4978390000000 1.0
C      1  0.4980140000000  0.5635860000000  0.4996550000000 1.0
C      1  0.5025680000000  0.5058570000000  0.5548460000000 1.0
C      1  0.4495030000000  0.4984990000000  0.5011880000000 1.0
C      1  0.4977960000000  0.4497930000000  0.4990600000000 1.0
C      1  0.4930200000000  0.5052200000000  0.4436910000000 1.0
C      1  0.5192350000000  0.5252900000000  0.4783780000000 1.0
C      1  0.5201290000000  0.4730330000000  0.5259000000000 1.0
C      1  0.4787330000000  0.5232040000000  0.5184360000000 1.0
C      1  0.4735220000000  0.4705880000000  0.4718720000000 1.0
C      1  0.4985610000000  0.4936260000000  0.4963730000000 1.0
END
