TITL C-862500-986-1430 -0.00971897430071787 125000 -753.162710815382 0 0 140 (Cs) n - 1
REM
REM in /home/nfs/bkarasulu/CARBON/AIRSS/Generating-Clusters/TERSOFF/Higher-Symm/FIRE-HFTN
REM
REM
REM
REM
REM
REM ./C.cell (b20cbc046b6831c77cfcea5457e17084)
REM AIRSS Version 0.9.1 bugfix July 2018 build 013d7b7c2542+ Fri, 06 Jul 2018 19:26:36 +0100
REM compiler GCC version 9.2.1 20190827 (Red Hat 9.2.1-1)
REM options -cpp -mtune=generic -march=x86-64 -g -O0 -fpre-include=/usr/include/finclude/math-vector-fortran.h
REM seed -463551006 1439671007 -945214991 -1853361181 -664594398 -1827953515 441908577 10120806 -364967747 110924135 923513764 -1804274107 -389780821 -1940553771 389519083 887795853 -1444080247 1735194188 872314588 -750007920 -1465129813 -1460024441 -954356861 2034229004 1637982234 224955859 -875079388 -151541886 -1931770590 1557044208 -814755334 -2093283123 1880623653
REM
CELL 1.54180   50.00000   50.00000   50.00000   90.00000   90.00000   90.00000
LATT -1
SFAC C  
C      1  0.5671930000000  0.5475460000000  0.5310520000000 1.0
C      1  0.5638210000000  0.4973200000000  0.4459570000000 1.0
C      1  0.5541050000000  0.4690130000000  0.5265110000000 1.0
C      1  0.4317080000000  0.5475460000000  0.5310540000000 1.0
C      1  0.4350770000000  0.4973210000000  0.4459590000000 1.0
C      1  0.4447960000000  0.4690130000000  0.5265120000000 1.0
C      1  0.4712910000000  0.5821970000000  0.4700740000000 1.0
C      1  0.4719400000000  0.4278810000000  0.4352410000000 1.0
C      1  0.4701450000000  0.4878880000000  0.5894250000000 1.0
C      1  0.5276090000000  0.5821960000000  0.4700730000000 1.0
C      1  0.5269580000000  0.4278810000000  0.4352400000000 1.0
C      1  0.5287580000000  0.4878870000000  0.5894240000000 1.0
C      1  0.4856330000000  0.4435360000000  0.4590800000000 1.0
C      1  0.4855620000000  0.5010320000000  0.5665210000000 1.0
C      1  0.4852990000000  0.5539990000000  0.4702960000000 1.0
C      1  0.5132660000000  0.4435360000000  0.4590800000000 1.0
C      1  0.5133410000000  0.5010320000000  0.5665200000000 1.0
C      1  0.5136010000000  0.5539990000000  0.4702960000000 1.0
C      1  0.5253190000000  0.4442470000000  0.5090540000000 1.0
C      1  0.5272470000000  0.5406270000000  0.5417920000000 1.0
C      1  0.5260670000000  0.5150110000000  0.4413070000000 1.0
C      1  0.4735810000000  0.4442470000000  0.5090550000000 1.0
C      1  0.4716550000000  0.5406270000000  0.5417930000000 1.0
C      1  0.4728310000000  0.5150110000000  0.4413080000000 1.0
C      1  0.4448110000000  0.5450650000000  0.4285800000000 1.0
C      1  0.4448870000000  0.4154460000000  0.4952090000000 1.0
C      1  0.4448630000000  0.5413660000000  0.5785830000000 1.0
C      1  0.5540870000000  0.5450640000000  0.4285780000000 1.0
C      1  0.5540130000000  0.4154460000000  0.4952070000000 1.0
C      1  0.5540400000000  0.5413660000000  0.5785810000000 1.0
C      1  0.4423660000000  0.4977020000000  0.5912720000000 1.0
C      1  0.4452870000000  0.5739530000000  0.4590310000000 1.0
C      1  0.4470000000000  0.4199540000000  0.4486100000000 1.0
C      1  0.5565370000000  0.4977020000000  0.5912700000000 1.0
C      1  0.5536130000000  0.5739530000000  0.4590290000000 1.0
C      1  0.5518980000000  0.4199530000000  0.4486080000000 1.0
C      1  0.4617320000000  0.5703090000000  0.5009360000000 1.0
C      1  0.4612920000000  0.4619860000000  0.4303370000000 1.0
C      1  0.4642580000000  0.4650040000000  0.5634700000000 1.0
C      1  0.5371680000000  0.5703090000000  0.5009340000000 1.0
C      1  0.5376060000000  0.4619860000000  0.4303360000000 1.0
C      1  0.5346440000000  0.4650040000000  0.5634690000000 1.0
C      1  0.4004420000000  0.4561320000000  0.4841530000000 1.0
C      1  0.3877020000000  0.5010350000000  0.5490400000000 1.0
C      1  0.3907770000000  0.5360930000000  0.4736860000000 1.0
C      1  0.5984570000000  0.4561320000000  0.4841490000000 1.0
C      1  0.6111990000000  0.5010340000000  0.5490360000000 1.0
C      1  0.6081220000000  0.5360920000000  0.4736820000000 1.0
C      1  0.4835530000000  0.4985350000000  0.5201610000000 1.0
C      1  0.4717910000000  0.5117620000000  0.4934480000000 1.0
C      1  0.4824570000000  0.4838390000000  0.4778880000000 1.0
C      1  0.5153480000000  0.4985350000000  0.5201600000000 1.0
C      1  0.5271090000000  0.5117620000000  0.4934470000000 1.0
C      1  0.5164420000000  0.4838390000000  0.4778870000000 1.0
C      1  0.5296070000000  0.4544950000000  0.4816100000000 1.0
C      1  0.5263570000000  0.5116720000000  0.5439980000000 1.0
C      1  0.5305600000000  0.5301520000000  0.4673500000000 1.0
C      1  0.4692920000000  0.4544950000000  0.4816110000000 1.0
C      1  0.4725450000000  0.5116720000000  0.5439990000000 1.0
C      1  0.4683390000000  0.5301520000000  0.4673510000000 1.0
C      1  0.3949890000000  0.5063510000000  0.4738990000000 1.0
C      1  0.4036870000000  0.4723410000000  0.5080800000000 1.0
C      1  0.3911970000000  0.5184920000000  0.5236300000000 1.0
C      1  0.6039110000000  0.5063500000000  0.4738950000000 1.0
C      1  0.5952130000000  0.4723410000000  0.5080770000000 1.0
C      1  0.6077040000000  0.5184920000000  0.5236270000000 1.0
C      1  0.4640960000000  0.5009900000000  0.4002240000000 1.0
C      1  0.4642140000000  0.4205270000000  0.5466660000000 1.0
C      1  0.4659770000000  0.5836590000000  0.5490330000000 1.0
C      1  0.5348010000000  0.5009900000000  0.4002230000000 1.0
C      1  0.5346870000000  0.4205270000000  0.5466650000000 1.0
C      1  0.5329260000000  0.5836590000000  0.5490320000000 1.0
C      1  0.4862500000000  0.5507920000000  0.5655340000000 1.0
C      1  0.4860880000000  0.5305210000000  0.4204150000000 1.0
C      1  0.4860080000000  0.4180150000000  0.5108800000000 1.0
C      1  0.5126520000000  0.5507920000000  0.5655340000000 1.0
C      1  0.5128100000000  0.5305210000000  0.4204150000000 1.0
C      1  0.5128920000000  0.4180150000000  0.5108790000000 1.0
C      1  0.5150420000000  0.4016820000000  0.4570480000000 1.0
C      1  0.5150570000000  0.5145290000000  0.6061980000000 1.0
C      1  0.5150800000000  0.5822080000000  0.4392690000000 1.0
C      1  0.4838560000000  0.4016820000000  0.4570490000000 1.0
C      1  0.4838470000000  0.5145290000000  0.6061990000000 1.0
C      1  0.4838190000000  0.5822080000000  0.4392690000000 1.0
C      1  0.5336700000000  0.5669590000000  0.4199540000000 1.0
C      1  0.5328190000000  0.3950950000000  0.4818870000000 1.0
C      1  0.5325250000000  0.5394230000000  0.6007410000000 1.0
C      1  0.4652280000000  0.5669590000000  0.4199550000000 1.0
C      1  0.4660800000000  0.3950960000000  0.4818880000000 1.0
C      1  0.4663790000000  0.5394240000000  0.6007420000000 1.0
C      1  0.5517470000000  0.5596570000000  0.5532390000000 1.0
C      1  0.5513520000000  0.5141100000000  0.4230900000000 1.0
C      1  0.5510060000000  0.4326390000000  0.5227270000000 1.0
C      1  0.4471560000000  0.5596580000000  0.5532400000000 1.0
C      1  0.4475460000000  0.5141100000000  0.4230920000000 1.0
C      1  0.4478950000000  0.4326390000000  0.5227290000000 1.0
C      1  0.5875480000000  0.4916710000000  0.5636150000000 1.0
C      1  0.5842160000000  0.5519910000000  0.4774490000000 1.0
C      1  0.5776560000000  0.4514170000000  0.4655390000000 1.0
C      1  0.4113540000000  0.4916720000000  0.5636180000000 1.0
C      1  0.4146840000000  0.5519920000000  0.4774520000000 1.0
C      1  0.4212420000000  0.4514180000000  0.4655420000000 1.0
C      1  0.4431890000000  0.4354030000000  0.4728880000000 1.0
C      1  0.4297490000000  0.5153720000000  0.5695660000000 1.0
C      1  0.4382580000000  0.5425380000000  0.4605680000000 1.0
C      1  0.5557100000000  0.4354030000000  0.4728860000000 1.0
C      1  0.5691540000000  0.5153710000000  0.5695640000000 1.0
C      1  0.5606410000000  0.5425380000000  0.4605660000000 1.0
C      1  0.6053190000000  0.5490120000000  0.5136130000000 1.0
C      1  0.6033210000000  0.4840120000000  0.4507750000000 1.0
C      1  0.5939760000000  0.4587800000000  0.5347150000000 1.0
C      1  0.3935820000000  0.5490120000000  0.5136170000000 1.0
C      1  0.3955780000000  0.4840120000000  0.4507790000000 1.0
C      1  0.4049260000000  0.4587800000000  0.5347180000000 1.0
C      1  0.5755110000000  0.5187920000000  0.5338930000000 1.0
C      1  0.5706200000000  0.5100430000000  0.4742100000000 1.0
C      1  0.5679290000000  0.4955150000000  0.5073730000000 1.0
C      1  0.4233910000000  0.5187930000000  0.5338960000000 1.0
C      1  0.4282800000000  0.5100430000000  0.4742120000000 1.0
C      1  0.4309720000000  0.4955150000000  0.5073750000000 1.0
C      1  0.4287960000000  0.4662040000000  0.5552870000000 1.0
C      1  0.4260850000000  0.5632970000000  0.5052560000000 1.0
C      1  0.4267740000000  0.4688340000000  0.4404030000000 1.0
C      1  0.5701060000000  0.4662040000000  0.5552840000000 1.0
C      1  0.5728160000000  0.5632970000000  0.5052540000000 1.0
C      1  0.5721240000000  0.4688330000000  0.4404010000000 1.0
C      1  0.4810930000000  0.4677890000000  0.5311160000000 1.0
C      1  0.4814340000000  0.5424790000000  0.5104930000000 1.0
C      1  0.4824560000000  0.4864870000000  0.4461880000000 1.0
C      1  0.5178080000000  0.4677890000000  0.5311150000000 1.0
C      1  0.5174670000000  0.5424790000000  0.5104920000000 1.0
C      1  0.5164420000000  0.4864870000000  0.4461880000000 1.0
C      1  0.4821950000000  0.4769280000000  0.4053330000000 1.0
C      1  0.4827910000000  0.4378170000000  0.5634010000000 1.0
C      1  0.4825650000000  0.5848650000000  0.5242570000000 1.0
C      1  0.5167020000000  0.4769270000000  0.4053320000000 1.0
C      1  0.5161110000000  0.4378170000000  0.5634000000000 1.0
C      1  0.5163370000000  0.5848650000000  0.5242560000000 1.0
C      1  0.6101280000000  0.4979380000000  0.5019880000000 1.0
C      1  0.3887720000000  0.4979380000000  0.5019910000000 1.0
END
