TITL C-862507-1800-656 9.50249462731761e-07 125000 -322.831893987366 0 0 57 (D3) n - 1
REM
REM in /home/nfs/bkarasulu/CARBON/AIRSS/Generating-Clusters/TERSOFF/Higher-Symm/FIRE-HFTN
REM
REM
REM
REM
REM
REM ./C.cell (b20cbc046b6831c77cfcea5457e17084)
REM AIRSS Version 0.9.1 bugfix July 2018 build 013d7b7c2542+ Fri, 06 Jul 2018 19:26:36 +0100
REM compiler GCC version 9.2.1 20190827 (Red Hat 9.2.1-1)
REM options -cpp -mtune=generic -march=x86-64 -g -O0 -fpre-include=/usr/include/finclude/math-vector-fortran.h
REM seed -318003402 -1221038019 -667141653 -1764428553 359929052 -1212475804 -1192237722 1333507246 841689131 -1023137753 1390547445 1001040869 -1705581342 -653731981 1219213093 -1405017802 654446910 304185681 -727089735 1591893905 -715377478 -1936019866 1813339321 688761243 -1078787657 336333915 -970565024 1376866482 -1149665467 -175829475 -1334478604 327412183 1040613172
REM
CELL 1.54180   50.00000   50.00000   50.00000   90.00000   90.00000   90.00000
LATT -1
SFAC C  
C      1  0.5783280000000  0.4751910000000  0.4964500000000 1.0
C      1  0.4639100000000  0.4751910000000  0.5696090000000 1.0
C      1  0.4577620000000  0.4751910000000  0.4339410000000 1.0
C      1  0.4216720000000  0.5221990000000  0.4964500000000 1.0
C      1  0.5360900000000  0.5221990000000  0.5696090000000 1.0
C      1  0.5422380000000  0.5221990000000  0.4339410000000 1.0
C      1  0.4574330000000  0.5052060000000  0.4341490000000 1.0
C      1  0.5783120000000  0.5052060000000  0.4960610000000 1.0
C      1  0.4642550000000  0.5052060000000  0.5697900000000 1.0
C      1  0.5425670000000  0.4921840000000  0.4341490000000 1.0
C      1  0.4216880000000  0.4921840000000  0.4960610000000 1.0
C      1  0.5357450000000  0.4921840000000  0.5697900000000 1.0
C      1  0.5227030000000  0.4435390000000  0.5210030000000 1.0
C      1  0.4704590000000  0.4435390000000  0.5091600000000 1.0
C      1  0.5068370000000  0.4435390000000  0.4698370000000 1.0
C      1  0.4772970000000  0.5538510000000  0.5210030000000 1.0
C      1  0.5295410000000  0.5538510000000  0.5091600000000 1.0
C      1  0.4931630000000  0.5538510000000  0.4698370000000 1.0
C      1  0.5481020000000  0.5360940000000  0.4606820000000 1.0
C      1  0.5099990000000  0.5360940000000  0.5613170000000 1.0
C      1  0.4418980000000  0.5360940000000  0.4780010000000 1.0
C      1  0.4518980000000  0.4612960000000  0.4606820000000 1.0
C      1  0.4900010000000  0.4612960000000  0.5613170000000 1.0
C      1  0.5581020000000  0.4612960000000  0.4780010000000 1.0
C      1  0.5233220000000  0.5457570000000  0.4794790000000 1.0
C      1  0.5061110000000  0.5457570000000  0.5304580000000 1.0
C      1  0.4705670000000  0.5457570000000  0.4900630000000 1.0
C      1  0.4766780000000  0.4516330000000  0.4794790000000 1.0
C      1  0.4938890000000  0.4516330000000  0.5304580000000 1.0
C      1  0.5294330000000  0.4516330000000  0.4900630000000 1.0
C      1  0.5608790000000  0.5162000000000  0.5158010000000 1.0
C      1  0.4558770000000  0.5162000000000  0.5448220000000 1.0
C      1  0.4832440000000  0.5162000000000  0.4393770000000 1.0
C      1  0.4391210000000  0.4811900000000  0.5158010000000 1.0
C      1  0.5441230000000  0.4811900000000  0.5448220000000 1.0
C      1  0.5167560000000  0.4811900000000  0.4393770000000 1.0
C      1  0.5131830000000  0.4528600000000  0.4431030000000 1.0
C      1  0.5426830000000  0.4528600000000  0.5398660000000 1.0
C      1  0.4441340000000  0.4528600000000  0.5170320000000 1.0
C      1  0.4868170000000  0.5445300000000  0.4431030000000 1.0
C      1  0.4573170000000  0.5445300000000  0.5398660000000 1.0
C      1  0.5558660000000  0.5445300000000  0.5170320000000 1.0
C      1  0.4925240000000  0.5120050000000  0.5756210000000 1.0
C      1  0.4382480000000  0.5120050000000  0.4557150000000 1.0
C      1  0.5692280000000  0.5120050000000  0.4686640000000 1.0
C      1  0.5074760000000  0.4853850000000  0.5756220000000 1.0
C      1  0.5617520000000  0.4853850000000  0.4557150000000 1.0
C      1  0.4307720000000  0.4853850000000  0.4686640000000 1.0
C      1  0.5102010000000  0.5169750000000  0.5177360000000 1.0
C      1  0.4795400000000  0.5169750000000  0.4999670000000 1.0
C      1  0.5102590000000  0.5169750000000  0.4822980000000 1.0
C      1  0.4897990000000  0.4804150000000  0.5177360000000 1.0
C      1  0.5204600000000  0.4804150000000  0.4999670000000 1.0
C      1  0.4897410000000  0.4804150000000  0.4822980000000 1.0
C      1  0.4621640000000  0.4986950000000  0.5218440000000 1.0
C      1  0.5378360000000  0.4986950000000  0.5218440000000 1.0
C      1  0.5000000000000  0.4986950000000  0.4563110000000 1.0
END
