TITL C-862506-1665-1457 564568.941706599 125000 -192.495463212851 0 0 40 (C3) n - 1
REM
REM in /home/nfs/bkarasulu/CARBON/AIRSS/Generating-Clusters/TERSOFF/Higher-Symm/FIRE-HFTN
REM
REM
REM
REM
REM
REM ./C.cell (b20cbc046b6831c77cfcea5457e17084)
REM AIRSS Version 0.9.1 bugfix July 2018 build 013d7b7c2542+ Fri, 06 Jul 2018 19:26:36 +0100
REM compiler GCC version 9.2.1 20190827 (Red Hat 9.2.1-1)
REM options -cpp -mtune=generic -march=x86-64 -g -O0 -fpre-include=/usr/include/finclude/math-vector-fortran.h
REM seed -1142346468 171326165 -568343050 -1596107585 -329480892 622258538 -351325816 -1726760795 1097625719 1605469865 -1560487499 845469534 -1257794876 720393894 -1017406474 1339004600 -1902536548 -748209268 2072085698 -422440447 987564339 642673297 -1229402173 -8646626 1084867622 358223586 1375083146 -658672396 -1249386925 1698027422 -1644128865 -1079384037 1427244790
REM
CELL 1.54180   50.00000   50.00000   50.00000   90.00000   90.00000   90.00000
LATT -1
SFAC C  
C      1  0.4492450000000  0.5446580000000  0.5244640000000 1.0
C      1  0.4867690000000  0.4342200000000  0.5244600000000 1.0
C      1  0.5636510000000  0.5219370000000  0.5244620000000 1.0
C      1  0.4446200000000  0.5382950000000  0.4702260000000 1.0
C      1  0.4945930000000  0.4333980000000  0.4702230000000 1.0
C      1  0.5604500000000  0.5291240000000  0.4702240000000 1.0
C      1  0.4943320000000  0.4801300000000  0.5659660000000 1.0
C      1  0.5201090000000  0.5055270000000  0.5659660000000 1.0
C      1  0.4852270000000  0.5151530000000  0.5659670000000 1.0
C      1  0.4973740000000  0.4795230000000  0.4318100000000 1.0
C      1  0.5191140000000  0.5084720000000  0.4318100000000 1.0
C      1  0.4831740000000  0.5128240000000  0.4318100000000 1.0
C      1  0.4814630000000  0.4772630000000  0.4774870000000 1.0
C      1  0.5290270000000  0.4958200000000  0.4774870000000 1.0
C      1  0.4891740000000  0.5277330000000  0.4774880000000 1.0
C      1  0.4769230000000  0.4814670000000  0.5215740000000 1.0
C      1  0.5276560000000  0.4897830000000  0.5215740000000 1.0
C      1  0.4950870000000  0.5295620000000  0.5215750000000 1.0
C      1  0.5252670000000  0.4701080000000  0.4646030000000 1.0
C      1  0.5133210000000  0.5373330000000  0.4646040000000 1.0
C      1  0.4610750000000  0.4933750000000  0.4646040000000 1.0
C      1  0.5198050000000  0.4659610000000  0.5353310000000 1.0
C      1  0.5196430000000  0.5346730000000  0.5353320000000 1.0
C      1  0.4602180000000  0.5001770000000  0.5353320000000 1.0
C      1  0.4987480000000  0.4616170000000  0.4579110000000 1.0
C      1  0.5339340000000  0.5186130000000  0.4579120000000 1.0
C      1  0.4669810000000  0.5205870000000  0.4579130000000 1.0
C      1  0.4917630000000  0.4613180000000  0.5400360000000 1.0
C      1  0.5376860000000  0.5127090000000  0.5400370000000 1.0
C      1  0.4702180000000  0.5267840000000  0.5400380000000 1.0
C      1  0.4563320000000  0.4608260000000  0.5130880000000 1.0
C      1  0.5558270000000  0.4822700000000  0.5130870000000 1.0
C      1  0.4875080000000  0.5577150000000  0.5130900000000 1.0
C      1  0.4628580000000  0.4554590000000  0.4866540000000 1.0
C      1  0.5572120000000  0.4906090000000  0.4866540000000 1.0
C      1  0.4795940000000  0.5547470000000  0.4866560000000 1.0
C      1  0.5636570000000  0.5386050000000  0.4989650000000 1.0
C      1  0.5012020000000  0.4258790000000  0.4989630000000 1.0
C      1  0.4348060000000  0.5363300000000  0.4989670000000 1.0
C      1  0.4998880000000  0.5002710000000  0.4996610000000 1.0
END
