TITL C-862502-1143-411 50.4561520792636 125000 -232.691252704125 0 0 43 (C1) n - 1
REM
REM in /home/nfs/bkarasulu/CARBON/AIRSS/Generating-Clusters/TERSOFF/Higher-Symm/FIRE-HFTN
REM
REM
REM
REM
REM
REM ./C.cell (b20cbc046b6831c77cfcea5457e17084)
REM AIRSS Version 0.9.1 bugfix July 2018 build 013d7b7c2542+ Fri, 06 Jul 2018 19:26:36 +0100
REM compiler GCC version 9.2.1 20190827 (Red Hat 9.2.1-1)
REM options -cpp -mtune=generic -march=x86-64 -g -O0 -fpre-include=/usr/include/finclude/math-vector-fortran.h
REM seed -401458230 -1241781177 -23706100 -177402571 400422720 -1350484421 316205358 1729314614 -48035133 -897348611 -1681677401 -1938426029 692014957 -181184514 1795240885 -1867989351 25927609 -1919861455 820042986 538398527 -2009413809 -223008783 -1080337631 -2104022810 -1013204339 666610391 2092778504 -170897301 -1000493872 1898805484 341311538 -920328845 1992782542
REM
CELL 1.54180   50.00000   50.00000   50.00000   90.00000   90.00000   90.00000
LATT -1
SFAC C  
C      1  0.5726920000000  0.5118280000000  0.4843450000000 1.0
C      1  0.4298920000000  0.5104650000000  0.4952480000000 1.0
C      1  0.4313610000000  0.5424140000000  0.4986260000000 1.0
C      1  0.5711460000000  0.5437480000000  0.4879530000000 1.0
C      1  0.4693940000000  0.4617300000000  0.4696330000000 1.0
C      1  0.5306910000000  0.4623150000000  0.4649530000000 1.0
C      1  0.5044610000000  0.4801030000000  0.5274220000000 1.0
C      1  0.5210200000000  0.4586560000000  0.5379930000000 1.0
C      1  0.4598110000000  0.4690350000000  0.4430000000000 1.0
C      1  0.5359790000000  0.4697620000000  0.4371840000000 1.0
C      1  0.4703100000000  0.5388120000000  0.4640250000000 1.0
C      1  0.5274720000000  0.5393570000000  0.4596610000000 1.0
C      1  0.4410820000000  0.5403720000000  0.4679890000000 1.0
C      1  0.5569280000000  0.5414770000000  0.4591440000000 1.0
C      1  0.5112550000000  0.4654120000000  0.6145790000000 1.0
C      1  0.4771930000000  0.5084690000000  0.5949340000000 1.0
C      1  0.5733390000000  0.5146920000000  0.4522790000000 1.0
C      1  0.4243300000000  0.5132710000000  0.4636560000000 1.0
C      1  0.5094170000000  0.5005200000000  0.4071380000000 1.0
C      1  0.4809160000000  0.5002480000000  0.4093140000000 1.0
C      1  0.5115260000000  0.5540200000000  0.4386180000000 1.0
C      1  0.4825960000000  0.5537440000000  0.4408270000000 1.0
C      1  0.5090060000000  0.4700150000000  0.5858930000000 1.0
C      1  0.4918940000000  0.4919920000000  0.5758880000000 1.0
C      1  0.5254610000000  0.4962970000000  0.4308270000000 1.0
C      1  0.4687370000000  0.4957560000000  0.4351590000000 1.0
C      1  0.4935570000000  0.5222810000000  0.6446950000000 1.0
C      1  0.5130380000000  0.4997400000000  0.6561540000000 1.0
C      1  0.4863730000000  0.5487500000000  0.4873930000000 1.0
C      1  0.5149560000000  0.5490220000000  0.4852110000000 1.0
C      1  0.4528910000000  0.4946270000000  0.5032960000000 1.0
C      1  0.5514850000000  0.4955680000000  0.4957680000000 1.0
C      1  0.4755680000000  0.4875250000000  0.4853590000000 1.0
C      1  0.5264870000000  0.4880110000000  0.4814710000000 1.0
C      1  0.4779770000000  0.5041870000000  0.6236610000000 1.0
C      1  0.4977720000000  0.4817840000000  0.6344200000000 1.0
C      1  0.5163040000000  0.5097320000000  0.4573930000000 1.0
C      1  0.4815640000000  0.5094000000000  0.4600450000000 1.0
C      1  0.4901850000000  0.4963810000000  0.5470300000000 1.0
C      1  0.5231980000000  0.4537840000000  0.5663800000000 1.0
C      1  0.4862190000000  0.4383180000000  0.4734510000000 1.0
C      1  0.5150870000000  0.4385930000000  0.4712470000000 1.0
C      1  0.5022320000000  0.4850790000000  0.4988520000000 1.0
END
