TITL C-862134-6730-1048 -1.33534098620741e-05 125000 -839.648850827087 0 0 136 (C1) n - 1
REM
REM in /home/nfs/bkarasulu/CARBON/AIRSS/Generating-Clusters/TERSOFF/Higher-Symm/FIRE-HFTN
REM
REM
REM
REM
REM
REM ./C.cell (b20cbc046b6831c77cfcea5457e17084)
REM AIRSS Version 0.9.1 bugfix July 2018 build 013d7b7c2542+ Fri, 06 Jul 2018 19:26:36 +0100
REM compiler GCC version 9.2.1 20190827 (Red Hat 9.2.1-1)
REM options -cpp -mtune=generic -march=x86-64 -g -O0 -fpre-include=/usr/include/finclude/math-vector-fortran.h
REM seed 1455421922 -374812559 -1307407153 1723586398 -1936214978 -193952826 259748497 -841342484 673388828 1650146821 1717032221 1542976890 -2017359126 827185002 1056909490 -2124268679 -1731305083 -179195338 -750451563 -865443460 943097814 228567290 -512607278 2020331459 154493901 1936341655 -1206963598 2142371152 1188217599 1302926950 -1714715004 495539289 2050113092
REM
CELL 1.54180   50.00000   50.00000   50.00000   90.00000   90.00000   90.00000
LATT -1
SFAC C  
C      1  0.5548740000000  0.5708980000000  0.5170850000000 1.0
C      1  0.5657650000000  0.5127060000000  0.5468660000000 1.0
C      1  0.5216740000000  0.5579120000000  0.5784900000000 1.0
C      1  0.5522790000000  0.4261610000000  0.4839630000000 1.0
C      1  0.4406600000000  0.5784770000000  0.4792110000000 1.0
C      1  0.4551340000000  0.4408100000000  0.5123450000000 1.0
C      1  0.5688790000000  0.4880890000000  0.4536780000000 1.0
C      1  0.4273960000000  0.5120940000000  0.4524750000000 1.0
C      1  0.4205230000000  0.4786390000000  0.5593520000000 1.0
C      1  0.5155480000000  0.4508270000000  0.4302060000000 1.0
C      1  0.4810070000000  0.5523260000000  0.4277440000000 1.0
C      1  0.4883270000000  0.4547860000000  0.5723720000000 1.0
C      1  0.5442890000000  0.5137730000000  0.5688850000000 1.0
C      1  0.5785900000000  0.5550120000000  0.5198540000000 1.0
C      1  0.5210140000000  0.5721660000000  0.5526120000000 1.0
C      1  0.5470300000000  0.4881270000000  0.4324370000000 1.0
C      1  0.4462280000000  0.4807210000000  0.5731650000000 1.0
C      1  0.4523120000000  0.5111450000000  0.4346730000000 1.0
C      1  0.5708750000000  0.4505740000000  0.4849370000000 1.0
C      1  0.4306940000000  0.4583930000000  0.5140390000000 1.0
C      1  0.4259460000000  0.5531560000000  0.4801240000000 1.0
C      1  0.5166230000000  0.4261900000000  0.4486170000000 1.0
C      1  0.4895370000000  0.4394150000000  0.5463620000000 1.0
C      1  0.4828750000000  0.5667060000000  0.4526730000000 1.0
C      1  0.4458660000000  0.5054690000000  0.4794120000000 1.0
C      1  0.5074400000000  0.4738150000000  0.4521910000000 1.0
C      1  0.4736810000000  0.4657260000000  0.5033830000000 1.0
C      1  0.4582120000000  0.5047880000000  0.5289880000000 1.0
C      1  0.5398130000000  0.5013480000000  0.5290360000000 1.0
C      1  0.5465240000000  0.5000960000000  0.4776460000000 1.0
C      1  0.5007280000000  0.5293080000000  0.5382000000000 1.0
C      1  0.4939290000000  0.4815340000000  0.5532980000000 1.0
C      1  0.4963190000000  0.5169100000000  0.4618170000000 1.0
C      1  0.4727520000000  0.5420920000000  0.4975200000000 1.0
C      1  0.5295430000000  0.4472910000000  0.4915200000000 1.0
C      1  0.5341030000000  0.5483840000000  0.5074410000000 1.0
C      1  0.4488740000000  0.4876850000000  0.5063450000000 1.0
C      1  0.5091470000000  0.4471810000000  0.4715260000000 1.0
C      1  0.4715410000000  0.4999410000000  0.4603580000000 1.0
C      1  0.4477370000000  0.5338280000000  0.4870200000000 1.0
C      1  0.5425150000000  0.5182650000000  0.5044010000000 1.0
C      1  0.5493450000000  0.4737800000000  0.4932820000000 1.0
C      1  0.5172990000000  0.5505000000000  0.5321860000000 1.0
C      1  0.4936350000000  0.5452190000000  0.4750380000000 1.0
C      1  0.4978030000000  0.4644680000000  0.5265240000000 1.0
C      1  0.4660440000000  0.4907040000000  0.5523980000000 1.0
C      1  0.5233930000000  0.5000200000000  0.4558200000000 1.0
C      1  0.5143560000000  0.5059050000000  0.5504470000000 1.0
C      1  0.5563650000000  0.4220100000000  0.5337000000000 1.0
C      1  0.4272050000000  0.5286720000000  0.5512710000000 1.0
C      1  0.5320230000000  0.5524100000000  0.4261530000000 1.0
C      1  0.5548430000000  0.5745360000000  0.4681480000000 1.0
C      1  0.4464260000000  0.4247420000000  0.4669760000000 1.0
C      1  0.4495030000000  0.5707820000000  0.5289640000000 1.0
C      1  0.4218830000000  0.4642840000000  0.4433810000000 1.0
C      1  0.5780150000000  0.5338250000000  0.4454710000000 1.0
C      1  0.5772150000000  0.4656300000000  0.5544370000000 1.0
C      1  0.5358140000000  0.4438100000000  0.5780400000000 1.0
C      1  0.4713000000000  0.5497190000000  0.5720290000000 1.0
C      1  0.4669780000000  0.4440080000000  0.4225420000000 1.0
C      1  0.5551980000000  0.5339620000000  0.4233700000000 1.0
C      1  0.4270690000000  0.5495330000000  0.5297790000000 1.0
C      1  0.5346480000000  0.4233530000000  0.5544970000000 1.0
C      1  0.5558650000000  0.4655070000000  0.5769820000000 1.0
C      1  0.4451840000000  0.4647440000000  0.4222750000000 1.0
C      1  0.4490680000000  0.5295190000000  0.5736290000000 1.0
C      1  0.4233280000000  0.4451320000000  0.4658800000000 1.0
C      1  0.5781480000000  0.4441510000000  0.5334240000000 1.0
C      1  0.5761900000000  0.5524300000000  0.4685010000000 1.0
C      1  0.5324080000000  0.5738490000000  0.4477530000000 1.0
C      1  0.4709400000000  0.5712030000000  0.5501980000000 1.0
C      1  0.4668170000000  0.4225200000000  0.4449590000000 1.0
C      1  0.6089070000000  0.4766210000000  0.5018490000000 1.0
C      1  0.4779510000000  0.4997640000000  0.6082640000000 1.0
C      1  0.5027400000000  0.6044170000000  0.4780830000000 1.0
C      1  0.6064020000000  0.5194110000000  0.4988870000000 1.0
C      1  0.3909340000000  0.4758870000000  0.4964460000000 1.0
C      1  0.3926010000000  0.5204640000000  0.5002070000000 1.0
C      1  0.4753160000000  0.4972610000000  0.3936250000000 1.0
C      1  0.5252690000000  0.5014470000000  0.3916980000000 1.0
C      1  0.5256010000000  0.4967650000000  0.6087860000000 1.0
C      1  0.5013360000000  0.3968990000000  0.5237290000000 1.0
C      1  0.4995870000000  0.6052550000000  0.5219690000000 1.0
C      1  0.4973490000000  0.3916330000000  0.4779040000000 1.0
C      1  0.6099160000000  0.5007710000000  0.4747850000000 1.0
C      1  0.4773260000000  0.6050970000000  0.5005590000000 1.0
C      1  0.5041010000000  0.4748210000000  0.6108060000000 1.0
C      1  0.6070660000000  0.4971980000000  0.5250620000000 1.0
C      1  0.3889930000000  0.4963400000000  0.4734990000000 1.0
C      1  0.3921050000000  0.4996930000000  0.5231900000000 1.0
C      1  0.4762810000000  0.3973790000000  0.5000310000000 1.0
C      1  0.5235750000000  0.3911080000000  0.5029450000000 1.0
C      1  0.5264480000000  0.6069250000000  0.4980100000000 1.0
C      1  0.5014620000000  0.5205190000000  0.3954820000000 1.0
C      1  0.5004030000000  0.5211310000000  0.6063430000000 1.0
C      1  0.4986400000000  0.4768570000000  0.3921570000000 1.0
C      1  0.5489770000000  0.4082840000000  0.5067210000000 1.0
C      1  0.4108140000000  0.5031320000000  0.5470990000000 1.0
C      1  0.5046940000000  0.5436880000000  0.4145040000000 1.0
C      1  0.5498000000000  0.5884450000000  0.4942170000000 1.0
C      1  0.4561420000000  0.4188070000000  0.4942050000000 1.0
C      1  0.4536900000000  0.5869590000000  0.5036490000000 1.0
C      1  0.4080400000000  0.4911790000000  0.4500710000000 1.0
C      1  0.5902280000000  0.5068910000000  0.4519890000000 1.0
C      1  0.5860070000000  0.4925100000000  0.5457290000000 1.0
C      1  0.5089560000000  0.4513470000000  0.5917220000000 1.0
C      1  0.4971120000000  0.5450070000000  0.5876540000000 1.0
C      1  0.4945960000000  0.4524470000000  0.4104690000000 1.0
C      1  0.5482530000000  0.5071170000000  0.4112240000000 1.0
C      1  0.4108550000000  0.5447750000000  0.5040790000000 1.0
C      1  0.5072680000000  0.4173110000000  0.5447130000000 1.0
C      1  0.5468870000000  0.4926390000000  0.5882450000000 1.0
C      1  0.4537570000000  0.4918960000000  0.4137140000000 1.0
C      1  0.4533430000000  0.5040650000000  0.5901300000000 1.0
C      1  0.4116380000000  0.4545980000000  0.4928030000000 1.0
C      1  0.5906390000000  0.4521470000000  0.5059050000000 1.0
C      1  0.5894290000000  0.5439620000000  0.4958470000000 1.0
C      1  0.5055940000000  0.5851260000000  0.4557940000000 1.0
C      1  0.4967100000000  0.5868690000000  0.5452670000000 1.0
C      1  0.4936980000000  0.4085270000000  0.4522900000000 1.0
C      1  0.5431270000000  0.4165220000000  0.4575200000000 1.0
C      1  0.4575670000000  0.5814730000000  0.4564810000000 1.0
C      1  0.4630650000000  0.4326660000000  0.5383940000000 1.0
C      1  0.5783630000000  0.4614570000000  0.4594420000000 1.0
C      1  0.4169650000000  0.5395100000000  0.4556520000000 1.0
C      1  0.5410810000000  0.4616250000000  0.4227880000000 1.0
C      1  0.4188060000000  0.4569550000000  0.5407940000000 1.0
C      1  0.4572160000000  0.5376610000000  0.4236570000000 1.0
C      1  0.4606240000000  0.4567660000000  0.5820540000000 1.0
C      1  0.5459890000000  0.5828430000000  0.5422240000000 1.0
C      1  0.5791260000000  0.5390830000000  0.5437700000000 1.0
C      1  0.5439590000000  0.5402930000000  0.5813460000000 1.0
C      1  0.4766740000000  0.5266460000000  0.5226490000000 1.0
C      1  0.5193960000000  0.5567570000000  0.4838380000000 1.0
C      1  0.5287420000000  0.4692610000000  0.5203400000000 1.0
C      1  0.4798310000000  0.4684650000000  0.4723860000000 1.0
END
