TITL C-862130-1496-1183 -0.00157114783469229 125000 -461.265802777523 0 0 87 (S4) n - 1
REM
REM in /home/nfs/bkarasulu/CARBON/AIRSS/Generating-Clusters/TERSOFF/Higher-Symm/FIRE-HFTN
REM
REM
REM
REM
REM
REM ./C.cell (b20cbc046b6831c77cfcea5457e17084)
REM AIRSS Version 0.9.1 bugfix July 2018 build 013d7b7c2542+ Fri, 06 Jul 2018 19:26:36 +0100
REM compiler GCC version 9.2.1 20190827 (Red Hat 9.2.1-1)
REM options -cpp -mtune=generic -march=x86-64 -g -O0 -fpre-include=/usr/include/finclude/math-vector-fortran.h
REM seed 2129224801 -1734113033 -691711475 -156500899 1471510806 -1722232896 1033358773 -1834532706 276498375 -1455882861 2109673307 -1311091421 234185294 1969982730 1377418363 1257088308 1427358350 -106716191 -1569955226 -869291762 -1496229448 -204076182 -49931907 292431409 487196791 1253792194 218998776 846376667 -1002337744 1909459534 -1764831408 -1289649819 -1078067100
REM
CELL 1.54180   50.00000   50.00000   50.00000   90.00000   90.00000   90.00000
LATT -1
SFAC C  
C      1  0.5265510000000  0.5662560000000  0.4976460000000 1.0
C      1  0.4737210000000  0.4336990000000  0.4976450000000 1.0
C      1  0.4736720000000  0.5662150000000  0.5045650000000 1.0
C      1  0.5266000000000  0.4337400000000  0.5045650000000 1.0
C      1  0.5663730000000  0.5264420000000  0.4962520000000 1.0
C      1  0.4338990000000  0.4735140000000  0.4962520000000 1.0
C      1  0.5664150000000  0.4735630000000  0.5031720000000 1.0
C      1  0.4338580000000  0.5263930000000  0.5031720000000 1.0
C      1  0.5657560000000  0.5444560000000  0.5220360000000 1.0
C      1  0.4345160000000  0.4555000000000  0.5220360000000 1.0
C      1  0.4357210000000  0.5449530000000  0.4780610000000 1.0
C      1  0.5645510000000  0.4550020000000  0.4780610000000 1.0
C      1  0.5451120000000  0.5643930000000  0.5227570000000 1.0
C      1  0.4551600000000  0.4355630000000  0.5227570000000 1.0
C      1  0.5446140000000  0.4343580000000  0.4787810000000 1.0
C      1  0.4556580000000  0.5655980000000  0.4787810000000 1.0
C      1  0.4520940000000  0.4903770000000  0.4203840000000 1.0
C      1  0.5481780000000  0.5095780000000  0.4203840000000 1.0
C      1  0.5486910000000  0.4922010000000  0.5795930000000 1.0
C      1  0.4515810000000  0.5077540000000  0.5795930000000 1.0
C      1  0.4923600000000  0.4514230000000  0.4212240000000 1.0
C      1  0.5079130000000  0.5485330000000  0.4212240000000 1.0
C      1  0.4905360000000  0.5480200000000  0.5804330000000 1.0
C      1  0.5097370000000  0.4519360000000  0.5804330000000 1.0
C      1  0.4139450000000  0.4968250000000  0.5298890000000 1.0
C      1  0.5863270000000  0.5031300000000  0.5298890000000 1.0
C      1  0.5864520000000  0.4933970000000  0.4677590000000 1.0
C      1  0.4138200000000  0.5065590000000  0.4677590000000 1.0
C      1  0.4935550000000  0.4136620000000  0.5330590000000 1.0
C      1  0.5067170000000  0.5862930000000  0.5330590000000 1.0
C      1  0.4969840000000  0.5861690000000  0.4709280000000 1.0
C      1  0.5032880000000  0.4137870000000  0.4709280000000 1.0
C      1  0.5391230000000  0.4866230000000  0.4941910000000 1.0
C      1  0.4611490000000  0.5133320000000  0.4941910000000 1.0
C      1  0.4623320000000  0.4847490000000  0.5092310000000 1.0
C      1  0.5379410000000  0.5152060000000  0.5092310000000 1.0
C      1  0.4849080000000  0.5377820000000  0.4915860000000 1.0
C      1  0.5153650000000  0.4621730000000  0.4915860000000 1.0
C      1  0.4867820000000  0.4609900000000  0.5066260000000 1.0
C      1  0.5134910000000  0.5389650000000  0.5066260000000 1.0
C      1  0.5069230000000  0.4654820000000  0.4579960000000 1.0
C      1  0.4933500000000  0.5344740000000  0.4579960000000 1.0
C      1  0.4956060000000  0.4643400000000  0.5381480000000 1.0
C      1  0.5046660000000  0.5356150000000  0.5381480000000 1.0
C      1  0.4644990000000  0.5045070000000  0.4626690000000 1.0
C      1  0.5357730000000  0.4954480000000  0.4626690000000 1.0
C      1  0.4656400000000  0.4931910000000  0.5428210000000 1.0
C      1  0.5346320000000  0.5067640000000  0.5428210000000 1.0
C      1  0.5607170000000  0.5389240000000  0.4692280000000 1.0
C      1  0.4395550000000  0.4610320000000  0.4692280000000 1.0
C      1  0.4375040000000  0.5387000000000  0.5304270000000 1.0
C      1  0.5627680000000  0.4612550000000  0.5304270000000 1.0
C      1  0.5388590000000  0.5626100000000  0.4703900000000 1.0
C      1  0.4614140000000  0.4373460000000  0.4703900000000 1.0
C      1  0.5390820000000  0.4393970000000  0.5315890000000 1.0
C      1  0.4611900000000  0.5605590000000  0.5315890000000 1.0
C      1  0.4682860000000  0.5123910000000  0.4092040000000 1.0
C      1  0.5319870000000  0.4875640000000  0.4092040000000 1.0
C      1  0.5355000000000  0.5209140000000  0.5759190000000 1.0
C      1  0.4647730000000  0.4790410000000  0.5759190000000 1.0
C      1  0.5210730000000  0.4646140000000  0.4248980000000 1.0
C      1  0.4792000000000  0.5353410000000  0.4248980000000 1.0
C      1  0.5125490000000  0.5318280000000  0.5916130000000 1.0
C      1  0.4877230000000  0.4681270000000  0.5916130000000 1.0
C      1  0.4351250000000  0.4792080000000  0.5407420000000 1.0
C      1  0.5651470000000  0.5207480000000  0.5407420000000 1.0
C      1  0.5628690000000  0.4775720000000  0.4578570000000 1.0
C      1  0.4374030000000  0.5223830000000  0.4578570000000 1.0
C      1  0.4777310000000  0.4372450000000  0.5429610000000 1.0
C      1  0.5225420000000  0.5627110000000  0.5429610000000 1.0
C      1  0.4793660000000  0.5649890000000  0.4600760000000 1.0
C      1  0.5209060000000  0.4349670000000  0.4600760000000 1.0
C      1  0.4796310000000  0.5441030000000  0.5530020000000 1.0
C      1  0.5206410000000  0.4558520000000  0.5530020000000 1.0
C      1  0.5234910000000  0.5442010000000  0.4483360000000 1.0
C      1  0.4767820000000  0.4557550000000  0.4483360000000 1.0
C      1  0.5443590000000  0.4766230000000  0.5524810000000 1.0
C      1  0.4559130000000  0.5233320000000  0.5524810000000 1.0
C      1  0.5442610000000  0.5204830000000  0.4478160000000 1.0
C      1  0.4560110000000  0.4794730000000  0.4478160000000 1.0
C      1  0.5001000000000  0.4139590000000  0.5022790000000 1.0
C      1  0.5001720000000  0.5859970000000  0.5022790000000 1.0
C      1  0.4141170000000  0.5000140000000  0.4985390000000 1.0
C      1  0.5861550000000  0.4999420000000  0.4985390000000 1.0
C      1  0.5001360000000  0.4999780000000  0.5334100000000 1.0
C      1  0.5001360000000  0.4999780000000  0.4674070000000 1.0
C      1  0.5001360000000  0.4999780000000  0.5004090000000 1.0
END
