TITL C-862128-1543-418 1346095.02160726 125000 -839.91411109687 0 0 147 (C1) n - 1
REM
REM in /home/nfs/bkarasulu/CARBON/AIRSS/Generating-Clusters/TERSOFF/Higher-Symm/FIRE-HFTN
REM
REM
REM
REM
REM
REM ./C.cell (b20cbc046b6831c77cfcea5457e17084)
REM AIRSS Version 0.9.1 bugfix July 2018 build 013d7b7c2542+ Fri, 06 Jul 2018 19:26:36 +0100
REM compiler GCC version 9.2.1 20190827 (Red Hat 9.2.1-1)
REM options -cpp -mtune=generic -march=x86-64 -g -O0 -fpre-include=/usr/include/finclude/math-vector-fortran.h
REM seed 853506753 -1541139653 -643826255 -1058003845 -1065884548 -385020840 -606829448 1708216758 -290512628 -2078369622 -1718564497 192046425 -1164266872 -386405838 1223898759 780473935 -456594217 -570410179 -2025830855 266485327 1849063977 -1820365760 -170636876 1148179535 1796088467 -1828582330 281547571 -33667424 1290805696 1424070810 256195880 1481993429 -837545197
REM
CELL 1.54180   50.00000   50.00000   50.00000   90.00000   90.00000   90.00000
LATT -1
SFAC C  
C      1  0.5268780000000  0.5522540000000  0.5260850000000 1.0
C      1  0.5281200000000  0.5533160000000  0.4792160000000 1.0
C      1  0.5268110000000  0.5764320000000  0.5425640000000 1.0
C      1  0.5285060000000  0.5775610000000  0.4636260000000 1.0
C      1  0.6052960000000  0.4915540000000  0.4771390000000 1.0
C      1  0.6058350000000  0.4898910000000  0.5285920000000 1.0
C      1  0.4669340000000  0.4126670000000  0.4635640000000 1.0
C      1  0.4709790000000  0.4122470000000  0.5389140000000 1.0
C      1  0.5038780000000  0.4651960000000  0.6331760000000 1.0
C      1  0.5165530000000  0.4574580000000  0.3798070000000 1.0
C      1  0.5481810000000  0.5331990000000  0.4779980000000 1.0
C      1  0.5472190000000  0.5317940000000  0.5264960000000 1.0
C      1  0.4532660000000  0.4600250000000  0.5456250000000 1.0
C      1  0.4514740000000  0.4615630000000  0.4585610000000 1.0
C      1  0.5844420000000  0.4505410000000  0.5542840000000 1.0
C      1  0.5864710000000  0.4521230000000  0.4480070000000 1.0
C      1  0.4978890000000  0.5246590000000  0.4476330000000 1.0
C      1  0.4920380000000  0.5279240000000  0.5525200000000 1.0
C      1  0.5673610000000  0.5006550000000  0.4429180000000 1.0
C      1  0.5660610000000  0.4987070000000  0.5611440000000 1.0
C      1  0.4700970000000  0.4842180000000  0.4661750000000 1.0
C      1  0.4721730000000  0.4823160000000  0.5394200000000 1.0
C      1  0.4398360000000  0.4603070000000  0.5719610000000 1.0
C      1  0.4425300000000  0.4607640000000  0.4301240000000 1.0
C      1  0.5476900000000  0.4830310000000  0.5806520000000 1.0
C      1  0.5500450000000  0.4868840000000  0.4210650000000 1.0
C      1  0.4371060000000  0.5090020000000  0.4185440000000 1.0
C      1  0.4295850000000  0.5085150000000  0.5774250000000 1.0
C      1  0.5458770000000  0.4977650000000  0.3943300000000 1.0
C      1  0.5397410000000  0.4922930000000  0.6072500000000 1.0
C      1  0.4755300000000  0.4836320000000  0.3976670000000 1.0
C      1  0.4654560000000  0.4875280000000  0.6066840000000 1.0
C      1  0.5986170000000  0.5434850000000  0.4660440000000 1.0
C      1  0.5950520000000  0.5446430000000  0.5371120000000 1.0
C      1  0.4375710000000  0.5503140000000  0.4491740000000 1.0
C      1  0.4279770000000  0.5418050000000  0.5379280000000 1.0
C      1  0.4995750000000  0.5870310000000  0.5485860000000 1.0
C      1  0.5015920000000  0.5862730000000  0.4544880000000 1.0
C      1  0.4973910000000  0.5433820000000  0.5784520000000 1.0
C      1  0.5037510000000  0.5432400000000  0.4237570000000 1.0
C      1  0.4493570000000  0.4833610000000  0.4121480000000 1.0
C      1  0.4419780000000  0.4845030000000  0.5885680000000 1.0
C      1  0.4754610000000  0.5372680000000  0.5985650000000 1.0
C      1  0.4853270000000  0.5343630000000  0.4012880000000 1.0
C      1  0.5104160000000  0.4679010000000  0.5234900000000 1.0
C      1  0.5076050000000  0.4679480000000  0.4753160000000 1.0
C      1  0.4715570000000  0.5117060000000  0.4530710000000 1.0
C      1  0.4683390000000  0.5108060000000  0.5473410000000 1.0
C      1  0.5181970000000  0.4100730000000  0.4516290000000 1.0
C      1  0.5229470000000  0.4093770000000  0.5463510000000 1.0
C      1  0.4913280000000  0.4592980000000  0.3946480000000 1.0
C      1  0.4821100000000  0.4646320000000  0.6136670000000 1.0
C      1  0.5859630000000  0.4813670000000  0.4566120000000 1.0
C      1  0.5858460000000  0.4797740000000  0.5479430000000 1.0
C      1  0.5316060000000  0.4724990000000  0.6271940000000 1.0
C      1  0.5343900000000  0.4800240000000  0.3740930000000 1.0
C      1  0.4899580000000  0.4164150000000  0.4452820000000 1.0
C      1  0.4954160000000  0.4156600000000  0.5552490000000 1.0
C      1  0.5415030000000  0.5259310000000  0.3923490000000 1.0
C      1  0.5316870000000  0.5195850000000  0.6104880000000 1.0
C      1  0.4789560000000  0.5964630000000  0.4730980000000 1.0
C      1  0.4782300000000  0.5943720000000  0.5276290000000 1.0
C      1  0.5308450000000  0.4669750000000  0.4293420000000 1.0
C      1  0.5326520000000  0.4612920000000  0.5694110000000 1.0
C      1  0.5505650000000  0.5777530000000  0.4453210000000 1.0
C      1  0.5458440000000  0.5755860000000  0.5640520000000 1.0
C      1  0.4946010000000  0.5716810000000  0.4301300000000 1.0
C      1  0.4916600000000  0.5729950000000  0.5730480000000 1.0
C      1  0.5450940000000  0.5107630000000  0.4606600000000 1.0
C      1  0.5441610000000  0.5083560000000  0.5424350000000 1.0
C      1  0.4473660000000  0.5237100000000  0.4409870000000 1.0
C      1  0.4411410000000  0.5206030000000  0.5539230000000 1.0
C      1  0.5671840000000  0.4287030000000  0.4524750000000 1.0
C      1  0.5708930000000  0.4296420000000  0.5379160000000 1.0
C      1  0.5563560000000  0.5528010000000  0.4321630000000 1.0
C      1  0.5515070000000  0.5496990000000  0.5748300000000 1.0
C      1  0.4506680000000  0.5653830000000  0.4709170000000 1.0
C      1  0.4441570000000  0.5594790000000  0.5212200000000 1.0
C      1  0.5765640000000  0.5333970000000  0.4445210000000 1.0
C      1  0.5734030000000  0.5318140000000  0.5613370000000 1.0
C      1  0.4741630000000  0.5138870000000  0.6154330000000 1.0
C      1  0.4867630000000  0.5087750000000  0.3875930000000 1.0
C      1  0.5311410000000  0.4551790000000  0.5413610000000 1.0
C      1  0.5281110000000  0.4570230000000  0.4560040000000 1.0
C      1  0.4716850000000  0.5531850000000  0.5226190000000 1.0
C      1  0.4772470000000  0.5545640000000  0.4754470000000 1.0
C      1  0.4535740000000  0.4345130000000  0.5293340000000 1.0
C      1  0.4505610000000  0.4348150000000  0.4750890000000 1.0
C      1  0.4939850000000  0.4430620000000  0.5220310000000 1.0
C      1  0.4914860000000  0.4433800000000  0.4783160000000 1.0
C      1  0.5342190000000  0.5421320000000  0.4148740000000 1.0
C      1  0.5272840000000  0.5377200000000  0.5887220000000 1.0
C      1  0.5386430000000  0.4301970000000  0.4631380000000 1.0
C      1  0.5413920000000  0.4289220000000  0.5318420000000 1.0
C      1  0.4266930000000  0.4384370000000  0.4203490000000 1.0
C      1  0.4243910000000  0.4374260000000  0.5809980000000 1.0
C      1  0.5995720000000  0.5508920000000  0.5013680000000 1.0
C      1  0.4303020000000  0.5102740000000  0.5006240000000 1.0
C      1  0.5680270000000  0.5798810000000  0.5286970000000 1.0
C      1  0.4485470000000  0.6220270000000  0.5009610000000 1.0
C      1  0.5902000000000  0.5213980000000  0.5025270000000 1.0
C      1  0.4562860000000  0.4681960000000  0.5031980000000 1.0
C      1  0.6115820000000  0.4775970000000  0.5025800000000 1.0
C      1  0.4814690000000  0.3989290000000  0.5004920000000 1.0
C      1  0.3857600000000  0.5549050000000  0.5084520000000 1.0
C      1  0.4030390000000  0.5497170000000  0.4856140000000 1.0
C      1  0.6035890000000  0.4501970000000  0.4990020000000 1.0
C      1  0.5891160000000  0.4055930000000  0.5087340000000 1.0
C      1  0.5201660000000  0.3675910000000  0.4983320000000 1.0
C      1  0.4922720000000  0.3725600000000  0.5002850000000 1.0
C      1  0.5399380000000  0.3884160000000  0.4964270000000 1.0
C      1  0.4064170000000  0.4956890000000  0.5047120000000 1.0
C      1  0.4113800000000  0.4158020000000  0.5059010000000 1.0
C      1  0.4004630000000  0.4708680000000  0.4911360000000 1.0
C      1  0.3795970000000  0.4562850000000  0.5058690000000 1.0
C      1  0.4273370000000  0.5342070000000  0.4865780000000 1.0
C      1  0.4000890000000  0.6051700000000  0.5101920000000 1.0
C      1  0.6122050000000  0.4250220000000  0.5130200000000 1.0
C      1  0.5269600000000  0.6074560000000  0.4986790000000 1.0
C      1  0.5050160000000  0.4911840000000  0.4994520000000 1.0
C      1  0.5291480000000  0.4568860000000  0.4979790000000 1.0
C      1  0.5082160000000  0.5836880000000  0.5003170000000 1.0
C      1  0.4270220000000  0.6015450000000  0.4994540000000 1.0
C      1  0.5047730000000  0.6281090000000  0.5007050000000 1.0
C      1  0.5625780000000  0.5294600000000  0.5024170000000 1.0
C      1  0.5500600000000  0.6093420000000  0.4806380000000 1.0
C      1  0.3821390000000  0.5828900000000  0.5173130000000 1.0
C      1  0.4780860000000  0.6128090000000  0.5011820000000 1.0
C      1  0.4975630000000  0.4234600000000  0.4997430000000 1.0
C      1  0.5321640000000  0.5007950000000  0.4993510000000 1.0
C      1  0.5806890000000  0.5750200000000  0.5036220000000 1.0
C      1  0.5564640000000  0.4670730000000  0.4933190000000 1.0
C      1  0.4858370000000  0.5403300000000  0.5005840000000 1.0
C      1  0.5729040000000  0.5911310000000  0.4808510000000 1.0
C      1  0.4823080000000  0.5100500000000  0.5006790000000 1.0
C      1  0.3866920000000  0.4294890000000  0.5140940000000 1.0
C      1  0.3739470000000  0.5319640000000  0.5233510000000 1.0
C      1  0.3680290000000  0.4782600000000  0.5243000000000 1.0
C      1  0.4559550000000  0.4969860000000  0.5035680000000 1.0
C      1  0.5335050000000  0.4209300000000  0.4978840000000 1.0
C      1  0.5672210000000  0.4202150000000  0.4935910000000 1.0
C      1  0.4110520000000  0.3871100000000  0.5010800000000 1.0
C      1  0.5120840000000  0.5546630000000  0.5023280000000 1.0
C      1  0.4360730000000  0.5741120000000  0.4962910000000 1.0
C      1  0.5768340000000  0.4471690000000  0.4889320000000 1.0
C      1  0.3845700000000  0.5042910000000  0.5229610000000 1.0
C      1  0.4371180000000  0.4308610000000  0.5035540000000 1.0
END
