TITL C-862133-5440-851 9.67299892150126e-05 125000 -603.227291702466 0 0 101 (C1) n - 1
REM
REM in /home/nfs/bkarasulu/CARBON/AIRSS/Generating-Clusters/TERSOFF/Higher-Symm/FIRE-HFTN
REM
REM
REM
REM
REM
REM ./C.cell (b20cbc046b6831c77cfcea5457e17084)
REM AIRSS Version 0.9.1 bugfix July 2018 build 013d7b7c2542+ Fri, 06 Jul 2018 19:26:36 +0100
REM compiler GCC version 9.2.1 20190827 (Red Hat 9.2.1-1)
REM options -cpp -mtune=generic -march=x86-64 -g -O0 -fpre-include=/usr/include/finclude/math-vector-fortran.h
REM seed -1604612532 -1308460393 -1918836810 -450325295 1017770282 160485276 -1531026781 1527198555 2131218705 -2052581656 -1426186918 -1225669739 73917010 -1144808276 -1056731070 -1965723453 -366998820 -281235400 1424118092 1444944646 -237289354 -684962710 -1156680535 892415593 -477187479 -1590051700 609609854 -411373933 -1116034729 -451654723 752586185 -101595119 2023815879
REM
CELL 1.54180   50.00000   50.00000   50.00000   90.00000   90.00000   90.00000
LATT -1
SFAC C  
C      1  0.4600590000000  0.5748270000000  0.4997140000000 1.0
C      1  0.4987990000000  0.4631250000000  0.5722390000000 1.0
C      1  0.5718070000000  0.5007750000000  0.4636920000000 1.0
C      1  0.5373890000000  0.5751980000000  0.4998960000000 1.0
C      1  0.4586530000000  0.4237020000000  0.5002040000000 1.0
C      1  0.5369070000000  0.4263340000000  0.5005940000000 1.0
C      1  0.4984300000000  0.4608030000000  0.4221300000000 1.0
C      1  0.4999120000000  0.5363000000000  0.4305360000000 1.0
C      1  0.5019410000000  0.5369430000000  0.5748640000000 1.0
C      1  0.4274040000000  0.4999110000000  0.5368620000000 1.0
C      1  0.5816480000000  0.5009470000000  0.5410240000000 1.0
C      1  0.4273720000000  0.4996530000000  0.4623860000000 1.0
C      1  0.4987420000000  0.5745140000000  0.4606720000000 1.0
C      1  0.5735980000000  0.4610950000000  0.5004040000000 1.0
C      1  0.4632330000000  0.5000250000000  0.5667930000000 1.0
C      1  0.4989910000000  0.5684720000000  0.5379750000000 1.0
C      1  0.4984320000000  0.4325240000000  0.4630390000000 1.0
C      1  0.4981100000000  0.4228250000000  0.5405760000000 1.0
C      1  0.4247050000000  0.4613210000000  0.4997410000000 1.0
C      1  0.4264350000000  0.5378510000000  0.4999420000000 1.0
C      1  0.5772050000000  0.5427960000000  0.5003010000000 1.0
C      1  0.5443470000000  0.5006480000000  0.4192940000000 1.0
C      1  0.5448970000000  0.5000070000000  0.5794630000000 1.0
C      1  0.4618440000000  0.4996270000000  0.4302200000000 1.0
C      1  0.4491170000000  0.4729090000000  0.5711360000000 1.0
C      1  0.5701990000000  0.4498800000000  0.4719220000000 1.0
C      1  0.4699970000000  0.5718180000000  0.4484600000000 1.0
C      1  0.5523150000000  0.4697460000000  0.4266680000000 1.0
C      1  0.4492040000000  0.5276480000000  0.4281560000000 1.0
C      1  0.5534550000000  0.5314560000000  0.5737800000000 1.0
C      1  0.4263930000000  0.4499210000000  0.5290810000000 1.0
C      1  0.5720460000000  0.5532330000000  0.5296150000000 1.0
C      1  0.4272990000000  0.5498860000000  0.4710200000000 1.0
C      1  0.5268540000000  0.5708170000000  0.5503270000000 1.0
C      1  0.4688030000000  0.4280040000000  0.5518270000000 1.0
C      1  0.5258980000000  0.4304020000000  0.4505930000000 1.0
C      1  0.5702250000000  0.4721490000000  0.4510600000000 1.0
C      1  0.4697780000000  0.4504660000000  0.5722740000000 1.0
C      1  0.4481990000000  0.5718260000000  0.4703750000000 1.0
C      1  0.4267800000000  0.4721360000000  0.5503590000000 1.0
C      1  0.4274060000000  0.5279170000000  0.4495060000000 1.0
C      1  0.5737370000000  0.5316250000000  0.5512700000000 1.0
C      1  0.5281030000000  0.4491700000000  0.4273040000000 1.0
C      1  0.5298350000000  0.5514480000000  0.5733090000000 1.0
C      1  0.4712410000000  0.5490480000000  0.4282880000000 1.0
C      1  0.5488830000000  0.5727500000000  0.5291150000000 1.0
C      1  0.5481900000000  0.4291250000000  0.4717770000000 1.0
C      1  0.4472550000000  0.4280530000000  0.5297970000000 1.0
C      1  0.4485370000000  0.4281540000000  0.4705020000000 1.0
C      1  0.4702080000000  0.4493580000000  0.4272290000000 1.0
C      1  0.4272780000000  0.4714660000000  0.4494310000000 1.0
C      1  0.5495140000000  0.4278810000000  0.5290010000000 1.0
C      1  0.4494800000000  0.5714050000000  0.5294840000000 1.0
C      1  0.5492850000000  0.5725370000000  0.4709460000000 1.0
C      1  0.5276200000000  0.4511620000000  0.5704360000000 1.0
C      1  0.4729110000000  0.5482940000000  0.5715960000000 1.0
C      1  0.5279090000000  0.5492090000000  0.4291150000000 1.0
C      1  0.5726840000000  0.4702450000000  0.5503890000000 1.0
C      1  0.4285910000000  0.5279890000000  0.5500630000000 1.0
C      1  0.5709360000000  0.5289070000000  0.4505610000000 1.0
C      1  0.4714430000000  0.4297490000000  0.4497920000000 1.0
C      1  0.4270490000000  0.4495140000000  0.4707350000000 1.0
C      1  0.4491450000000  0.4717410000000  0.4283690000000 1.0
C      1  0.5278210000000  0.4284020000000  0.5507930000000 1.0
C      1  0.5278130000000  0.5719170000000  0.4491720000000 1.0
C      1  0.4720350000000  0.5703780000000  0.5511160000000 1.0
C      1  0.5715840000000  0.4488330000000  0.5286840000000 1.0
C      1  0.5714710000000  0.5519680000000  0.4708910000000 1.0
C      1  0.4282670000000  0.5498690000000  0.5288310000000 1.0
C      1  0.5513160000000  0.4704970000000  0.5716790000000 1.0
C      1  0.5516590000000  0.5298100000000  0.4277320000000 1.0
C      1  0.4512800000000  0.5271090000000  0.5705940000000 1.0
C      1  0.4746440000000  0.5477030000000  0.4980020000000 1.0
C      1  0.4941600000000  0.4727770000000  0.5434750000000 1.0
C      1  0.5503920000000  0.5030060000000  0.4842480000000 1.0
C      1  0.5236040000000  0.5473920000000  0.4994530000000 1.0
C      1  0.4733170000000  0.4508950000000  0.5022520000000 1.0
C      1  0.5218810000000  0.4530330000000  0.5037320000000 1.0
C      1  0.5007560000000  0.4834790000000  0.4405280000000 1.0
C      1  0.4979230000000  0.5249960000000  0.4587680000000 1.0
C      1  0.5105480000000  0.5206750000000  0.5508750000000 1.0
C      1  0.4527410000000  0.4983880000000  0.5201980000000 1.0
C      1  0.5543110000000  0.5040620000000  0.5262340000000 1.0
C      1  0.4532800000000  0.4994970000000  0.4782490000000 1.0
C      1  0.4976210000000  0.5484020000000  0.4764600000000 1.0
C      1  0.5480210000000  0.4778620000000  0.5033030000000 1.0
C      1  0.4756020000000  0.4975310000000  0.5392220000000 1.0
C      1  0.4977860000000  0.5471770000000  0.5183000000000 1.0
C      1  0.4973140000000  0.4529980000000  0.4833640000000 1.0
C      1  0.4950940000000  0.4494430000000  0.5250570000000 1.0
C      1  0.4526850000000  0.4745190000000  0.4999260000000 1.0
C      1  0.4537310000000  0.5235420000000  0.4992330000000 1.0
C      1  0.5506010000000  0.5269450000000  0.5037070000000 1.0
C      1  0.5251130000000  0.4974700000000  0.4425800000000 1.0
C      1  0.5337050000000  0.5030220000000  0.5500540000000 1.0
C      1  0.4763710000000  0.5009370000000  0.4580730000000 1.0
C      1  0.4949330000000  0.5188310000000  0.5265040000000 1.0
C      1  0.5178380000000  0.4841230000000  0.5315520000000 1.0
C      1  0.5252590000000  0.5117520000000  0.4694120000000 1.0
C      1  0.4975170000000  0.4809770000000  0.4758220000000 1.0
C      1  0.5104960000000  0.4995680000000  0.5002170000000 1.0
END
