TITL C-862133-5440-829 0.00190018383202155 125000 -960.858732597443 0 0 159 (C2) n - 1
REM
REM in /home/nfs/bkarasulu/CARBON/AIRSS/Generating-Clusters/TERSOFF/Higher-Symm/FIRE-HFTN
REM
REM
REM
REM
REM
REM ./C.cell (b20cbc046b6831c77cfcea5457e17084)
REM AIRSS Version 0.9.1 bugfix July 2018 build 013d7b7c2542+ Fri, 06 Jul 2018 19:26:36 +0100
REM compiler GCC version 9.2.1 20190827 (Red Hat 9.2.1-1)
REM options -cpp -mtune=generic -march=x86-64 -g -O0 -fpre-include=/usr/include/finclude/math-vector-fortran.h
REM seed -1874352684 1673795520 -2146381620 -1146249149 1084249041 -252496556 -754716338 1332193777 -108492935 725661149 -187876479 1338903168 -2048038492 -679977241 -1516450123 -1341927242 1122903184 1275001206 1593660607 1719479361 -1402304781 221634285 -1419613760 -1064730962 -1019358223 -117344940 1593384346 1068762597 1263862114 1159945831 1131726450 278226227 -338404659
REM
CELL 1.54180   50.00000   50.00000   50.00000   90.00000   90.00000   90.00000
LATT -1
SFAC C  
C      1  0.5615340000000  0.5266630000000  0.5143030000000 1.0
C      1  0.5681380000000  0.4748440000000  0.5149280000000 1.0
C      1  0.5650700000000  0.5005490000000  0.4705930000000 1.0
C      1  0.4378740000000  0.5261870000000  0.5151660000000 1.0
C      1  0.4309510000000  0.4744060000000  0.5142880000000 1.0
C      1  0.4343250000000  0.5014080000000  0.4707290000000 1.0
C      1  0.5613220000000  0.5261880000000  0.4848340000000 1.0
C      1  0.5682460000000  0.4744070000000  0.4857110000000 1.0
C      1  0.5648720000000  0.5014090000000  0.5292710000000 1.0
C      1  0.4376630000000  0.5266620000000  0.4856970000000 1.0
C      1  0.4310590000000  0.4748430000000  0.4850720000000 1.0
C      1  0.4341270000000  0.5005480000000  0.5294070000000 1.0
C      1  0.4711140000000  0.4923510000000  0.3777310000000 1.0
C      1  0.4662530000000  0.6160010000000  0.5616480000000 1.0
C      1  0.4676320000000  0.3929720000000  0.5618070000000 1.0
C      1  0.5287750000000  0.4895510000000  0.3777260000000 1.0
C      1  0.5336700000000  0.6176230000000  0.5590510000000 1.0
C      1  0.5318950000000  0.3946140000000  0.5638040000000 1.0
C      1  0.4704220000000  0.4895500000000  0.6222740000000 1.0
C      1  0.4655250000000  0.6176230000000  0.4409490000000 1.0
C      1  0.4673040000000  0.3946140000000  0.4361960000000 1.0
C      1  0.5280830000000  0.4923510000000  0.6222690000000 1.0
C      1  0.5329420000000  0.6160020000000  0.4383520000000 1.0
C      1  0.5315670000000  0.3929720000000  0.4381930000000 1.0
C      1  0.5555330000000  0.6130020000000  0.5137620000000 1.0
C      1  0.5571150000000  0.4351100000000  0.5808190000000 1.0
C      1  0.5562340000000  0.4560560000000  0.4030560000000 1.0
C      1  0.4438550000000  0.6127580000000  0.5164910000000 1.0
C      1  0.4421480000000  0.4330060000000  0.5794430000000 1.0
C      1  0.4432590000000  0.4582270000000  0.4017700000000 1.0
C      1  0.5553400000000  0.6127590000000  0.4835100000000 1.0
C      1  0.5570510000000  0.4330070000000  0.4205570000000 1.0
C      1  0.5559390000000  0.4582280000000  0.5982300000000 1.0
C      1  0.4436630000000  0.6130020000000  0.4862380000000 1.0
C      1  0.4420830000000  0.4351090000000  0.4191810000000 1.0
C      1  0.4429640000000  0.4560540000000  0.5969440000000 1.0
C      1  0.4322480000000  0.4029150000000  0.4693410000000 1.0
C      1  0.4363930000000  0.5769130000000  0.4343600000000 1.0
C      1  0.4366510000000  0.5176840000000  0.5989660000000 1.0
C      1  0.5664250000000  0.4019830000000  0.4714270000000 1.0
C      1  0.5624680000000  0.5754490000000  0.4325140000000 1.0
C      1  0.5620270000000  0.5198870000000  0.5984530000000 1.0
C      1  0.4327740000000  0.4019820000000  0.5285730000000 1.0
C      1  0.4367280000000  0.5754480000000  0.5674870000000 1.0
C      1  0.4371700000000  0.5198860000000  0.4015480000000 1.0
C      1  0.5669510000000  0.4029160000000  0.5306590000000 1.0
C      1  0.5628030000000  0.5769140000000  0.5656400000000 1.0
C      1  0.5625460000000  0.5176850000000  0.4010340000000 1.0
C      1  0.4522510000000  0.5512050000000  0.5588240000000 1.0
C      1  0.4488630000000  0.4224390000000  0.5144080000000 1.0
C      1  0.4515770000000  0.5237620000000  0.4274180000000 1.0
C      1  0.5463350000000  0.5529440000000  0.5574030000000 1.0
C      1  0.5501120000000  0.4228230000000  0.5163010000000 1.0
C      1  0.5470910000000  0.5216530000000  0.4265190000000 1.0
C      1  0.4528620000000  0.5529430000000  0.4425970000000 1.0
C      1  0.4490860000000  0.4228230000000  0.4836990000000 1.0
C      1  0.4521060000000  0.5216520000000  0.5734810000000 1.0
C      1  0.5469460000000  0.5512060000000  0.4411770000000 1.0
C      1  0.5503360000000  0.4224390000000  0.4855920000000 1.0
C      1  0.5476200000000  0.5237620000000  0.5725820000000 1.0
C      1  0.5502860000000  0.4517780000000  0.4767090000000 1.0
C      1  0.5461210000000  0.5478930000000  0.4705990000000 1.0
C      1  0.5481690000000  0.5008090000000  0.5530870000000 1.0
C      1  0.4491510000000  0.4525660000000  0.4756790000000 1.0
C      1  0.4524920000000  0.5489210000000  0.4721670000000 1.0
C      1  0.4506970000000  0.4990020000000  0.5532370000000 1.0
C      1  0.5500460000000  0.4525660000000  0.5243210000000 1.0
C      1  0.5467040000000  0.5489210000000  0.5278330000000 1.0
C      1  0.5485000000000  0.4990030000000  0.4467630000000 1.0
C      1  0.4489120000000  0.4517770000000  0.5232910000000 1.0
C      1  0.4530760000000  0.5478920000000  0.5294020000000 1.0
C      1  0.4510280000000  0.5008080000000  0.4469130000000 1.0
C      1  0.5127080000000  0.5609790000000  0.5647150000000 1.0
C      1  0.5155390000000  0.4137580000000  0.5198930000000 1.0
C      1  0.5133060000000  0.5217660000000  0.4157860000000 1.0
C      1  0.4812340000000  0.5518370000000  0.5719370000000 1.0
C      1  0.4816960000000  0.4137730000000  0.5126180000000 1.0
C      1  0.4817580000000  0.5321590000000  0.4203690000000 1.0
C      1  0.5179620000000  0.5518380000000  0.4280630000000 1.0
C      1  0.5175030000000  0.4137730000000  0.4873820000000 1.0
C      1  0.5174390000000  0.5321590000000  0.5796310000000 1.0
C      1  0.4864880000000  0.5609790000000  0.4352860000000 1.0
C      1  0.4836590000000  0.4137580000000  0.4801060000000 1.0
C      1  0.4858910000000  0.5217660000000  0.5842140000000 1.0
C      1  0.4497510000000  0.3823260000000  0.5419510000000 1.0
C      1  0.4554040000000  0.5164280000000  0.3790120000000 1.0
C      1  0.4523680000000  0.5974350000000  0.5789350000000 1.0
C      1  0.5502140000000  0.3834410000000  0.5446290000000 1.0
C      1  0.5447500000000  0.5135040000000  0.3782360000000 1.0
C      1  0.5477300000000  0.5995160000000  0.5766950000000 1.0
C      1  0.4489850000000  0.3834400000000  0.4553700000000 1.0
C      1  0.4544470000000  0.5135030000000  0.6217640000000 1.0
C      1  0.4514660000000  0.5995160000000  0.4233050000000 1.0
C      1  0.5494480000000  0.3823270000000  0.4580490000000 1.0
C      1  0.5437930000000  0.5164290000000  0.6209880000000 1.0
C      1  0.5468280000000  0.5974360000000  0.4210650000000 1.0
C      1  0.5318460000000  0.4217640000000  0.4328650000000 1.0
C      1  0.5301330000000  0.6103760000000  0.4669720000000 1.0
C      1  0.5303430000000  0.4718450000000  0.6016150000000 1.0
C      1  0.4671070000000  0.4235190000000  0.4314750000000 1.0
C      1  0.4686820000000  0.6111620000000  0.4693670000000 1.0
C      1  0.4684320000000  0.4697020000000  0.6009320000000 1.0
C      1  0.5320910000000  0.4235190000000  0.5685250000000 1.0
C      1  0.5305140000000  0.6111620000000  0.5306330000000 1.0
C      1  0.5307650000000  0.4697030000000  0.3990680000000 1.0
C      1  0.4673520000000  0.4217630000000  0.5671350000000 1.0
C      1  0.4690630000000  0.6103760000000  0.5330290000000 1.0
C      1  0.4688550000000  0.4718450000000  0.3983850000000 1.0
C      1  0.4159730000000  0.4233600000000  0.5705360000000 1.0
C      1  0.4184620000000  0.4729180000000  0.3963410000000 1.0
C      1  0.4184400000000  0.6059560000000  0.5300270000000 1.0
C      1  0.5834420000000  0.4257410000000  0.5720300000000 1.0
C      1  0.5812080000000  0.4705110000000  0.3977220000000 1.0
C      1  0.5810430000000  0.6061260000000  0.5271080000000 1.0
C      1  0.4157560000000  0.4257400000000  0.4279700000000 1.0
C      1  0.4179900000000  0.4705090000000  0.6022780000000 1.0
C      1  0.4181530000000  0.6061250000000  0.4728920000000 1.0
C      1  0.5832250000000  0.4233610000000  0.4294640000000 1.0
C      1  0.5807350000000  0.4729190000000  0.6036590000000 1.0
C      1  0.5807550000000  0.6059570000000  0.4699730000000 1.0
C      1  0.4853420000000  0.4406990000000  0.4479740000000 1.0
C      1  0.4847430000000  0.5872770000000  0.4744570000000 1.0
C      1  0.4851350000000  0.4724110000000  0.5773030000000 1.0
C      1  0.5138660000000  0.4391510000000  0.4494040000000 1.0
C      1  0.5139440000000  0.5867730000000  0.4729300000000 1.0
C      1  0.5139840000000  0.4739120000000  0.5777120000000 1.0
C      1  0.4853320000000  0.4391510000000  0.5505960000000 1.0
C      1  0.4852520000000  0.5867730000000  0.5270700000000 1.0
C      1  0.4852130000000  0.4739120000000  0.4222880000000 1.0
C      1  0.5138560000000  0.4406990000000  0.5520260000000 1.0
C      1  0.5144530000000  0.5872770000000  0.5255430000000 1.0
C      1  0.5140620000000  0.4724120000000  0.4226960000000 1.0
C      1  0.4710570000000  0.5650160000000  0.4868400000000 1.0
C      1  0.4749990000000  0.4833690000000  0.5505110000000 1.0
C      1  0.4769710000000  0.4608090000000  0.4709260000000 1.0
C      1  0.5278200000000  0.5645650000000  0.4851940000000 1.0
C      1  0.5240870000000  0.4849040000000  0.5510280000000 1.0
C      1  0.5225790000000  0.4596980000000  0.4713460000000 1.0
C      1  0.4713760000000  0.5645640000000  0.5148060000000 1.0
C      1  0.4751110000000  0.4849040000000  0.4489720000000 1.0
C      1  0.4766190000000  0.4596980000000  0.5286540000000 1.0
C      1  0.5281390000000  0.5650160000000  0.5131600000000 1.0
C      1  0.5241990000000  0.4833690000000  0.4494890000000 1.0
C      1  0.5222260000000  0.4608090000000  0.5290740000000 1.0
C      1  0.5881240000000  0.4116550000000  0.4551640000000 1.0
C      1  0.5839020000000  0.5846590000000  0.4501900000000 1.0
C      1  0.5842740000000  0.5012300000000  0.5987990000000 1.0
C      1  0.4107170000000  0.4134250000000  0.4533710000000 1.0
C      1  0.4150600000000  0.5853030000000  0.4525810000000 1.0
C      1  0.4144550000000  0.4989670000000  0.5983050000000 1.0
C      1  0.5884820000000  0.4134260000000  0.5466290000000 1.0
C      1  0.5841360000000  0.5853040000000  0.5474200000000 1.0
C      1  0.5847420000000  0.4989680000000  0.4016950000000 1.0
C      1  0.4110740000000  0.4116530000000  0.5448360000000 1.0
C      1  0.4152930000000  0.5846570000000  0.5498100000000 1.0
C      1  0.4149240000000  0.5012290000000  0.4012010000000 1.0
C      1  0.5000530000000  0.4993260000000  0.4565670000000 1.0
C      1  0.4991450000000  0.4993260000000  0.5434330000000 1.0
C      1  0.4995990000000  0.4619960000000  0.5000000000000 1.0
END
