TITL C-862127-1500-127 95.1066528382772 125000 -1171.16943495457 0 0 200 (C1) n - 1
REM
REM in /home/nfs/bkarasulu/CARBON/AIRSS/Generating-Clusters/TERSOFF/Higher-Symm/FIRE-HFTN
REM
REM
REM
REM
REM
REM ./C.cell (b20cbc046b6831c77cfcea5457e17084)
REM AIRSS Version 0.9.1 bugfix July 2018 build 013d7b7c2542+ Fri, 06 Jul 2018 19:26:36 +0100
REM compiler GCC version 9.2.1 20190827 (Red Hat 9.2.1-1)
REM options -cpp -mtune=generic -march=x86-64 -g -O0 -fpre-include=/usr/include/finclude/math-vector-fortran.h
REM seed -1301967708 964864253 -617293290 -524892751 135289901 -68959649 1750289847 -210479267 -555255317 579252013 1940409704 640413968 -434430980 1130264418 814003582 910866962 -1839759363 -408066046 -26799321 174495947 -515578546 1373249160 -684038740 -1096611271 476696481 -915336486 -1141070997 955669041 615384226 301504068 2055098369 -635396884 -1776932650
REM
CELL 1.54180   50.00000   50.00000   50.00000   90.00000   90.00000   90.00000
LATT -1
SFAC C  
C      1  0.5993980000000  0.4730210000000  0.5619020000000 1.0
C      1  0.5993180000000  0.4602020000000  0.4459790000000 1.0
C      1  0.5992090000000  0.5672840000000  0.4927970000000 1.0
C      1  0.4001700000000  0.4722890000000  0.5617730000000 1.0
C      1  0.4000830000000  0.4602100000000  0.4453520000000 1.0
C      1  0.3999740000000  0.5668060000000  0.4931480000000 1.0
C      1  0.5521380000000  0.4775350000000  0.4564780000000 1.0
C      1  0.5523210000000  0.5492310000000  0.5024330000000 1.0
C      1  0.5523170000000  0.4732840000000  0.5414600000000 1.0
C      1  0.4469500000000  0.4774340000000  0.4563290000000 1.0
C      1  0.4471420000000  0.5489860000000  0.5026860000000 1.0
C      1  0.4471460000000  0.4733650000000  0.5415710000000 1.0
C      1  0.5645860000000  0.4360100000000  0.5562790000000 1.0
C      1  0.5643870000000  0.4835980000000  0.4168250000000 1.0
C      1  0.5646410000000  0.5801110000000  0.5280200000000 1.0
C      1  0.4349990000000  0.4355960000000  0.5552090000000 1.0
C      1  0.4347730000000  0.4842340000000  0.4167600000000 1.0
C      1  0.4350380000000  0.5802860000000  0.5278500000000 1.0
C      1  0.5295150000000  0.4894580000000  0.5448220000000 1.0
C      1  0.5293200000000  0.4666190000000  0.4688140000000 1.0
C      1  0.5294740000000  0.5439810000000  0.4868570000000 1.0
C      1  0.4699400000000  0.4895110000000  0.5448520000000 1.0
C      1  0.4697390000000  0.4664430000000  0.4686520000000 1.0
C      1  0.4698990000000  0.5438300000000  0.4869610000000 1.0
C      1  0.3844960000000  0.5730180000000  0.4690620000000 1.0
C      1  0.3852120000000  0.4903940000000  0.5792940000000 1.0
C      1  0.3847780000000  0.4361070000000  0.4518110000000 1.0
C      1  0.6142380000000  0.5734750000000  0.4684300000000 1.0
C      1  0.6149350000000  0.4906890000000  0.5793460000000 1.0
C      1  0.6145080000000  0.4361360000000  0.4530130000000 1.0
C      1  0.5209090000000  0.5391090000000  0.5283580000000 1.0
C      1  0.5205030000000  0.4562080000000  0.5200710000000 1.0
C      1  0.5204730000000  0.5047580000000  0.4522900000000 1.0
C      1  0.4789100000000  0.5390780000000  0.5282570000000 1.0
C      1  0.4785050000000  0.4558680000000  0.5198510000000 1.0
C      1  0.4784740000000  0.5048160000000  0.4521300000000 1.0
C      1  0.5142010000000  0.5598580000000  0.3819590000000 1.0
C      1  0.5139100000000  0.5718080000000  0.6116670000000 1.0
C      1  0.5147180000000  0.3676950000000  0.5075650000000 1.0
C      1  0.4857680000000  0.5606710000000  0.3821980000000 1.0
C      1  0.4854750000000  0.5723950000000  0.6111650000000 1.0
C      1  0.4862960000000  0.3674260000000  0.5064130000000 1.0
C      1  0.5653310000000  0.3944210000000  0.4646540000000 1.0
C      1  0.5644010000000  0.5841820000000  0.4271090000000 1.0
C      1  0.5652760000000  0.5217350000000  0.6097030000000 1.0
C      1  0.4349740000000  0.3946850000000  0.4631350000000 1.0
C      1  0.4340380000000  0.5840050000000  0.4268770000000 1.0
C      1  0.4349080000000  0.5208210000000  0.6094720000000 1.0
C      1  0.5167080000000  0.6322610000000  0.5133650000000 1.0
C      1  0.5142640000000  0.4246590000000  0.6076090000000 1.0
C      1  0.5143850000000  0.4446990000000  0.3812380000000 1.0
C      1  0.4850910000000  0.6305820000000  0.5117700000000 1.0
C      1  0.4826280000000  0.4223050000000  0.6079430000000 1.0
C      1  0.4827480000000  0.4453220000000  0.3789380000000 1.0
C      1  0.5315970000000  0.5332130000000  0.5739200000000 1.0
C      1  0.5313420000000  0.4192100000000  0.4925120000000 1.0
C      1  0.5306290000000  0.5473220000000  0.4342040000000 1.0
C      1  0.4688800000000  0.5334200000000  0.5742700000000 1.0
C      1  0.4686200000000  0.4193790000000  0.4916060000000 1.0
C      1  0.4679050000000  0.5473360000000  0.4344600000000 1.0
C      1  0.5148110000000  0.6165360000000  0.4856350000000 1.0
C      1  0.5154740000000  0.4560010000000  0.6093980000000 1.0
C      1  0.5156050000000  0.4274210000000  0.4075100000000 1.0
C      1  0.4837590000000  0.6165020000000  0.4837460000000 1.0
C      1  0.4844240000000  0.4541990000000  0.6082580000000 1.0
C      1  0.4845490000000  0.4291950000000  0.4063960000000 1.0
C      1  0.4694220000000  0.5107650000000  0.5239700000000 1.0
C      1  0.4693240000000  0.4738490000000  0.4975220000000 1.0
C      1  0.4693270000000  0.5151500000000  0.4788780000000 1.0
C      1  0.5300680000000  0.5107850000000  0.5239900000000 1.0
C      1  0.5299610000000  0.4740450000000  0.4976790000000 1.0
C      1  0.5299640000000  0.5152460000000  0.4789210000000 1.0
C      1  0.4736060000000  0.5809970000000  0.5629330000000 1.0
C      1  0.4729760000000  0.4045060000000  0.5378590000000 1.0
C      1  0.4728110000000  0.5147630000000  0.3985310000000 1.0
C      1  0.5266880000000  0.5806250000000  0.5636930000000 1.0
C      1  0.5260480000000  0.4052130000000  0.5392950000000 1.0
C      1  0.5258970000000  0.5137400000000  0.3986240000000 1.0
C      1  0.5143990000000  0.5667710000000  0.4769200000000 1.0
C      1  0.5146190000000  0.4870000000000  0.5696380000000 1.0
C      1  0.5144890000000  0.4463010000000  0.4542610000000 1.0
C      1  0.4847230000000  0.5665940000000  0.4766940000000 1.0
C      1  0.4849420000000  0.4866950000000  0.5695910000000 1.0
C      1  0.4848140000000  0.4465010000000  0.4538450000000 1.0
C      1  0.5714920000000  0.4085600000000  0.4400220000000 1.0
C      1  0.5707540000000  0.5985170000000  0.4516490000000 1.0
C      1  0.5713330000000  0.4933550000000  0.6098350000000 1.0
C      1  0.4285800000000  0.4088720000000  0.4385800000000 1.0
C      1  0.4278240000000  0.5980980000000  0.4514640000000 1.0
C      1  0.4283900000000  0.4924470000000  0.6093890000000 1.0
C      1  0.4577390000000  0.5992770000000  0.5432260000000 1.0
C      1  0.4570730000000  0.4119150000000  0.5635020000000 1.0
C      1  0.4569410000000  0.4888590000000  0.3921490000000 1.0
C      1  0.5425410000000  0.5990890000000  0.5444100000000 1.0
C      1  0.5418790000000  0.4131650000000  0.5649690000000 1.0
C      1  0.5417600000000  0.4875140000000  0.3926660000000 1.0
C      1  0.3806200000000  0.4788780000000  0.4875050000000 1.0
C      1  0.3808770000000  0.5208260000000  0.4885060000000 1.0
C      1  0.3806330000000  0.4989890000000  0.5243300000000 1.0
C      1  0.6185750000000  0.4795750000000  0.4877810000000 1.0
C      1  0.6188140000000  0.5215260000000  0.4883880000000 1.0
C      1  0.6185600000000  0.5000220000000  0.5244180000000 1.0
C      1  0.3898620000000  0.5493810000000  0.4251870000000 1.0
C      1  0.3905900000000  0.5402680000000  0.5803600000000 1.0
C      1  0.3904500000000  0.4099220000000  0.4941050000000 1.0
C      1  0.6088260000000  0.5493620000000  0.4248130000000 1.0
C      1  0.6095520000000  0.5404660000000  0.5806600000000 1.0
C      1  0.6094020000000  0.4104420000000  0.4958250000000 1.0
C      1  0.5165400000000  0.5523230000000  0.5558530000000 1.0
C      1  0.5162900000000  0.4256940000000  0.5179640000000 1.0
C      1  0.5159810000000  0.5218520000000  0.4269940000000 1.0
C      1  0.4834640000000  0.5523780000000  0.5557350000000 1.0
C      1  0.4832170000000  0.4255180000000  0.5174310000000 1.0
C      1  0.4829030000000  0.5220770000000  0.4269780000000 1.0
C      1  0.5676580000000  0.5996070000000  0.5650500000000 1.0
C      1  0.5663270000000  0.3941250000000  0.5545810000000 1.0
C      1  0.5660880000000  0.5062950000000  0.3815790000000 1.0
C      1  0.4334700000000  0.5994120000000  0.5651600000000 1.0
C      1  0.4321090000000  0.3937870000000  0.5531920000000 1.0
C      1  0.4318810000000  0.5066210000000  0.3813920000000 1.0
C      1  0.4168480000000  0.4136180000000  0.5064750000000 1.0
C      1  0.4163080000000  0.5370120000000  0.4218610000000 1.0
C      1  0.4171190000000  0.5491580000000  0.5713210000000 1.0
C      1  0.5828620000000  0.4136680000000  0.5080360000000 1.0
C      1  0.5823340000000  0.5369790000000  0.4218410000000 1.0
C      1  0.5831390000000  0.5494100000000  0.5714210000000 1.0
C      1  0.6317780000000  0.5175360000000  0.5428350000000 1.0
C      1  0.6314460000000  0.4548300000000  0.4942930000000 1.0
C      1  0.6315080000000  0.5285270000000  0.4636700000000 1.0
C      1  0.3680900000000  0.5170530000000  0.5427050000000 1.0
C      1  0.3677470000000  0.4539610000000  0.4934150000000 1.0
C      1  0.3678080000000  0.5279080000000  0.4640160000000 1.0
C      1  0.5322590000000  0.4078740000000  0.5922960000000 1.0
C      1  0.5322460000000  0.4664910000000  0.3743920000000 1.0
C      1  0.5330280000000  0.6257820000000  0.5364520000000 1.0
C      1  0.4665170000000  0.4054620000000  0.5906220000000 1.0
C      1  0.4664660000000  0.4686060000000  0.3730070000000 1.0
C      1  0.4672740000000  0.6256170000000  0.5341300000000 1.0
C      1  0.5590380000000  0.5373080000000  0.5856970000000 1.0
C      1  0.5589400000000  0.4073580000000  0.4901670000000 1.0
C      1  0.5582930000000  0.5555110000000  0.4255790000000 1.0
C      1  0.4411160000000  0.5366330000000  0.5855370000000 1.0
C      1  0.4410270000000  0.4075700000000  0.4887730000000 1.0
C      1  0.4403710000000  0.5554630000000  0.4252080000000 1.0
C      1  0.5302830000000  0.5859080000000  0.5926140000000 1.0
C      1  0.5294590000000  0.3771920000000  0.5304180000000 1.0
C      1  0.5292180000000  0.5354800000000  0.3788270000000 1.0
C      1  0.4703900000000  0.5872890000000  0.5916650000000 1.0
C      1  0.4695850000000  0.3768150000000  0.5279150000000 1.0
C      1  0.4693270000000  0.5371730000000  0.3794840000000 1.0
C      1  0.5586330000000  0.5931530000000  0.4776990000000 1.0
C      1  0.5590260000000  0.4736890000000  0.5921680000000 1.0
C      1  0.5590310000000  0.4335980000000  0.4316570000000 1.0
C      1  0.4402510000000  0.5926720000000  0.4772700000000 1.0
C      1  0.4406450000000  0.4725900000000  0.5918020000000 1.0
C      1  0.4406550000000  0.4341370000000  0.4303520000000 1.0
C      1  0.5484910000000  0.6066690000000  0.6017470000000 1.0
C      1  0.5455910000000  0.3586320000000  0.5459650000000 1.0
C      1  0.5454510000000  0.5314470000000  0.3550200000000 1.0
C      1  0.4542180000000  0.6099510000000  0.6001220000000 1.0
C      1  0.4512980000000  0.3584380000000  0.5411030000000 1.0
C      1  0.4511760000000  0.5347460000000  0.3568850000000 1.0
C      1  0.5812110000000  0.5105480000000  0.4082570000000 1.0
C      1  0.5821340000000  0.5741840000000  0.5551940000000 1.0
C      1  0.5816000000000  0.4150510000000  0.5376390000000 1.0
C      1  0.4173480000000  0.5106960000000  0.4083260000000 1.0
C      1  0.4182810000000  0.5742420000000  0.5554290000000 1.0
C      1  0.4177480000000  0.4151310000000  0.5361100000000 1.0
C      1  0.4279780000000  0.4791300000000  0.5212820000000 1.0
C      1  0.4277800000000  0.4919820000000  0.4716250000000 1.0
C      1  0.4279700000000  0.5284940000000  0.5076020000000 1.0
C      1  0.5715370000000  0.4794130000000  0.5213220000000 1.0
C      1  0.5713620000000  0.4920430000000  0.4717040000000 1.0
C      1  0.5715410000000  0.5287640000000  0.5074230000000 1.0
C      1  0.5759640000000  0.4580250000000  0.4279840000000 1.0
C      1  0.5759000000000  0.5838660000000  0.5003210000000 1.0
C      1  0.5760220000000  0.4585090000000  0.5727660000000 1.0
C      1  0.4234360000000  0.4584140000000  0.4272540000000 1.0
C      1  0.4233750000000  0.5834710000000  0.5002200000000 1.0
C      1  0.4235070000000  0.4575380000000  0.5724040000000 1.0
C      1  0.6235130000000  0.5172630000000  0.5705700000000 1.0
C      1  0.6230670000000  0.4308100000000  0.4805090000000 1.0
C      1  0.6228140000000  0.5524790000000  0.4499200000000 1.0
C      1  0.3767350000000  0.5169470000000  0.5703360000000 1.0
C      1  0.3762880000000  0.4302250000000  0.4791880000000 1.0
C      1  0.3760230000000  0.5521000000000  0.4504200000000 1.0
C      1  0.4006540000000  0.4811820000000  0.4666390000000 1.0
C      1  0.4007960000000  0.5379630000000  0.5007870000000 1.0
C      1  0.4007510000000  0.4799620000000  0.5329220000000 1.0
C      1  0.5985610000000  0.4814330000000  0.4668950000000 1.0
C      1  0.5986930000000  0.5384720000000  0.5005960000000 1.0
C      1  0.5986390000000  0.4808000000000  0.5331020000000 1.0
C      1  0.5297190000000  0.4350340000000  0.4311700000000 1.0
C      1  0.5293240000000  0.5925340000000  0.4796050000000 1.0
C      1  0.5297160000000  0.4726020000000  0.5910050000000 1.0
C      1  0.4699630000000  0.4360610000000  0.4300910000000 1.0
C      1  0.4695650000000  0.5922560000000  0.4786350000000 1.0
C      1  0.4699580000000  0.4713730000000  0.5904430000000 1.0
C      1  0.4438610000000  0.4999010000000  0.5001620000000 1.0
C      1  0.5555490000000  0.5000410000000  0.5001580000000 1.0
END
