TITL C-862501-1041-1332 0.000778188527689255 125000 -710.512275813054 0 0 133 (C1) n - 1
REM
REM in /home/nfs/bkarasulu/CARBON/AIRSS/Generating-Clusters/TERSOFF/Higher-Symm/FIRE-HFTN
REM
REM
REM
REM
REM
REM ./C.cell (b20cbc046b6831c77cfcea5457e17084)
REM AIRSS Version 0.9.1 bugfix July 2018 build 013d7b7c2542+ Fri, 06 Jul 2018 19:26:36 +0100
REM compiler GCC version 9.2.1 20190827 (Red Hat 9.2.1-1)
REM options -cpp -mtune=generic -march=x86-64 -g -O0 -fpre-include=/usr/include/finclude/math-vector-fortran.h
REM seed 778648120 1449869155 1959178032 1407907432 1319784994 1843820741 -716835359 -13111258 -1820517348 1128563658 -798024701 792326457 988310162 1058338023 -1782407721 869467999 461079139 696356101 1930631805 1918806153 540505788 1751976100 905732810 -1538366048 -1331553648 -1639799873 -964904279 -144538075 1782065194 327336353 1335687955 -441867187 -202769458
REM
CELL 1.54180   50.00000   50.00000   50.00000   90.00000   90.00000   90.00000
LATT -1
SFAC C  
C      1  0.5472580000000  0.5773470000000  0.5147970000000 1.0
C      1  0.5469540000000  0.4262120000000  0.4858280000000 1.0
C      1  0.4534070000000  0.5761910000000  0.5170820000000 1.0
C      1  0.4533160000000  0.4273870000000  0.4837790000000 1.0
C      1  0.5467730000000  0.5747880000000  0.4819760000000 1.0
C      1  0.5466560000000  0.4263460000000  0.5183310000000 1.0
C      1  0.4530520000000  0.5757850000000  0.4843090000000 1.0
C      1  0.4527800000000  0.4255980000000  0.5163570000000 1.0
C      1  0.5165270000000  0.4553950000000  0.5149050000000 1.0
C      1  0.5174050000000  0.5442320000000  0.4771140000000 1.0
C      1  0.4839650000000  0.4551070000000  0.5127190000000 1.0
C      1  0.4828380000000  0.5443170000000  0.4789340000000 1.0
C      1  0.5172900000000  0.4576500000000  0.4804040000000 1.0
C      1  0.5161630000000  0.5474690000000  0.5104250000000 1.0
C      1  0.4827280000000  0.4576950000000  0.4789040000000 1.0
C      1  0.4836010000000  0.5473220000000  0.5128940000000 1.0
C      1  0.3758580000000  0.5276140000000  0.5158800000000 1.0
C      1  0.3779650000000  0.4740820000000  0.4874660000000 1.0
C      1  0.6241210000000  0.5280880000000  0.5146830000000 1.0
C      1  0.6221420000000  0.4737810000000  0.4885080000000 1.0
C      1  0.3777120000000  0.5282380000000  0.4870460000000 1.0
C      1  0.3763130000000  0.4741900000000  0.5164800000000 1.0
C      1  0.6221220000000  0.5277960000000  0.4858520000000 1.0
C      1  0.6236570000000  0.4747930000000  0.5175090000000 1.0
C      1  0.4012300000000  0.4834050000000  0.5307190000000 1.0
C      1  0.4023730000000  0.5177300000000  0.4745520000000 1.0
C      1  0.5985800000000  0.4842590000000  0.5313590000000 1.0
C      1  0.5974180000000  0.5167800000000  0.4738790000000 1.0
C      1  0.4025000000000  0.4848100000000  0.4746020000000 1.0
C      1  0.4011140000000  0.5189200000000  0.5299430000000 1.0
C      1  0.5976110000000  0.4838680000000  0.4751280000000 1.0
C      1  0.5989610000000  0.5198700000000  0.5292150000000 1.0
C      1  0.4861200000000  0.5640790000000  0.4149250000000 1.0
C      1  0.4860250000000  0.4275810000000  0.5788790000000 1.0
C      1  0.5145430000000  0.5632750000000  0.4141170000000 1.0
C      1  0.5147230000000  0.4281530000000  0.5788910000000 1.0
C      1  0.4854430000000  0.5525840000000  0.6003330000000 1.0
C      1  0.4854570000000  0.4284930000000  0.4273010000000 1.0
C      1  0.5141910000000  0.5531290000000  0.5999050000000 1.0
C      1  0.5139490000000  0.4279220000000  0.4280090000000 1.0
C      1  0.5520270000000  0.3931210000000  0.4837280000000 1.0
C      1  0.5515990000000  0.6108420000000  0.5155790000000 1.0
C      1  0.4498660000000  0.3948710000000  0.4846750000000 1.0
C      1  0.4491870000000  0.6088250000000  0.5148680000000 1.0
C      1  0.5508870000000  0.3936560000000  0.5168510000000 1.0
C      1  0.5498270000000  0.6073420000000  0.4826730000000 1.0
C      1  0.4480810000000  0.3922250000000  0.5176480000000 1.0
C      1  0.4479180000000  0.6087920000000  0.4817920000000 1.0
C      1  0.5774540000000  0.5361340000000  0.5153460000000 1.0
C      1  0.5715910000000  0.4727150000000  0.4881790000000 1.0
C      1  0.4225230000000  0.5355910000000  0.5164590000000 1.0
C      1  0.4284640000000  0.4733490000000  0.4873680000000 1.0
C      1  0.5713120000000  0.5287520000000  0.4865950000000 1.0
C      1  0.5776370000000  0.4669890000000  0.5171070000000 1.0
C      1  0.4285850000000  0.5292660000000  0.4875210000000 1.0
C      1  0.4224730000000  0.4667990000000  0.5161870000000 1.0
C      1  0.4376020000000  0.4458080000000  0.5312300000000 1.0
C      1  0.4376770000000  0.5546070000000  0.4708750000000 1.0
C      1  0.5624330000000  0.4465360000000  0.5326690000000 1.0
C      1  0.5624230000000  0.5534300000000  0.4691920000000 1.0
C      1  0.4376620000000  0.4484110000000  0.4705640000000 1.0
C      1  0.4379270000000  0.5560430000000  0.5320830000000 1.0
C      1  0.5624430000000  0.4471010000000  0.4721240000000 1.0
C      1  0.5621860000000  0.5573350000000  0.5304170000000 1.0
C      1  0.4696130000000  0.5237790000000  0.5243600000000 1.0
C      1  0.4644370000000  0.4803660000000  0.4657490000000 1.0
C      1  0.5309830000000  0.5248530000000  0.5228650000000 1.0
C      1  0.5360580000000  0.4792060000000  0.4663320000000 1.0
C      1  0.4638820000000  0.5222410000000  0.4658960000000 1.0
C      1  0.4690620000000  0.4780540000000  0.5253140000000 1.0
C      1  0.5360410000000  0.5210710000000  0.4651310000000 1.0
C      1  0.5304470000000  0.4792900000000  0.5266440000000 1.0
C      1  0.5508780000000  0.5494910000000  0.5619530000000 1.0
C      1  0.5568690000000  0.4515890000000  0.4425790000000 1.0
C      1  0.4483740000000  0.5476210000000  0.5631910000000 1.0
C      1  0.4433570000000  0.4537490000000  0.4411280000000 1.0
C      1  0.5566360000000  0.5472740000000  0.4396450000000 1.0
C      1  0.5528050000000  0.4565400000000  0.5600770000000 1.0
C      1  0.4437230000000  0.5493970000000  0.4410640000000 1.0
C      1  0.4470450000000  0.4544370000000  0.5595100000000 1.0
C      1  0.4829250000000  0.5763790000000  0.4706780000000 1.0
C      1  0.4831990000000  0.4251400000000  0.5249530000000 1.0
C      1  0.5171930000000  0.5763770000000  0.4668080000000 1.0
C      1  0.5166260000000  0.4253370000000  0.5293710000000 1.0
C      1  0.4835590000000  0.5774770000000  0.5275140000000 1.0
C      1  0.4829530000000  0.4253940000000  0.4691110000000 1.0
C      1  0.5167350000000  0.5773850000000  0.5224680000000 1.0
C      1  0.5170310000000  0.4255410000000  0.4725960000000 1.0
C      1  0.5602390000000  0.4820450000000  0.4396720000000 1.0
C      1  0.5490900000000  0.5214500000000  0.5478030000000 1.0
C      1  0.4403460000000  0.4842720000000  0.4391210000000 1.0
C      1  0.4508860000000  0.5197720000000  0.5487910000000 1.0
C      1  0.5491520000000  0.4866030000000  0.5529690000000 1.0
C      1  0.5603160000000  0.5162630000000  0.4388620000000 1.0
C      1  0.4505830000000  0.4845150000000  0.5518290000000 1.0
C      1  0.4391300000000  0.5184580000000  0.4398640000000 1.0
C      1  0.5800980000000  0.5149870000000  0.5532030000000 1.0
C      1  0.5925900000000  0.4833340000000  0.4437950000000 1.0
C      1  0.4198540000000  0.5130670000000  0.5538760000000 1.0
C      1  0.4078950000000  0.4855520000000  0.4433420000000 1.0
C      1  0.5923640000000  0.5151080000000  0.4428270000000 1.0
C      1  0.5834720000000  0.4852000000000  0.5605620000000 1.0
C      1  0.4071490000000  0.5173640000000  0.4434280000000 1.0
C      1  0.4162850000000  0.4829820000000  0.5598600000000 1.0
C      1  0.5170610000000  0.6086760000000  0.5097610000000 1.0
C      1  0.5173500000000  0.3938400000000  0.4853340000000 1.0
C      1  0.4835280000000  0.6101240000000  0.5171430000000 1.0
C      1  0.4832800000000  0.3923630000000  0.4789530000000 1.0
C      1  0.5165870000000  0.6095020000000  0.4761690000000 1.0
C      1  0.5165650000000  0.3926830000000  0.5193580000000 1.0
C      1  0.4825840000000  0.6083490000000  0.4830300000000 1.0
C      1  0.4827950000000  0.3935400000000  0.5126660000000 1.0
C      1  0.5154010000000  0.5136340000000  0.4294050000000 1.0
C      1  0.5152690000000  0.4781720000000  0.5877760000000 1.0
C      1  0.4833760000000  0.5141010000000  0.4297210000000 1.0
C      1  0.4832790000000  0.4774540000000  0.5884460000000 1.0
C      1  0.5164580000000  0.5092860000000  0.5740670000000 1.0
C      1  0.5171570000000  0.4790520000000  0.4203810000000 1.0
C      1  0.4840240000000  0.5086760000000  0.5748650000000 1.0
C      1  0.4847980000000  0.4796560000000  0.4205830000000 1.0
C      1  0.4706900000000  0.5431250000000  0.4272840000000 1.0
C      1  0.4703040000000  0.4519270000000  0.5780180000000 1.0
C      1  0.5294630000000  0.5417260000000  0.4261050000000 1.0
C      1  0.5294290000000  0.4531060000000  0.5780820000000 1.0
C      1  0.4703190000000  0.5350760000000  0.5827200000000 1.0
C      1  0.4704980000000  0.4531210000000  0.4286220000000 1.0
C      1  0.5294600000000  0.5361920000000  0.5818640000000 1.0
C      1  0.5298420000000  0.4519440000000  0.4296110000000 1.0
C      1  0.5487480000000  0.5005580000000  0.4867460000000 1.0
C      1  0.4730420000000  0.5007670000000  0.5080400000000 1.0
C      1  0.4513050000000  0.5011820000000  0.4867840000000 1.0
C      1  0.5270100000000  0.5009930000000  0.5079900000000 1.0
C      1  0.5000200000000  0.5001380000000  0.4942790000000 1.0
END
