TITL C-862133-5440-331 3.20074789195376e-05 125000 -212.774698363869 0 0 45 (Cs) n - 1
REM
REM in /home/nfs/bkarasulu/CARBON/AIRSS/Generating-Clusters/TERSOFF/Higher-Symm/FIRE-HFTN
REM
REM
REM
REM
REM
REM ./C.cell (b20cbc046b6831c77cfcea5457e17084)
REM AIRSS Version 0.9.1 bugfix July 2018 build 013d7b7c2542+ Fri, 06 Jul 2018 19:26:36 +0100
REM compiler GCC version 9.2.1 20190827 (Red Hat 9.2.1-1)
REM options -cpp -mtune=generic -march=x86-64 -g -O0 -fpre-include=/usr/include/finclude/math-vector-fortran.h
REM seed -430899979 -1846150730 -1923260313 -539909141 148561489 197062844 -509529882 139838422 -936235813 -1016322711 76194633 -1105275602 -1182763589 1892456424 1035127254 -153910802 -1449276197 -1736155056 -1498656754 -1337569002 949766795 -1572034067 522136607 -634231475 -1026260276 -83592113 -1704403047 -1188535340 392593400 395469730 -813670701 1236788933 1259021609
REM
CELL 1.54180   50.00000   50.00000   50.00000   90.00000   90.00000   90.00000
LATT -1
SFAC C  
C      1  0.5609350000000  0.4763700000000  0.5005230000000 1.0
C      1  0.5624870000000  0.5215740000000  0.4998470000000 1.0
C      1  0.4380040000000  0.4743110000000  0.4984550000000 1.0
C      1  0.4405540000000  0.5206560000000  0.4995260000000 1.0
C      1  0.5609420000000  0.4993510000000  0.4775470000000 1.0
C      1  0.5624800000000  0.4986650000000  0.5227510000000 1.0
C      1  0.4380110000000  0.4973230000000  0.4754480000000 1.0
C      1  0.4405470000000  0.4983820000000  0.5217950000000 1.0
C      1  0.5317200000000  0.4888670000000  0.4325500000000 1.0
C      1  0.5339500000000  0.5122300000000  0.5673890000000 1.0
C      1  0.4680850000000  0.4866770000000  0.5689480000000 1.0
C      1  0.4708790000000  0.5112460000000  0.4332260000000 1.0
C      1  0.5317020000000  0.4313840000000  0.4900190000000 1.0
C      1  0.5339670000000  0.5662180000000  0.5134130000000 1.0
C      1  0.4681110000000  0.5678030000000  0.4878400000000 1.0
C      1  0.4708550000000  0.4320750000000  0.5123790000000 1.0
C      1  0.5122010000000  0.5305330000000  0.5103300000000 1.0
C      1  0.5108000000000  0.4677120000000  0.4900040000000 1.0
C      1  0.4910290000000  0.5327810000000  0.4896700000000 1.0
C      1  0.4876430000000  0.4703950000000  0.5093270000000 1.0
C      1  0.5121940000000  0.5091620000000  0.5316970000000 1.0
C      1  0.5108070000000  0.4888500000000  0.4688710000000 1.0
C      1  0.4910150000000  0.4885070000000  0.5339330000000 1.0
C      1  0.4876550000000  0.5081790000000  0.4715510000000 1.0
C      1  0.5391670000000  0.5397920000000  0.4954810000000 1.0
C      1  0.5370640000000  0.4591120000000  0.5062390000000 1.0
C      1  0.4637220000000  0.5399960000000  0.5050580000000 1.0
C      1  0.4614100000000  0.4549150000000  0.4929120000000 1.0
C      1  0.5391530000000  0.4943010000000  0.5409600000000 1.0
C      1  0.5370790000000  0.5050790000000  0.4602830000000 1.0
C      1  0.4637110000000  0.5039020000000  0.5411430000000 1.0
C      1  0.4614220000000  0.4917770000000  0.4560590000000 1.0
C      1  0.4970160000000  0.5597530000000  0.4718540000000 1.0
C      1  0.4956680000000  0.4429110000000  0.5295290000000 1.0
C      1  0.5057360000000  0.5578490000000  0.5289360000000 1.0
C      1  0.5041510000000  0.4398900000000  0.4729420000000 1.0
C      1  0.4969870000000  0.4706840000000  0.5609030000000 1.0
C      1  0.4956950000000  0.5283860000000  0.4440740000000 1.0
C      1  0.5057270000000  0.5277630000000  0.5590150000000 1.0
C      1  0.5041610000000  0.4717960000000  0.4410430000000 1.0
C      1  0.5247660000000  0.5380730000000  0.4631450000000 1.0
C      1  0.4775650000000  0.5370120000000  0.5381720000000 1.0
C      1  0.5247420000000  0.4619710000000  0.5392300000000 1.0
C      1  0.4762770000000  0.4592200000000  0.4603610000000 1.0
C      1  0.4746020000000  0.4946580000000  0.4958070000000 1.0
END
