TITL C-862134-6730-1458 1.22370036884451e-07 125000 -168.539062456254 0 0 28 (Td) n - 1
REM
REM in /home/nfs/bkarasulu/CARBON/AIRSS/Generating-Clusters/TERSOFF/Higher-Symm/FIRE-HFTN
REM
REM
REM
REM
REM
REM ./C.cell (b20cbc046b6831c77cfcea5457e17084)
REM AIRSS Version 0.9.1 bugfix July 2018 build 013d7b7c2542+ Fri, 06 Jul 2018 19:26:36 +0100
REM compiler GCC version 9.2.1 20190827 (Red Hat 9.2.1-1)
REM options -cpp -mtune=generic -march=x86-64 -g -O0 -fpre-include=/usr/include/finclude/math-vector-fortran.h
REM seed 951492570 -1452513409 1430634336 1430607114 1086544900 -205099525 2097621119 -11501038 416971507 -180271838 -1842693054 -2000468791 1391134743 -431469286 -311285253 127070468 -128406085 1130545859 1456769874 2012285928 -144145007 189438891 -1983513408 -754097954 -679734356 14548266 -1852133366 2130800692 1976920693 1958511003 -855108416 1039487777 201832858
REM
CELL 1.54180   50.00000   50.00000   50.00000   90.00000   90.00000   90.00000
LATT -1
SFAC C  
C      1  0.4627150000000  0.4989120000000  0.4641520000000 1.0
C      1  0.4627150000000  0.4627640000000  0.5003000000000 1.0
C      1  0.4988640000000  0.4627640000000  0.4641520000000 1.0
C      1  0.4627150000000  0.4982150000000  0.5357520000000 1.0
C      1  0.5343160000000  0.4982150000000  0.4641520000000 1.0
C      1  0.5343160000000  0.4989120000000  0.5357520000000 1.0
C      1  0.4627150000000  0.5343640000000  0.4996030000000 1.0
C      1  0.5343160000000  0.5343640000000  0.5003000000000 1.0
C      1  0.5343160000000  0.4627640000000  0.4996030000000 1.0
C      1  0.4988640000000  0.5343640000000  0.5357520000000 1.0
C      1  0.4981670000000  0.5343640000000  0.4641520000000 1.0
C      1  0.4981670000000  0.4627640000000  0.5357520000000 1.0
C      1  0.5142980000000  0.4827810000000  0.5501730000000 1.0
C      1  0.5487370000000  0.5143460000000  0.4841690000000 1.0
C      1  0.4827330000000  0.5487850000000  0.5157340000000 1.0
C      1  0.5142980000000  0.5143460000000  0.4497300000000 1.0
C      1  0.4827330000000  0.5143460000000  0.5501730000000 1.0
C      1  0.4827330000000  0.4827810000000  0.4497300000000 1.0
C      1  0.5487370000000  0.4827810000000  0.5157340000000 1.0
C      1  0.4482940000000  0.4827810000000  0.4841690000000 1.0
C      1  0.4482940000000  0.5143460000000  0.5157340000000 1.0
C      1  0.4827330000000  0.4483420000000  0.4841690000000 1.0
C      1  0.5142980000000  0.4483420000000  0.5157340000000 1.0
C      1  0.5142980000000  0.5487850000000  0.4841690000000 1.0
C      1  0.4710500000000  0.4710980000000  0.5274170000000 1.0
C      1  0.4710500000000  0.5260290000000  0.4724870000000 1.0
C      1  0.5259810000000  0.4710980000000  0.4724870000000 1.0
C      1  0.5259810000000  0.5260290000000  0.5274170000000 1.0
END
