TITL C-862503-991-290 -0.0510374810431285 125000 -701.111680853739 0 0 132 (C1) n - 1
REM
REM in /home/nfs/bkarasulu/CARBON/AIRSS/Generating-Clusters/TERSOFF/Higher-Symm/FIRE-HFTN
REM
REM
REM
REM
REM
REM ./C.cell (b20cbc046b6831c77cfcea5457e17084)
REM AIRSS Version 0.9.1 bugfix July 2018 build 013d7b7c2542+ Fri, 06 Jul 2018 19:26:36 +0100
REM compiler GCC version 9.2.1 20190827 (Red Hat 9.2.1-1)
REM options -cpp -mtune=generic -march=x86-64 -g -O0 -fpre-include=/usr/include/finclude/math-vector-fortran.h
REM seed -477007331 -1769479626 -1962981137 2013119161 1984561179 1021897756 768700783 -568913762 -2045416771 754103403 -713324115 -106417353 -357704764 -936028326 -1629207917 1122038776 -867891493 878389143 109504635 58298185 220796072 -95841717 -1630415929 1395857823 517288781 -891455913 1511755682 -1658892139 -1707524827 1928653619 1186145056 1738924889 660286758
REM
CELL 1.54180   50.00000   50.00000   50.00000   90.00000   90.00000   90.00000
LATT -1
SFAC C  
C      1  0.4837110000000  0.5665530000000  0.4470690000000 1.0
C      1  0.4506100000000  0.4512580000000  0.4480180000000 1.0
C      1  0.5672490000000  0.4816980000000  0.4471530000000 1.0
C      1  0.4554610000000  0.5609630000000  0.4316250000000 1.0
C      1  0.4686480000000  0.4300380000000  0.4315960000000 1.0
C      1  0.5760040000000  0.5097040000000  0.4329890000000 1.0
C      1  0.5518730000000  0.4812100000000  0.5809470000000 1.0
C      1  0.4863410000000  0.5551640000000  0.5811290000000 1.0
C      1  0.4645550000000  0.4673700000000  0.5789570000000 1.0
C      1  0.5990960000000  0.4616160000000  0.5348200000000 1.0
C      1  0.4842380000000  0.6052330000000  0.5335670000000 1.0
C      1  0.4196410000000  0.4373750000000  0.5351480000000 1.0
C      1  0.4601380000000  0.5893260000000  0.4622430000000 1.0
C      1  0.4438150000000  0.4199700000000  0.4647610000000 1.0
C      1  0.5982240000000  0.4912130000000  0.4634530000000 1.0
C      1  0.4788260000000  0.4434930000000  0.4907060000000 1.0
C      1  0.5551130000000  0.5120260000000  0.4865090000000 1.0
C      1  0.4611280000000  0.5417910000000  0.4856160000000 1.0
C      1  0.4589690000000  0.5042620000000  0.4162670000000 1.0
C      1  0.5164020000000  0.4620620000000  0.4151990000000 1.0
C      1  0.5251380000000  0.5337780000000  0.4167560000000 1.0
C      1  0.5182150000000  0.4334420000000  0.4188580000000 1.0
C      1  0.5478000000000  0.5504720000000  0.4226530000000 1.0
C      1  0.4332320000000  0.5165650000000  0.4202310000000 1.0
C      1  0.4873280000000  0.4129430000000  0.4884770000000 1.0
C      1  0.5773210000000  0.5345610000000  0.4900840000000 1.0
C      1  0.4309260000000  0.5509910000000  0.4881900000000 1.0
C      1  0.4366990000000  0.4687710000000  0.4945590000000 1.0
C      1  0.5616550000000  0.4634960000000  0.4949940000000 1.0
C      1  0.5008130000000  0.5697560000000  0.4956120000000 1.0
C      1  0.5491750000000  0.5853200000000  0.4613580000000 1.0
C      1  0.3998550000000  0.5017400000000  0.4577960000000 1.0
C      1  0.5479390000000  0.4104310000000  0.4569620000000 1.0
C      1  0.4870430000000  0.4954180000000  0.5828530000000 1.0
C      1  0.5189960000000  0.4830920000000  0.5801870000000 1.0
C      1  0.4996750000000  0.5269560000000  0.5837360000000 1.0
C      1  0.4564800000000  0.4995180000000  0.4736090000000 1.0
C      1  0.5230790000000  0.4613790000000  0.4716850000000 1.0
C      1  0.5207980000000  0.5356260000000  0.4747700000000 1.0
C      1  0.5685040000000  0.5429810000000  0.5683870000000 1.0
C      1  0.4302890000000  0.5396740000000  0.5662070000000 1.0
C      1  0.5039970000000  0.4178880000000  0.5661460000000 1.0
C      1  0.5419170000000  0.5131700000000  0.5556400000000 1.0
C      1  0.4683020000000  0.5349250000000  0.5490840000000 1.0
C      1  0.4905040000000  0.4536730000000  0.5489310000000 1.0
C      1  0.5783940000000  0.5416280000000  0.5367160000000 1.0
C      1  0.4215390000000  0.5493940000000  0.5353540000000 1.0
C      1  0.4970730000000  0.4050260000000  0.5356240000000 1.0
C      1  0.5863210000000  0.5497000000000  0.4648070000000 1.0
C      1  0.4142380000000  0.5512810000000  0.4620420000000 1.0
C      1  0.4971130000000  0.3993040000000  0.4616230000000 1.0
C      1  0.5272040000000  0.5310140000000  0.5747540000000 1.0
C      1  0.4639750000000  0.5116490000000  0.5677670000000 1.0
C      1  0.5146220000000  0.4585020000000  0.5652500000000 1.0
C      1  0.5164630000000  0.4856430000000  0.4551470000000 1.0
C      1  0.5035590000000  0.5193740000000  0.4563090000000 1.0
C      1  0.4805730000000  0.4919950000000  0.4566700000000 1.0
C      1  0.4488430000000  0.4037570000000  0.5161070000000 1.0
C      1  0.6076150000000  0.5048560000000  0.5152230000000 1.0
C      1  0.4422750000000  0.5922610000000  0.5131380000000 1.0
C      1  0.5090280000000  0.5566510000000  0.5209790000000 1.0
C      1  0.4425290000000  0.4807980000000  0.5218070000000 1.0
C      1  0.5437150000000  0.4597280000000  0.5176810000000 1.0
C      1  0.5240570000000  0.4314710000000  0.4603230000000 1.0
C      1  0.5445180000000  0.5535920000000  0.4643580000000 1.0
C      1  0.4299920000000  0.5123620000000  0.4618240000000 1.0
C      1  0.4357920000000  0.4752490000000  0.5714180000000 1.0
C      1  0.5601670000000  0.4527340000000  0.5708370000000 1.0
C      1  0.5087810000000  0.5749860000000  0.5715360000000 1.0
C      1  0.5349870000000  0.4350290000000  0.5659990000000 1.0
C      1  0.5370730000000  0.5604230000000  0.5704190000000 1.0
C      1  0.4331850000000  0.5059520000000  0.5708950000000 1.0
C      1  0.4338650000000  0.5407780000000  0.4398170000000 1.0
C      1  0.4970590000000  0.4212450000000  0.4387050000000 1.0
C      1  0.5682440000000  0.5378280000000  0.4421280000000 1.0
C      1  0.4095550000000  0.4602290000000  0.4861410000000 1.0
C      1  0.5813470000000  0.4429900000000  0.4863110000000 1.0
C      1  0.5106070000000  0.5965050000000  0.4868980000000 1.0
C      1  0.5863550000000  0.5985680000000  0.4904690000000 1.0
C      1  0.3702740000000  0.5284730000000  0.4864050000000 1.0
C      1  0.5382930000000  0.3728950000000  0.4872070000000 1.0
C      1  0.6022570000000  0.4564290000000  0.5037390000000 1.0
C      1  0.4881930000000  0.6092720000000  0.5027280000000 1.0
C      1  0.4123160000000  0.4360280000000  0.5044140000000 1.0
C      1  0.5160860000000  0.4242140000000  0.4897960000000 1.0
C      1  0.5524610000000  0.5527490000000  0.4962960000000 1.0
C      1  0.4257830000000  0.5204360000000  0.4930950000000 1.0
C      1  0.5972760000000  0.5013190000000  0.5654800000000 1.0
C      1  0.4495710000000  0.5854850000000  0.5632320000000 1.0
C      1  0.4536530000000  0.4173010000000  0.5658950000000 1.0
C      1  0.4976820000000  0.5372270000000  0.4311430000000 1.0
C      1  0.4682520000000  0.4781060000000  0.4313110000000 1.0
C      1  0.5353620000000  0.4832890000000  0.4298580000000 1.0
C      1  0.4774780000000  0.3990800000000  0.5124530000000 1.0
C      1  0.5945240000000  0.5306190000000  0.5131770000000 1.0
C      1  0.4256610000000  0.5682680000000  0.5110310000000 1.0
C      1  0.5048040000000  0.5905690000000  0.4567630000000 1.0
C      1  0.4186260000000  0.4562220000000  0.4564230000000 1.0
C      1  0.5794280000000  0.4518340000000  0.4563540000000 1.0
C      1  0.5250300000000  0.5330100000000  0.5067950000000 1.0
C      1  0.4546080000000  0.5052690000000  0.5050960000000 1.0
C      1  0.5167840000000  0.4558750000000  0.5030040000000 1.0
C      1  0.5243800000000  0.3869070000000  0.4619960000000 1.0
C      1  0.5819440000000  0.5793560000000  0.4652130000000 1.0
C      1  0.3900520000000  0.5335930000000  0.4617330000000 1.0
C      1  0.4615820000000  0.6002760000000  0.4904690000000 1.0
C      1  0.4327450000000  0.4164370000000  0.4929900000000 1.0
C      1  0.6065940000000  0.4844910000000  0.4920340000000 1.0
C      1  0.4887110000000  0.4702130000000  0.4098270000000 1.0
C      1  0.5329790000000  0.5062730000000  0.4098660000000 1.0
C      1  0.4797800000000  0.5240330000000  0.4103300000000 1.0
C      1  0.5486570000000  0.5302730000000  0.5315660000000 1.0
C      1  0.4468410000000  0.5296640000000  0.5282220000000 1.0
C      1  0.5027730000000  0.4362530000000  0.5276950000000 1.0
C      1  0.4751100000000  0.4369270000000  0.5717850000000 1.0
C      1  0.5691010000000  0.5073370000000  0.5736040000000 1.0
C      1  0.4572550000000  0.5581400000000  0.5703800000000 1.0
C      1  0.5853580000000  0.4450690000000  0.5553720000000 1.0
C      1  0.5051860000000  0.6002320000000  0.5543450000000 1.0
C      1  0.4150010000000  0.4597150000000  0.5544370000000 1.0
C      1  0.5343500000000  0.4350730000000  0.5349430000000 1.0
C      1  0.5352450000000  0.5580740000000  0.5388800000000 1.0
C      1  0.4307630000000  0.5044610000000  0.5395910000000 1.0
C      1  0.5605300000000  0.3946330000000  0.4818800000000 1.0
C      1  0.5556390000000  0.6043800000000  0.4862820000000 1.0
C      1  0.3792350000000  0.4985310000000  0.4821220000000 1.0
C      1  0.4387190000000  0.4163640000000  0.5413500000000 1.0
C      1  0.6049360000000  0.4894450000000  0.5404160000000 1.0
C      1  0.4564770000000  0.5981700000000  0.5386480000000 1.0
C      1  0.4575650000000  0.4573400000000  0.4781000000000 1.0
C      1  0.5587980000000  0.4858020000000  0.4768510000000 1.0
C      1  0.4829070000000  0.5571720000000  0.4767760000000 1.0
END
