TITL C-862128-1543-812 273207.995044738 125000 -949.178032585207 0 0 164 (C1) n - 1
REM
REM in /home/nfs/bkarasulu/CARBON/AIRSS/Generating-Clusters/TERSOFF/Higher-Symm/FIRE-HFTN
REM
REM
REM
REM
REM
REM ./C.cell (b20cbc046b6831c77cfcea5457e17084)
REM AIRSS Version 0.9.1 bugfix July 2018 build 013d7b7c2542+ Fri, 06 Jul 2018 19:26:36 +0100
REM compiler GCC version 9.2.1 20190827 (Red Hat 9.2.1-1)
REM options -cpp -mtune=generic -march=x86-64 -g -O0 -fpre-include=/usr/include/finclude/math-vector-fortran.h
REM seed 986968444 -1043932692 1978325405 148523308 277380774 2072757991 245640813 -1076665626 1049193118 1399541756 -1176428543 1249874222 -592187417 -2004927127 860003057 37410522 1638202871 2035981555 1101109285 -2082908347 1587551329 1242518768 2134117222 -248398284 1774498448 -1461302033 83183402 1521416366 -39203631 -2061178353 1529939475 558110057 -1455271116
REM
CELL 1.54180   50.00000   50.00000   50.00000   90.00000   90.00000   90.00000
LATT -1
SFAC C  
C      1  0.4796280000000  0.4058100000000  0.5188660000000 1.0
C      1  0.5269380000000  0.4628460000000  0.5469380000000 1.0
C      1  0.5173950000000  0.4249770000000  0.4865460000000 1.0
C      1  0.5109300000000  0.5086690000000  0.4352230000000 1.0
C      1  0.5012290000000  0.4244590000000  0.5666810000000 1.0
C      1  0.5261470000000  0.4811760000000  0.3938750000000 1.0
C      1  0.5221180000000  0.3794240000000  0.4159730000000 1.0
C      1  0.4468860000000  0.4913470000000  0.5925150000000 1.0
C      1  0.4575440000000  0.5594620000000  0.5626960000000 1.0
C      1  0.4410160000000  0.4990740000000  0.5485090000000 1.0
C      1  0.5431040000000  0.4169970000000  0.5414180000000 1.0
C      1  0.4972230000000  0.6009280000000  0.4964210000000 1.0
C      1  0.5644510000000  0.4656850000000  0.4140470000000 1.0
C      1  0.5486290000000  0.4091760000000  0.4514190000000 1.0
C      1  0.5814880000000  0.5207790000000  0.4949300000000 1.0
C      1  0.5949140000000  0.5792120000000  0.4870580000000 1.0
C      1  0.5507530000000  0.5900450000000  0.5030920000000 1.0
C      1  0.4310060000000  0.4868500000000  0.4621470000000 1.0
C      1  0.4952370000000  0.4394440000000  0.4406980000000 1.0
C      1  0.4093600000000  0.5206210000000  0.5657410000000 1.0
C      1  0.5436580000000  0.5329970000000  0.5250870000000 1.0
C      1  0.5503090000000  0.4416320000000  0.5906670000000 1.0
C      1  0.5333400000000  0.4226480000000  0.5721050000000 1.0
C      1  0.4094860000000  0.5441100000000  0.4139760000000 1.0
C      1  0.4896350000000  0.4701970000000  0.6104700000000 1.0
C      1  0.5969150000000  0.5355250000000  0.5151370000000 1.0
C      1  0.4944550000000  0.5403690000000  0.5566830000000 1.0
C      1  0.4771700000000  0.4502170000000  0.5311070000000 1.0
C      1  0.4313290000000  0.4547730000000  0.5282530000000 1.0
C      1  0.4565460000000  0.4057450000000  0.5771040000000 1.0
C      1  0.4297570000000  0.4728060000000  0.5497210000000 1.0
C      1  0.5355130000000  0.5219170000000  0.4257190000000 1.0
C      1  0.4462010000000  0.4616520000000  0.5952220000000 1.0
C      1  0.5679620000000  0.5766140000000  0.5308270000000 1.0
C      1  0.4785210000000  0.4908860000000  0.3859450000000 1.0
C      1  0.5613220000000  0.5479540000000  0.5423010000000 1.0
C      1  0.5399610000000  0.4694760000000  0.5982400000000 1.0
C      1  0.5187280000000  0.5768070000000  0.5462590000000 1.0
C      1  0.5128760000000  0.4869090000000  0.4530000000000 1.0
C      1  0.5576200000000  0.5534340000000  0.4836930000000 1.0
C      1  0.4330140000000  0.4986600000000  0.4092620000000 1.0
C      1  0.4417430000000  0.4276720000000  0.5304830000000 1.0
C      1  0.4820010000000  0.5356030000000  0.5289750000000 1.0
C      1  0.4173120000000  0.5631670000000  0.4658560000000 1.0
C      1  0.5256280000000  0.4285330000000  0.4042900000000 1.0
C      1  0.4156510000000  0.5708770000000  0.4233010000000 1.0
C      1  0.3890830000000  0.5124580000000  0.5170710000000 1.0
C      1  0.4369710000000  0.4117680000000  0.5554010000000 1.0
C      1  0.4420430000000  0.5723820000000  0.4768130000000 1.0
C      1  0.5893530000000  0.5517250000000  0.4438920000000 1.0
C      1  0.4033330000000  0.5356490000000  0.5041350000000 1.0
C      1  0.4085360000000  0.5365140000000  0.4737380000000 1.0
C      1  0.5064010000000  0.4731150000000  0.5651190000000 1.0
C      1  0.4887860000000  0.5224270000000  0.6003020000000 1.0
C      1  0.5760940000000  0.4325970000000  0.6006630000000 1.0
C      1  0.4355460000000  0.4367280000000  0.4577040000000 1.0
C      1  0.4591760000000  0.4268750000000  0.4741080000000 1.0
C      1  0.6226090000000  0.4691250000000  0.4519700000000 1.0
C      1  0.4705960000000  0.4475710000000  0.6024200000000 1.0
C      1  0.5069680000000  0.5762590000000  0.5744770000000 1.0
C      1  0.4828630000000  0.5178330000000  0.4254780000000 1.0
C      1  0.5342650000000  0.5449410000000  0.6049430000000 1.0
C      1  0.5753650000000  0.4716550000000  0.5304060000000 1.0
C      1  0.5118750000000  0.4698930000000  0.5922040000000 1.0
C      1  0.4579380000000  0.5522710000000  0.4904820000000 1.0
C      1  0.6002930000000  0.4882610000000  0.5328280000000 1.0
C      1  0.4174480000000  0.5133200000000  0.4542400000000 1.0
C      1  0.5060820000000  0.5018730000000  0.3847130000000 1.0
C      1  0.5603650000000  0.5909760000000  0.4528470000000 1.0
C      1  0.4783120000000  0.5701620000000  0.5814190000000 1.0
C      1  0.4665600000000  0.5664540000000  0.4219160000000 1.0
C      1  0.4217640000000  0.4715490000000  0.4170050000000 1.0
C      1  0.5148870000000  0.5572520000000  0.4035080000000 1.0
C      1  0.5942190000000  0.5212980000000  0.5676550000000 1.0
C      1  0.4819930000000  0.6035710000000  0.4705650000000 1.0
C      1  0.5329820000000  0.4054670000000  0.4258550000000 1.0
C      1  0.4605940000000  0.5004740000000  0.4993460000000 1.0
C      1  0.5563510000000  0.5068720000000  0.4127500000000 1.0
C      1  0.5359830000000  0.4044080000000  0.4781530000000 1.0
C      1  0.5201650000000  0.5526790000000  0.5259350000000 1.0
C      1  0.5479840000000  0.4629630000000  0.4874510000000 1.0
C      1  0.5193800000000  0.4539780000000  0.4787240000000 1.0
C      1  0.4624770000000  0.5048910000000  0.5669520000000 1.0
C      1  0.4945350000000  0.4678640000000  0.4881160000000 1.0
C      1  0.5584920000000  0.5431570000000  0.5706850000000 1.0
C      1  0.4782570000000  0.5499430000000  0.6042260000000 1.0
C      1  0.4838790000000  0.6095080000000  0.5221970000000 1.0
C      1  0.5932470000000  0.5103750000000  0.4705550000000 1.0
C      1  0.4533510000000  0.5983040000000  0.4711200000000 1.0
C      1  0.4628750000000  0.4712200000000  0.4301470000000 1.0
C      1  0.5933490000000  0.5657210000000  0.5143560000000 1.0
C      1  0.4932890000000  0.4266380000000  0.5361970000000 1.0
C      1  0.4107130000000  0.4248590000000  0.4703980000000 1.0
C      1  0.6200600000000  0.4704920000000  0.4231560000000 1.0
C      1  0.5827120000000  0.5003750000000  0.5857830000000 1.0
C      1  0.5697720000000  0.5935000000000  0.4806180000000 1.0
C      1  0.6062100000000  0.5653230000000  0.4639510000000 1.0
C      1  0.5441570000000  0.5911870000000  0.5445440000000 1.0
C      1  0.5203270000000  0.4589780000000  0.4449380000000 1.0
C      1  0.5088060000000  0.3841480000000  0.3897550000000 1.0
C      1  0.5196080000000  0.4572120000000  0.4114740000000 1.0
C      1  0.4955810000000  0.6017770000000  0.4443270000000 1.0
C      1  0.4234610000000  0.4657460000000  0.5036780000000 1.0
C      1  0.5150110000000  0.5633070000000  0.4449770000000 1.0
C      1  0.3891420000000  0.4432250000000  0.4784650000000 1.0
C      1  0.3959670000000  0.4652190000000  0.4960750000000 1.0
C      1  0.5905170000000  0.5226680000000  0.4445660000000 1.0
C      1  0.5307250000000  0.5436270000000  0.4863240000000 1.0
C      1  0.5537900000000  0.4969480000000  0.5911530000000 1.0
C      1  0.5254250000000  0.5713760000000  0.5969220000000 1.0
C      1  0.5853770000000  0.4325940000000  0.4989590000000 1.0
C      1  0.4972260000000  0.3951990000000  0.4648550000000 1.0
C      1  0.4201580000000  0.5196530000000  0.4255210000000 1.0
C      1  0.5378740000000  0.5222600000000  0.5840610000000 1.0
C      1  0.4235210000000  0.4064960000000  0.4912290000000 1.0
C      1  0.3799630000000  0.4892690000000  0.5007270000000 1.0
C      1  0.5069930000000  0.5200600000000  0.5755720000000 1.0
C      1  0.5085030000000  0.5523460000000  0.4702580000000 1.0
C      1  0.5848070000000  0.4437980000000  0.5251120000000 1.0
C      1  0.5111420000000  0.4129770000000  0.3828020000000 1.0
C      1  0.6033490000000  0.4893790000000  0.4089280000000 1.0
C      1  0.4940380000000  0.5769100000000  0.4256340000000 1.0
C      1  0.5550810000000  0.4824740000000  0.5088690000000 1.0
C      1  0.5522700000000  0.4540450000000  0.4376110000000 1.0
C      1  0.4738230000000  0.4977250000000  0.6090280000000 1.0
C      1  0.4988200000000  0.4932710000000  0.5290650000000 1.0
C      1  0.4926860000000  0.4984490000000  0.5584240000000 1.0
C      1  0.5637230000000  0.5662630000000  0.4368420000000 1.0
C      1  0.3877620000000  0.5107560000000  0.5468740000000 1.0
C      1  0.4169240000000  0.5596710000000  0.5237730000000 1.0
C      1  0.5653670000000  0.4331350000000  0.4525450000000 1.0
C      1  0.3943770000000  0.4827520000000  0.5867120000000 1.0
C      1  0.4423580000000  0.5812390000000  0.4271340000000 1.0
C      1  0.4821500000000  0.5398420000000  0.4737810000000 1.0
C      1  0.5486230000000  0.3870580000000  0.4985370000000 1.0
C      1  0.4845290000000  0.4210230000000  0.4607070000000 1.0
C      1  0.4410200000000  0.4818690000000  0.4878590000000 1.0
C      1  0.5109390000000  0.5115830000000  0.5103610000000 1.0
C      1  0.4851480000000  0.5199060000000  0.4974810000000 1.0
C      1  0.5688010000000  0.4442340000000  0.4789500000000 1.0
C      1  0.4489130000000  0.5332000000000  0.5716800000000 1.0
C      1  0.5223920000000  0.4370540000000  0.5326610000000 1.0
C      1  0.4664650000000  0.5573670000000  0.5179590000000 1.0
C      1  0.4439170000000  0.5249740000000  0.5036250000000 1.0
C      1  0.4560900000000  0.6002750000000  0.5297260000000 1.0
C      1  0.5217910000000  0.5833950000000  0.4974000000000 1.0
C      1  0.4982030000000  0.6273140000000  0.5402470000000 1.0
C      1  0.4999010000000  0.5296710000000  0.4005680000000 1.0
C      1  0.4525510000000  0.4135250000000  0.5039270000000 1.0
C      1  0.3779820000000  0.4868120000000  0.5622800000000 1.0
C      1  0.5545390000000  0.4715290000000  0.5515710000000 1.0
C      1  0.5465910000000  0.3909760000000  0.5280270000000 1.0
C      1  0.4871430000000  0.4715030000000  0.5158150000000 1.0
C      1  0.4695290000000  0.5329750000000  0.4470980000000 1.0
C      1  0.4321800000000  0.5203060000000  0.5304860000000 1.0
C      1  0.5550080000000  0.5123960000000  0.5043130000000 1.0
C      1  0.4644700000000  0.4953070000000  0.4117010000000 1.0
C      1  0.4483140000000  0.5714000000000  0.5353830000000 1.0
C      1  0.4361040000000  0.4636700000000  0.4431070000000 1.0
C      1  0.5837250000000  0.5067620000000  0.4213690000000 1.0
C      1  0.6008480000000  0.5165610000000  0.5393970000000 1.0
C      1  0.5380700000000  0.5519020000000  0.4279460000000 1.0
C      1  0.4179460000000  0.5020830000000  0.5893050000000 1.0
C      1  0.4784220000000  0.4237250000000  0.5858300000000 1.0
END
