TITL C-862127-1500-683 1.25310186489498 125000 -967.952524730227 0 0 171 (Ci) n - 1
REM
REM in /home/nfs/bkarasulu/CARBON/AIRSS/Generating-Clusters/TERSOFF/Higher-Symm/FIRE-HFTN
REM
REM
REM
REM
REM
REM ./C.cell (b20cbc046b6831c77cfcea5457e17084)
REM AIRSS Version 0.9.1 bugfix July 2018 build 013d7b7c2542+ Fri, 06 Jul 2018 19:26:36 +0100
REM compiler GCC version 9.2.1 20190827 (Red Hat 9.2.1-1)
REM options -cpp -mtune=generic -march=x86-64 -g -O0 -fpre-include=/usr/include/finclude/math-vector-fortran.h
REM seed 1194864663 1613361664 -646549789 6541190 1108923646 -2058892944 -723819705 -530611468 1064851278 -1678743986 -1785382821 1185803765 -12902072 837646846 -409620852 -1488567931 -1533849073 -608723025 303401336 -2006773017 -551408729 -581449810 830929638 -34198864 -1171432616 -433475516 1163103218 399099731 -941776935 341948096 -273980777 -1722003562 -724440901
REM
CELL 1.54180   50.00000   50.00000   50.00000   90.00000   90.00000   90.00000
LATT -1
SFAC C  
C      1  0.4934260000000  0.6065470000000  0.5455680000000 1.0
C      1  0.5064590000000  0.3936990000000  0.4544160000000 1.0
C      1  0.4323980000000  0.5882460000000  0.5119890000000 1.0
C      1  0.5674870000000  0.4120000000000  0.4879950000000 1.0
C      1  0.5620740000000  0.4522450000000  0.4654370000000 1.0
C      1  0.4378110000000  0.5480000000000  0.5345470000000 1.0
C      1  0.4613170000000  0.4508280000000  0.4063600000000 1.0
C      1  0.5385680000000  0.5494170000000  0.5936230000000 1.0
C      1  0.4823520000000  0.4937410000000  0.5743510000000 1.0
C      1  0.5175330000000  0.5065050000000  0.4256320000000 1.0
C      1  0.4337390000000  0.4546380000000  0.4197940000000 1.0
C      1  0.5661460000000  0.5456070000000  0.5801890000000 1.0
C      1  0.4642420000000  0.5556000000000  0.4377150000000 1.0
C      1  0.5356420000000  0.4446450000000  0.5622680000000 1.0
C      1  0.4239940000000  0.5303500000000  0.4182240000000 1.0
C      1  0.5758910000000  0.4698950000000  0.5817600000000 1.0
C      1  0.4719610000000  0.4989940000000  0.4486000000000 1.0
C      1  0.5279240000000  0.5012520000000  0.5513830000000 1.0
C      1  0.5572860000000  0.4495840000000  0.4113530000000 1.0
C      1  0.4425990000000  0.5506610000000  0.5886310000000 1.0
C      1  0.5895240000000  0.4156290000000  0.5307930000000 1.0
C      1  0.4103610000000  0.5846160000000  0.4691900000000 1.0
C      1  0.4684230000000  0.5817760000000  0.5487210000000 1.0
C      1  0.5314620000000  0.4184690000000  0.4512620000000 1.0
C      1  0.5293940000000  0.5452630000000  0.5095490000000 1.0
C      1  0.4704910000000  0.4549820000000  0.4904340000000 1.0
C      1  0.5622760000000  0.5809460000000  0.5131030000000 1.0
C      1  0.4376090000000  0.4193000000000  0.4868810000000 1.0
C      1  0.5191820000000  0.4953610000000  0.4723970000000 1.0
C      1  0.4807030000000  0.5048840000000  0.5275860000000 1.0
C      1  0.5983730000000  0.5244620000000  0.5230390000000 1.0
C      1  0.4015120000000  0.4757840000000  0.4769440000000 1.0
C      1  0.5175920000000  0.5774840000000  0.4717960000000 1.0
C      1  0.4822930000000  0.4227610000000  0.5281870000000 1.0
C      1  0.5409780000000  0.4225730000000  0.4928820000000 1.0
C      1  0.4589070000000  0.5776720000000  0.5071020000000 1.0
C      1  0.5127980000000  0.5031150000000  0.5820670000000 1.0
C      1  0.4870870000000  0.4971300000000  0.4179170000000 1.0
C      1  0.5463740000000  0.4645240000000  0.5811160000000 1.0
C      1  0.4535100000000  0.5357220000000  0.4188670000000 1.0
C      1  0.5759160000000  0.5206400000000  0.5696250000000 1.0
C      1  0.4239690000000  0.4796050000000  0.4303580000000 1.0
C      1  0.5025650000000  0.5446250000000  0.5490350000000 1.0
C      1  0.4973190000000  0.4556210000000  0.4509490000000 1.0
C      1  0.5079020000000  0.4548210000000  0.3950130000000 1.0
C      1  0.4919830000000  0.5454240000000  0.6049710000000 1.0
C      1  0.5560920000000  0.4658920000000  0.5068060000000 1.0
C      1  0.4437920000000  0.5343540000000  0.4931780000000 1.0
C      1  0.5624560000000  0.4788970000000  0.4165390000000 1.0
C      1  0.4374290000000  0.5213480000000  0.5834450000000 1.0
C      1  0.4841740000000  0.4702790000000  0.4024910000000 1.0
C      1  0.5157110000000  0.5299660000000  0.5974930000000 1.0
C      1  0.4717860000000  0.5187330000000  0.4046970000000 1.0
C      1  0.5280990000000  0.4815120000000  0.5952860000000 1.0
C      1  0.4815040000000  0.5660260000000  0.5853880000000 1.0
C      1  0.5183800000000  0.4342190000000  0.4145950000000 1.0
C      1  0.4358590000000  0.5362310000000  0.4664750000000 1.0
C      1  0.5640260000000  0.4640140000000  0.5335080000000 1.0
C      1  0.6071050000000  0.5291810000000  0.4748840000000 1.0
C      1  0.3927800000000  0.4710640000000  0.5250990000000 1.0
C      1  0.5161020000000  0.5601430000000  0.4190310000000 1.0
C      1  0.4837830000000  0.4401030000000  0.5809530000000 1.0
C      1  0.4764540000000  0.5405650000000  0.5659600000000 1.0
C      1  0.5234310000000  0.4596800000000  0.4340230000000 1.0
C      1  0.4592640000000  0.4608400000000  0.5406710000000 1.0
C      1  0.5406210000000  0.5394060000000  0.4593130000000 1.0
C      1  0.3959320000000  0.5295730000000  0.5521400000000 1.0
C      1  0.6039530000000  0.4706730000000  0.4478430000000 1.0
C      1  0.4564180000000  0.3991350000000  0.4963340000000 1.0
C      1  0.5434670000000  0.6011100000000  0.5036500000000 1.0
C      1  0.5681030000000  0.5687550000000  0.5608050000000 1.0
C      1  0.4317820000000  0.4314900000000  0.4391780000000 1.0
C      1  0.4994800000000  0.4123440000000  0.4243880000000 1.0
C      1  0.5004050000000  0.5879010000000  0.5755950000000 1.0
C      1  0.5743640000000  0.5180320000000  0.5391450000000 1.0
C      1  0.4255210000000  0.4822140000000  0.4608380000000 1.0
C      1  0.5344220000000  0.5566110000000  0.4809240000000 1.0
C      1  0.4654630000000  0.4436340000000  0.5190600000000 1.0
C      1  0.5167160000000  0.4048620000000  0.5570750000000 1.0
C      1  0.4831690000000  0.5953840000000  0.4429080000000 1.0
C      1  0.4823500000000  0.6248660000000  0.5192940000000 1.0
C      1  0.5175350000000  0.3753800000000  0.4806900000000 1.0
C      1  0.4991540000000  0.4242920000000  0.4897590000000 1.0
C      1  0.5007310000000  0.5759530000000  0.5102250000000 1.0
C      1  0.5909920000000  0.4200130000000  0.5027850000000 1.0
C      1  0.4088930000000  0.5802330000000  0.4971980000000 1.0
C      1  0.4277380000000  0.5059650000000  0.5353230000000 1.0
C      1  0.5721470000000  0.4942800000000  0.4646610000000 1.0
C      1  0.4766030000000  0.4835570000000  0.5472420000000 1.0
C      1  0.5232820000000  0.5166880000000  0.4527420000000 1.0
C      1  0.4442460000000  0.5732580000000  0.5674510000000 1.0
C      1  0.5556390000000  0.4269870000000  0.4325330000000 1.0
C      1  0.5493320000000  0.5259920000000  0.3945240000000 1.0
C      1  0.4505530000000  0.4742540000000  0.6054590000000 1.0
C      1  0.4950940000000  0.4825770000000  0.4597270000000 1.0
C      1  0.5047910000000  0.5176680000000  0.5402560000000 1.0
C      1  0.4405380000000  0.5116210000000  0.4519070000000 1.0
C      1  0.5593470000000  0.4886240000000  0.5480770000000 1.0
C      1  0.6069640000000  0.5070980000000  0.4985870000000 1.0
C      1  0.3929210000000  0.4931470000000  0.5013970000000 1.0
C      1  0.4554140000000  0.5238800000000  0.5426270000000 1.0
C      1  0.5444710000000  0.4763650000000  0.4573570000000 1.0
C      1  0.4655130000000  0.5482420000000  0.5030120000000 1.0
C      1  0.5343720000000  0.4520030000000  0.4969720000000 1.0
C      1  0.5113300000000  0.4355080000000  0.4661260000000 1.0
C      1  0.4885550000000  0.5647370000000  0.5338580000000 1.0
C      1  0.5914340000000  0.4522820000000  0.5630500000000 1.0
C      1  0.4084510000000  0.5479630000000  0.4369340000000 1.0
C      1  0.4705070000000  0.4223150000000  0.4202450000000 1.0
C      1  0.5293780000000  0.5779310000000  0.5797380000000 1.0
C      1  0.5602980000000  0.5969890000000  0.4533900000000 1.0
C      1  0.4395870000000  0.4032560000000  0.5465930000000 1.0
C      1  0.6029580000000  0.4451470000000  0.4938530000000 1.0
C      1  0.3969270000000  0.5550980000000  0.5061310000000 1.0
C      1  0.4914210000000  0.6126800000000  0.4671250000000 1.0
C      1  0.5084640000000  0.3875650000000  0.5328590000000 1.0
C      1  0.4529170000000  0.5834220000000  0.4383420000000 1.0
C      1  0.5469670000000  0.4168240000000  0.5616410000000 1.0
C      1  0.5044400000000  0.5875450000000  0.4227970000000 1.0
C      1  0.4954450000000  0.4127000000000  0.5771870000000 1.0
C      1  0.4744440000000  0.6137220000000  0.4922010000000 1.0
C      1  0.5254410000000  0.3865240000000  0.5077830000000 1.0
C      1  0.5553940000000  0.5935560000000  0.5737320000000 1.0
C      1  0.4444910000000  0.4066890000000  0.4262520000000 1.0
C      1  0.4585470000000  0.4987790000000  0.5910750000000 1.0
C      1  0.5413380000000  0.5014670000000  0.4089090000000 1.0
C      1  0.4153210000000  0.4785300000000  0.5444420000000 1.0
C      1  0.5845640000000  0.5217160000000  0.4555420000000 1.0
C      1  0.5030170000000  0.4657500000000  0.4973390000000 1.0
C      1  0.4968680000000  0.5344960000000  0.5026450000000 1.0
C      1  0.4811860000000  0.3756690000000  0.5329330000000 1.0
C      1  0.5186990000000  0.6245770000000  0.4670500000000 1.0
C      1  0.5216140000000  0.4499710000000  0.5369200000000 1.0
C      1  0.4782710000000  0.5502740000000  0.4630640000000 1.0
C      1  0.5909190000000  0.4531870000000  0.4673280000000 1.0
C      1  0.4089660000000  0.5470580000000  0.5326560000000 1.0
C      1  0.5275120000000  0.5600250000000  0.5545400000000 1.0
C      1  0.4723730000000  0.4402210000000  0.4454440000000 1.0
C      1  0.5841660000000  0.4978500000000  0.5863360000000 1.0
C      1  0.4157190000000  0.5023960000000  0.4136480000000 1.0
C      1  0.4126020000000  0.4254710000000  0.5005150000000 1.0
C      1  0.5872830000000  0.5747750000000  0.4994690000000 1.0
C      1  0.6136090000000  0.4624060000000  0.5451300000000 1.0
C      1  0.3862760000000  0.5378390000000  0.4548530000000 1.0
C      1  0.5441550000000  0.5209170000000  0.5261120000000 1.0
C      1  0.4557290000000  0.4793280000000  0.4738720000000 1.0
C      1  0.5434380000000  0.6103020000000  0.4752640000000 1.0
C      1  0.4564470000000  0.3899440000000  0.5247190000000 1.0
C      1  0.4228780000000  0.4284430000000  0.5464760000000 1.0
C      1  0.5770070000000  0.5718030000000  0.4535070000000 1.0
C      1  0.5893310000000  0.4860770000000  0.4272260000000 1.0
C      1  0.4105540000000  0.5141680000000  0.5727570000000 1.0
C      1  0.5667900000000  0.5436230000000  0.4489920000000 1.0
C      1  0.4330950000000  0.4566220000000  0.5509910000000 1.0
C      1  0.3881010000000  0.5345090000000  0.4853870000000 1.0
C      1  0.6117840000000  0.4657370000000  0.5145970000000 1.0
C      1  0.4487540000000  0.4385680000000  0.4667050000000 1.0
C      1  0.5511310000000  0.5616780000000  0.5332780000000 1.0
C      1  0.4837080000000  0.4002350000000  0.4818870000000 1.0
C      1  0.5161770000000  0.6000110000000  0.5180960000000 1.0
C      1  0.6009990000000  0.5486040000000  0.5003900000000 1.0
C      1  0.3988860000000  0.4516410000000  0.4995930000000 1.0
C      1  0.4267430000000  0.5678380000000  0.4520630000000 1.0
C      1  0.5731420000000  0.4324080000000  0.5479200000000 1.0
C      1  0.4130370000000  0.5117580000000  0.5103770000000 1.0
C      1  0.5868480000000  0.4884880000000  0.4896060000000 1.0
C      1  0.5373680000000  0.5531700000000  0.3990340000000 1.0
C      1  0.4625170000000  0.4470750000000  0.6009490000000 1.0
C      1  0.4905100000000  0.5727070000000  0.4798910000000 1.0
C      1  0.5093750000000  0.4275390000000  0.5200930000000 1.0
C      1  0.4999420000000  0.5001230000000  0.4999920000000 1.0
END
