TITL C-862131-2149-541 8.15033871077102e-06 125000 -58.546551385994 0 0 13 (C1) n - 1
REM
REM in /home/nfs/bkarasulu/CARBON/AIRSS/Generating-Clusters/TERSOFF/Higher-Symm/FIRE-HFTN
REM
REM
REM
REM
REM
REM ./C.cell (b20cbc046b6831c77cfcea5457e17084)
REM AIRSS Version 0.9.1 bugfix July 2018 build 013d7b7c2542+ Fri, 06 Jul 2018 19:26:36 +0100
REM compiler GCC version 9.2.1 20190827 (Red Hat 9.2.1-1)
REM options -cpp -mtune=generic -march=x86-64 -g -O0 -fpre-include=/usr/include/finclude/math-vector-fortran.h
REM seed 317749785 922628211 1822315890 1399691844 -1721509646 -32392016 -21868331 1260919921 714119747 742681449 830684725 101975336 -1482377108 1326534193 -233233081 1813457083 -987340383 -1504519340 618682260 -1119383663 1747447832 1979142508 1394709779 -3815136 -16727645 1166323645 -1656635842 1947351326 -2007704913 2078447610 352715224 -525537694 332429684
REM
CELL 1.54180   50.00000   50.00000   50.00000   90.00000   90.00000   90.00000
LATT -1
SFAC C  
C      1  0.4642820000000  0.4922430000000  0.4756750000000 1.0
C      1  0.4513260000000  0.5192030000000  0.4790330000000 1.0
C      1  0.4653730000000  0.5285300000000  0.5039660000000 1.0
C      1  0.4649670000000  0.5041540000000  0.5238640000000 1.0
C      1  0.4642070000000  0.4789000000000  0.5041750000000 1.0
C      1  0.4955470000000  0.5287220000000  0.4992730000000 1.0
C      1  0.4944620000000  0.5029260000000  0.5323550000000 1.0
C      1  0.4934680000000  0.4698670000000  0.5065810000000 1.0
C      1  0.4945520000000  0.4956170000000  0.4734640000000 1.0
C      1  0.4431600000000  0.5364290000000  0.4572530000000 1.0
C      1  0.5418710000000  0.4981060000000  0.5026010000000 1.0
C      1  0.5128230000000  0.4989660000000  0.5026170000000 1.0
C      1  0.5580870000000  0.4873830000000  0.5240440000000 1.0
END
