TITL C-862502-1143-673 0.000748102514539737 125000 -351.891212681139 0 0 65 (Ci) n - 1
REM
REM in /home/nfs/bkarasulu/CARBON/AIRSS/Generating-Clusters/TERSOFF/Higher-Symm/FIRE-HFTN
REM
REM
REM
REM
REM
REM ./C.cell (b20cbc046b6831c77cfcea5457e17084)
REM AIRSS Version 0.9.1 bugfix July 2018 build 013d7b7c2542+ Fri, 06 Jul 2018 19:26:36 +0100
REM compiler GCC version 9.2.1 20190827 (Red Hat 9.2.1-1)
REM options -cpp -mtune=generic -march=x86-64 -g -O0 -fpre-include=/usr/include/finclude/math-vector-fortran.h
REM seed -281670908 -1275638567 1104964281 535758534 430959411 -635727143 -1515085396 -1893119117 -178416373 -945672019 -1945528332 256925311 -959819340 1604426210 -1057150660 242704904 -1309960519 -1120904089 -1628753204 2011927499 -1738497694 1145602255 1437087646 105347462 233276381 246307238 459141813 41877318 -146069120 758701602 -1151946254 703197712 -44114313
REM
CELL 1.54180   50.00000   50.00000   50.00000   90.00000   90.00000   90.00000
LATT -1
SFAC C  
C      1  0.5249050000000  0.5028340000000  0.4811790000000 1.0
C      1  0.4743920000000  0.4966580000000  0.5203620000000 1.0
C      1  0.5523170000000  0.4903410000000  0.4853040000000 1.0
C      1  0.4469810000000  0.5091510000000  0.5162370000000 1.0
C      1  0.4410710000000  0.5579480000000  0.5069450000000 1.0
C      1  0.5582270000000  0.4415440000000  0.4945960000000 1.0
C      1  0.5214020000000  0.5657840000000  0.4602630000000 1.0
C      1  0.4778960000000  0.4337080000000  0.5412780000000 1.0
C      1  0.4263710000000  0.4660950000000  0.4591230000000 1.0
C      1  0.5729260000000  0.5333970000000  0.5424170000000 1.0
C      1  0.4764800000000  0.4570190000000  0.4687570000000 1.0
C      1  0.5228170000000  0.5424730000000  0.5327840000000 1.0
C      1  0.5690950000000  0.4461710000000  0.5209940000000 1.0
C      1  0.4302020000000  0.5533210000000  0.4805470000000 1.0
C      1  0.5066060000000  0.4885190000000  0.4373660000000 1.0
C      1  0.4926910000000  0.5109730000000  0.5641750000000 1.0
C      1  0.5188580000000  0.4194850000000  0.4966740000000 1.0
C      1  0.4804390000000  0.5800070000000  0.5048670000000 1.0
C      1  0.4797550000000  0.4909650000000  0.5472950000000 1.0
C      1  0.5195420000000  0.5085270000000  0.4542460000000 1.0
C      1  0.5009320000000  0.4620650000000  0.4489510000000 1.0
C      1  0.4983650000000  0.5374270000000  0.5525900000000 1.0
C      1  0.5403160000000  0.4628970000000  0.4857120000000 1.0
C      1  0.4589820000000  0.5365950000000  0.5158280000000 1.0
C      1  0.4312250000000  0.4463370000000  0.5051370000000 1.0
C      1  0.5680720000000  0.5531550000000  0.4964040000000 1.0
C      1  0.5589680000000  0.4734610000000  0.5330900000000 1.0
C      1  0.4403290000000  0.5260320000000  0.4684510000000 1.0
C      1  0.4599330000000  0.4828610000000  0.4239810000000 1.0
C      1  0.5393640000000  0.5166310000000  0.5775600000000 1.0
C      1  0.4373510000000  0.4966620000000  0.5421110000000 1.0
C      1  0.5619460000000  0.5028300000000  0.4594290000000 1.0
C      1  0.5211660000000  0.5385060000000  0.4456300000000 1.0
C      1  0.4781310000000  0.4609870000000  0.5559110000000 1.0
C      1  0.4192960000000  0.4811720000000  0.4827160000000 1.0
C      1  0.5800010000000  0.5183200000000  0.5188240000000 1.0
C      1  0.5213390000000  0.5117780000000  0.5247120000000 1.0
C      1  0.4779580000000  0.4877140000000  0.4768290000000 1.0
C      1  0.4284950000000  0.4495730000000  0.5338600000000 1.0
C      1  0.5708030000000  0.5499200000000  0.4676810000000 1.0
C      1  0.5288850000000  0.4533120000000  0.5312000000000 1.0
C      1  0.4704120000000  0.5461810000000  0.4703410000000 1.0
C      1  0.5669020000000  0.4936470000000  0.5111490000000 1.0
C      1  0.4323960000000  0.5058450000000  0.4903920000000 1.0
C      1  0.5318900000000  0.4245310000000  0.5227080000000 1.0
C      1  0.4674080000000  0.5749620000000  0.4788330000000 1.0
C      1  0.5551930000000  0.5306080000000  0.4521880000000 1.0
C      1  0.4441040000000  0.4688840000000  0.5493530000000 1.0
C      1  0.4841900000000  0.5005280000000  0.4218220000000 1.0
C      1  0.5151080000000  0.4989640000000  0.5797180000000 1.0
C      1  0.4861060000000  0.5305770000000  0.4416850000000 1.0
C      1  0.5131910000000  0.4689150000000  0.5598550000000 1.0
C      1  0.5215190000000  0.5694920000000  0.4895090000000 1.0
C      1  0.4777790000000  0.4300000000000  0.5120320000000 1.0
C      1  0.4849430000000  0.5328990000000  0.4984820000000 1.0
C      1  0.5143540000000  0.4665930000000  0.5030590000000 1.0
C      1  0.5340880000000  0.4929820000000  0.5429030000000 1.0
C      1  0.4652090000000  0.5065100000000  0.4586380000000 1.0
C      1  0.5009840000000  0.5572320000000  0.5089730000000 1.0
C      1  0.4983130000000  0.4422610000000  0.4925680000000 1.0
C      1  0.5460670000000  0.5338300000000  0.5536560000000 1.0
C      1  0.4532310000000  0.4656620000000  0.4478850000000 1.0
C      1  0.5428590000000  0.5602390000000  0.5086500000000 1.0
C      1  0.4564380000000  0.4392530000000  0.4928910000000 1.0
C      1  0.4996490000000  0.4997460000000  0.5007700000000 1.0
END
