TITL C-862506-1665-1357 0.000466779668067148 125000 -672.430656814345 0 0 120 (C5) n - 1
REM
REM in /home/nfs/bkarasulu/CARBON/AIRSS/Generating-Clusters/TERSOFF/Higher-Symm/FIRE-HFTN
REM
REM
REM
REM
REM
REM ./C.cell (b20cbc046b6831c77cfcea5457e17084)
REM AIRSS Version 0.9.1 bugfix July 2018 build 013d7b7c2542+ Fri, 06 Jul 2018 19:26:36 +0100
REM compiler GCC version 9.2.1 20190827 (Red Hat 9.2.1-1)
REM options -cpp -mtune=generic -march=x86-64 -g -O0 -fpre-include=/usr/include/finclude/math-vector-fortran.h
REM seed 1169670245 -347087105 -860364829 762870582 519447051 -271105246 -5785947 -1980686040 1810536696 -31072606 -44301022 -1584075314 443354334 209577099 567238402 473952868 -1255643709 -359846210 126270207 1056964907 -771381549 1840636733 -429883859 908690490 292112685 2137645550 -1544355211 -425891480 2113483956 -1984499164 -686859623 188083314 1488547784
REM
CELL 1.54180   50.00000   50.00000   50.00000   90.00000   90.00000   90.00000
LATT -1
SFAC C  
C      1  0.4681950000000  0.5554610000000  0.5276910000000 1.0
C      1  0.5165080000000  0.5554610000000  0.5388050000000 1.0
C      1  0.5420070000000  0.5554610000000  0.4962920000000 1.0
C      1  0.5094540000000  0.5554600000000  0.4589030000000 1.0
C      1  0.4638360000000  0.5554610000000  0.4783080000000 1.0
C      1  0.5266690000000  0.5304510000000  0.4982520000000 1.0
C      1  0.5065780000000  0.5304510000000  0.4740960000000 1.0
C      1  0.4773970000000  0.5304510000000  0.4857390000000 1.0
C      1  0.4794520000000  0.5304510000000  0.5170900000000 1.0
C      1  0.5099040000000  0.5304510000000  0.5248230000000 1.0
C      1  0.4170870000000  0.5402040000000  0.4879180000000 1.0
C      1  0.4628880000000  0.5402050000000  0.5751210000000 1.0
C      1  0.5599770000000  0.5402050000000  0.5585090000000 1.0
C      1  0.5741800000000  0.5402040000000  0.4610390000000 1.0
C      1  0.4858690000000  0.5402040000000  0.4174110000000 1.0
C      1  0.4842340000000  0.4499970000000  0.4796360000000 1.0
C      1  0.4757600000000  0.4499970000000  0.5087020000000 1.0
C      1  0.5007850000000  0.4499970000000  0.5257420000000 1.0
C      1  0.5247250000000  0.4499970000000  0.5072080000000 1.0
C      1  0.5144960000000  0.4499970000000  0.4787130000000 1.0
C      1  0.5564780000000  0.4628410000000  0.5511940000000 1.0
C      1  0.5661410000000  0.4628410000000  0.4621060000000 1.0
C      1  0.4843990000000  0.4628400000000  0.4253870000000 1.0
C      1  0.4242170000000  0.4628410000000  0.4917810000000 1.0
C      1  0.4687650000000  0.4628410000000  0.5695340000000 1.0
C      1  0.5313880000000  0.4603410000000  0.4539370000000 1.0
C      1  0.4658910000000  0.4603410000000  0.4559140000000 1.0
C      1  0.4475310000000  0.4603420000000  0.5188160000000 1.0
C      1  0.5016810000000  0.4603420000000  0.5557160000000 1.0
C      1  0.5535080000000  0.4603420000000  0.5156180000000 1.0
C      1  0.5588730000000  0.4876810000000  0.5653990000000 1.0
C      1  0.5803910000000  0.4876810000000  0.4642170000000 1.0
C      1  0.4908110000000  0.4876800000000  0.4124870000000 1.0
C      1  0.4139300000000  0.4876810000000  0.4816960000000 1.0
C      1  0.4559950000000  0.4876820000000  0.5762010000000 1.0
C      1  0.5059160000000  0.4455170000000  0.4364810000000 1.0
C      1  0.4414180000000  0.4455170000000  0.4747450000000 1.0
C      1  0.4578780000000  0.4455180000000  0.5479110000000 1.0
C      1  0.5325490000000  0.4455180000000  0.5548660000000 1.0
C      1  0.5622390000000  0.4455170000000  0.4859980000000 1.0
C      1  0.5667950000000  0.5110820000000  0.4512600000000 1.0
C      1  0.4742860000000  0.5110820000000  0.4214130000000 1.0
C      1  0.4173130000000  0.5110830000000  0.5001700000000 1.0
C      1  0.4746110000000  0.5110830000000  0.5786920000000 1.0
C      1  0.5669950000000  0.5110830000000  0.5484640000000 1.0
C      1  0.5134720000000  0.5424530000000  0.5886050000000 1.0
C      1  0.5884320000000  0.5424520000000  0.5145680000000 1.0
C      1  0.5411820000000  0.5424510000000  0.4203980000000 1.0
C      1  0.4370200000000  0.5424520000000  0.4362350000000 1.0
C      1  0.4198940000000  0.5424530000000  0.5401930000000 1.0
C      1  0.5491160000000  0.4948410000000  0.5250230000000 1.0
C      1  0.5389760000000  0.4948410000000  0.4610200000000 1.0
C      1  0.4749720000000  0.4948410000000  0.4508860000000 1.0
C      1  0.4455560000000  0.4948420000000  0.5086260000000 1.0
C      1  0.4913790000000  0.4948420000000  0.5544450000000 1.0
C      1  0.5120430000000  0.5501710000000  0.4297790000000 1.0
C      1  0.4369380000000  0.5501720000000  0.4668470000000 1.0
C      1  0.4489830000000  0.5501720000000  0.5497310000000 1.0
C      1  0.5315320000000  0.5501720000000  0.5638880000000 1.0
C      1  0.5705050000000  0.5501720000000  0.4897540000000 1.0
C      1  0.4754800000000  0.4914420000000  0.5021700000000 1.0
C      1  0.4944860000000  0.4914430000000  0.5239900000000 1.0
C      1  0.5211120000000  0.4914420000000  0.5126570000000 1.0
C      1  0.5185620000000  0.4914420000000  0.4838330000000 1.0
C      1  0.4903600000000  0.4914420000000  0.4773510000000 1.0
C      1  0.4466200000000  0.4230260000000  0.4950240000000 1.0
C      1  0.4787710000000  0.4230270000000  0.5492300000000 1.0
C      1  0.5402600000000  0.4230260000000  0.5354030000000 1.0
C      1  0.5461110000000  0.4230260000000  0.4726510000000 1.0
C      1  0.4882380000000  0.4230260000000  0.4476950000000 1.0
C      1  0.4764080000000  0.5822840000000  0.4860950000000 1.0
C      1  0.4794860000000  0.5822850000000  0.5181400000000 1.0
C      1  0.5109130000000  0.5822850000000  0.5251150000000 1.0
C      1  0.5272590000000  0.5822840000000  0.4973820000000 1.0
C      1  0.5059340000000  0.5822840000000  0.4732660000000 1.0
C      1  0.5066660000000  0.4578150000000  0.6001500000000 1.0
C      1  0.5973080000000  0.4578140000000  0.5246080000000 1.0
C      1  0.5534730000000  0.4578140000000  0.4150590000000 1.0
C      1  0.4357400000000  0.4578140000000  0.4228960000000 1.0
C      1  0.4068120000000  0.4578150000000  0.5372880000000 1.0
C      1  0.5463070000000  0.4344290000000  0.4385010000000 1.0
C      1  0.4558200000000  0.4344290000000  0.4369560000000 1.0
C      1  0.4263880000000  0.4344300000000  0.5225360000000 1.0
C      1  0.4986850000000  0.4344300000000  0.5769730000000 1.0
C      1  0.5727990000000  0.4344290000000  0.5250360000000 1.0
C      1  0.5329970000000  0.4971810000000  0.5731200000000 1.0
C      1  0.5797370000000  0.4971800000000  0.4912130000000 1.0
C      1  0.5162840000000  0.4971800000000  0.4214500000000 1.0
C      1  0.4303260000000  0.4971800000000  0.4602400000000 1.0
C      1  0.4406560000000  0.4971810000000  0.5539770000000 1.0
C      1  0.5227400000000  0.4095630000000  0.4863960000000 1.0
C      1  0.4940880000000  0.4095630000000  0.4741700000000 1.0
C      1  0.4736060000000  0.4095630000000  0.4976410000000 1.0
C      1  0.4895990000000  0.4095640000000  0.5243730000000 1.0
C      1  0.5199650000000  0.4095630000000  0.5174240000000 1.0
C      1  0.4655790000000  0.6054440000000  0.5304530000000 1.0
C      1  0.5183270000000  0.6054440000000  0.5421470000000 1.0
C      1  0.5457480000000  0.6054430000000  0.4955940000000 1.0
C      1  0.5099470000000  0.6054430000000  0.4551290000000 1.0
C      1  0.4604000000000  0.6054430000000  0.4766730000000 1.0
C      1  0.4095380000000  0.5125230000000  0.5301120000000 1.0
C      1  0.5006840000000  0.5125240000000  0.5953400000000 1.0
C      1  0.5908850000000  0.5125230000000  0.5288110000000 1.0
C      1  0.5554860000000  0.5125220000000  0.4224660000000 1.0
C      1  0.4434070000000  0.5125220000000  0.4232710000000 1.0
C      1  0.5552200000000  0.5125460000000  0.5004170000000 1.0
C      1  0.5174610000000  0.5125450000000  0.4476110000000 1.0
C      1  0.4555710000000  0.5125460000000  0.4672050000000 1.0
C      1  0.4550810000000  0.5125460000000  0.5321200000000 1.0
C      1  0.5166670000000  0.5125460000000  0.5526460000000 1.0
C      1  0.4603140000000  0.5558280000000  0.4212820000000 1.0
C      1  0.4128720000000  0.5558290000000  0.5134190000000 1.0
C      1  0.4858380000000  0.5558290000000  0.5870100000000 1.0
C      1  0.5783760000000  0.5558290000000  0.5403560000000 1.0
C      1  0.5626010000000  0.5558280000000  0.4379310000000 1.0
C      1  0.5975740000000  0.4868770000000  0.5129310000000 1.0
C      1  0.5424500000000  0.4868760000000  0.4111980000000 1.0
C      1  0.4286620000000  0.4868770000000  0.4321870000000 1.0
C      1  0.4134610000000  0.4868770000000  0.5468910000000 1.0
C      1  0.5178540000000  0.4868780000000  0.5967940000000 1.0
END
