TITL C-862131-2149-1280 0.102935443547641 125000 -168.109543021426 0 0 30 (C1) n - 1
REM
REM in /home/nfs/bkarasulu/CARBON/AIRSS/Generating-Clusters/TERSOFF/Higher-Symm/FIRE-HFTN
REM
REM
REM
REM
REM
REM ./C.cell (b20cbc046b6831c77cfcea5457e17084)
REM AIRSS Version 0.9.1 bugfix July 2018 build 013d7b7c2542+ Fri, 06 Jul 2018 19:26:36 +0100
REM compiler GCC version 9.2.1 20190827 (Red Hat 9.2.1-1)
REM options -cpp -mtune=generic -march=x86-64 -g -O0 -fpre-include=/usr/include/finclude/math-vector-fortran.h
REM seed 1612595581 1697883724 2109429924 1020566907 1778849175 -1407420714 -165273677 -832247750 1435235654 -1953287276 -1288198914 1356770909 960110711 401724852 -5219952 2102289577 -886558035 -1975329077 1178315267 -1276104582 -1319293324 1617809235 2073823768 -1563611903 -434166744 13574323 1715130504 1937552715 -99617755 -1566498966 -445788180 -1592312125 -830454764
REM
CELL 1.54180   50.00000   50.00000   50.00000   90.00000   90.00000   90.00000
LATT -1
SFAC C  
C      1  0.5176390000000  0.4991200000000  0.5389650000000 1.0
C      1  0.5177390000000  0.4990940000000  0.4567920000000 1.0
C      1  0.4895440000000  0.5258590000000  0.5724670000000 1.0
C      1  0.4894440000000  0.5260030000000  0.4235580000000 1.0
C      1  0.4880380000000  0.4574090000000  0.5319220000000 1.0
C      1  0.4888730000000  0.4567820000000  0.4620360000000 1.0
C      1  0.4478240000000  0.5060260000000  0.5269890000000 1.0
C      1  0.4483270000000  0.5036710000000  0.4692570000000 1.0
C      1  0.4915250000000  0.5539430000000  0.5791850000000 1.0
C      1  0.4915550000000  0.5541630000000  0.4172050000000 1.0
C      1  0.4733770000000  0.5179590000000  0.4715420000000 1.0
C      1  0.4735980000000  0.5188050000000  0.5243160000000 1.0
C      1  0.4660500000000  0.4557120000000  0.4807780000000 1.0
C      1  0.4653960000000  0.4589410000000  0.5131130000000 1.0
C      1  0.5359140000000  0.5384310000000  0.5125510000000 1.0
C      1  0.5359230000000  0.5384470000000  0.4832400000000 1.0
C      1  0.5344180000000  0.4592850000000  0.5122780000000 1.0
C      1  0.5345260000000  0.4591600000000  0.4833510000000 1.0
C      1  0.4934070000000  0.5146480000000  0.4499580000000 1.0
C      1  0.4934840000000  0.5148730000000  0.5459050000000 1.0
C      1  0.5136820000000  0.4713760000000  0.5287220000000 1.0
C      1  0.5139790000000  0.4712320000000  0.4666360000000 1.0
C      1  0.4422200000000  0.4805590000000  0.5147680000000 1.0
C      1  0.4436350000000  0.4787690000000  0.4831650000000 1.0
C      1  0.5414530000000  0.5135770000000  0.5278820000000 1.0
C      1  0.5414940000000  0.5136060000000  0.4679060000000 1.0
C      1  0.5609270000000  0.4971960000000  0.5125510000000 1.0
C      1  0.5609680000000  0.4972340000000  0.4832540000000 1.0
C      1  0.4868820000000  0.5181000000000  0.4978780000000 1.0
C      1  0.5130400000000  0.5064120000000  0.4978710000000 1.0
END
