TITL C-862500-986-229 -2.66592530299615e-07 125000 -507.230248528643 0 0 92 (C3i) n - 1
REM
REM in /home/nfs/bkarasulu/CARBON/AIRSS/Generating-Clusters/TERSOFF/Higher-Symm/FIRE-HFTN
REM
REM
REM
REM
REM
REM ./C.cell (b20cbc046b6831c77cfcea5457e17084)
REM AIRSS Version 0.9.1 bugfix July 2018 build 013d7b7c2542+ Fri, 06 Jul 2018 19:26:36 +0100
REM compiler GCC version 9.2.1 20190827 (Red Hat 9.2.1-1)
REM options -cpp -mtune=generic -march=x86-64 -g -O0 -fpre-include=/usr/include/finclude/math-vector-fortran.h
REM seed 154555643 1378787430 1356625708 -786966875 1762862425 -2079064813 -527989533 -2058866693 -1813800777 1709051381 2003873780 162461451 1904761042 -756948667 -965715678 -920672238 464424522 2068352553 888434824 14243443 1691563175 -1812486586 -1942976469 -1027986417 1121836672 1715524987 15035619 -463907957 -925913949 -1803831522 992090395 -1421040278 966897801
REM
CELL 1.54180   50.00000   50.00000   50.00000   90.00000   90.00000   90.00000
LATT -1
SFAC C  
C      1  0.5250360000000  0.4522380000000  0.5542090000000 1.0
C      1  0.4713950000000  0.4546810000000  0.4457910000000 1.0
C      1  0.4466900000000  0.5023570000000  0.5542090000000 1.0
C      1  0.4756270000000  0.5475900000000  0.4457910000000 1.0
C      1  0.5292680000000  0.5451470000000  0.5542090000000 1.0
C      1  0.5539720000000  0.4974700000000  0.4457910000000 1.0
C      1  0.4875940000000  0.5275030000000  0.4651930000000 1.0
C      1  0.5178560000000  0.5247390000000  0.5348070000000 1.0
C      1  0.5305930000000  0.4971500000000  0.4651930000000 1.0
C      1  0.5130690000000  0.4723240000000  0.5348070000000 1.0
C      1  0.4828070000000  0.4750880000000  0.4651930000000 1.0
C      1  0.4700700000000  0.5026770000000  0.5348070000000 1.0
C      1  0.4379640000000  0.4851940000000  0.4862620000000 1.0
C      1  0.4564010000000  0.5465660000000  0.5137380000000 1.0
C      1  0.5187680000000  0.5612850000000  0.4862620000000 1.0
C      1  0.5626990000000  0.5146330000000  0.5137380000000 1.0
C      1  0.5442620000000  0.4532620000000  0.4862620000000 1.0
C      1  0.4818950000000  0.4385420000000  0.5137380000000 1.0
C      1  0.4878510000000  0.5284780000000  0.5404690000000 1.0
C      1  0.5188280000000  0.5250040000000  0.4595310000000 1.0
C      1  0.5313090000000  0.4964400000000  0.5404690000000 1.0
C      1  0.5128120000000  0.4713500000000  0.4595310000000 1.0
C      1  0.4818350000000  0.4748230000000  0.5404690000000 1.0
C      1  0.4693540000000  0.5033870000000  0.4595310000000 1.0
C      1  0.5189140000000  0.5453910000000  0.5810570000000 1.0
C      1  0.5490080000000  0.5065590000000  0.4189430000000 1.0
C      1  0.5304250000000  0.4610820000000  0.5810570000000 1.0
C      1  0.4817490000000  0.4544360000000  0.4189430000000 1.0
C      1  0.4516550000000  0.4932680000000  0.5810570000000 1.0
C      1  0.4702380000000  0.5387460000000  0.4189430000000 1.0
C      1  0.4172370000000  0.5040180000000  0.5243230000000 1.0
C      1  0.4623390000000  0.5739280000000  0.4756770000000 1.0
C      1  0.5454330000000  0.5698240000000  0.5243230000000 1.0
C      1  0.5834260000000  0.4958090000000  0.4756770000000 1.0
C      1  0.5383240000000  0.4258990000000  0.5243230000000 1.0
C      1  0.4552290000000  0.4300040000000  0.4756770000000 1.0
C      1  0.5521160000000  0.4569300000000  0.4564870000000 1.0
C      1  0.4889990000000  0.4335750000000  0.5435130000000 1.0
C      1  0.4372140000000  0.4765590000000  0.4564870000000 1.0
C      1  0.4485470000000  0.5428970000000  0.5435130000000 1.0
C      1  0.5116640000000  0.5662520000000  0.4564870000000 1.0
C      1  0.5634480000000  0.5232680000000  0.5435130000000 1.0
C      1  0.5611420000000  0.4449190000000  0.5294530000000 1.0
C      1  0.4831100000000  0.4197520000000  0.4705470000000 1.0
C      1  0.4222990000000  0.4747470000000  0.5294530000000 1.0
C      1  0.4395200000000  0.5549080000000  0.4705470000000 1.0
C      1  0.5175530000000  0.5800750000000  0.5294530000000 1.0
C      1  0.5783640000000  0.5250800000000  0.4705470000000 1.0
C      1  0.5114530000000  0.5307900000000  0.5023350000000 1.0
C      1  0.5326320000000  0.5057200000000  0.4976650000000 1.0
C      1  0.5215100000000  0.4748440000000  0.5023350000000 1.0
C      1  0.4892100000000  0.4690370000000  0.4976650000000 1.0
C      1  0.4680310000000  0.4941070000000  0.5023350000000 1.0
C      1  0.4791520000000  0.5249830000000  0.4976650000000 1.0
C      1  0.4308640000000  0.5439420000000  0.4979030000000 1.0
C      1  0.5037280000000  0.5820880000000  0.5020970000000 1.0
C      1  0.5731950000000  0.5380600000000  0.4979030000000 1.0
C      1  0.5697980000000  0.4558850000000  0.5020970000000 1.0
C      1  0.4969350000000  0.4177390000000  0.4979030000000 1.0
C      1  0.4274680000000  0.4617680000000  0.5020970000000 1.0
C      1  0.4723140000000  0.5102870000000  0.4132010000000 1.0
C      1  0.4953060000000  0.5293640000000  0.5867990000000 1.0
C      1  0.5233240000000  0.5189910000000  0.4132010000000 1.0
C      1  0.5283490000000  0.4895400000000  0.5867990000000 1.0
C      1  0.5053560000000  0.4704630000000  0.4132010000000 1.0
C      1  0.4773390000000  0.4808370000000  0.5867990000000 1.0
C      1  0.4724780000000  0.5749810000000  0.5061280000000 1.0
C      1  0.5514150000000  0.5615690000000  0.4938720000000 1.0
C      1  0.5792690000000  0.4865010000000  0.5061280000000 1.0
C      1  0.5281850000000  0.4248460000000  0.4938720000000 1.0
C      1  0.4492470000000  0.4382580000000  0.5061280000000 1.0
C      1  0.4213940000000  0.5133260000000  0.4938720000000 1.0
C      1  0.4528280000000  0.4948380000000  0.4329290000000 1.0
C      1  0.4721840000000  0.5385150000000  0.5670710000000 1.0
C      1  0.5196880000000  0.5435910000000  0.4329290000000 1.0
C      1  0.5478350000000  0.5049890000000  0.5670710000000 1.0
C      1  0.5284790000000  0.4613120000000  0.4329290000000 1.0
C      1  0.4809750000000  0.4562370000000  0.5670710000000 1.0
C      1  0.4527980000000  0.4595440000000  0.5353930000000 1.0
C      1  0.4416040000000  0.5208940000000  0.4646070000000 1.0
C      1  0.4891370000000  0.5612630000000  0.5353930000000 1.0
C      1  0.5478650000000  0.5402830000000  0.4646070000000 1.0
C      1  0.5590590000000  0.4789330000000  0.5353930000000 1.0
C      1  0.5115260000000  0.4385640000000  0.4646070000000 1.0
C      1  0.5575270000000  0.5535860000000  0.5471920000000 1.0
C      1  0.5754110000000  0.4772170000000  0.4528080000000 1.0
C      1  0.5182150000000  0.4235450000000  0.5471920000000 1.0
C      1  0.4431360000000  0.4462420000000  0.4528080000000 1.0
C      1  0.4252520000000  0.5226110000000  0.5471920000000 1.0
C      1  0.4824480000000  0.5762830000000  0.4528080000000 1.0
C      1  0.5003310000000  0.4999140000000  0.5908370000000 1.0
C      1  0.5003310000000  0.4999140000000  0.4091630000000 1.0
END
