TITL C-862507-1800-444 1.60570491764203e-05 125000 -65.3245189725533 0 0 13 (C3v) n - 1
REM
REM in /home/nfs/bkarasulu/CARBON/AIRSS/Generating-Clusters/TERSOFF/Higher-Symm/FIRE-HFTN
REM
REM
REM
REM
REM
REM ./C.cell (b20cbc046b6831c77cfcea5457e17084)
REM AIRSS Version 0.9.1 bugfix July 2018 build 013d7b7c2542+ Fri, 06 Jul 2018 19:26:36 +0100
REM compiler GCC version 9.2.1 20190827 (Red Hat 9.2.1-1)
REM options -cpp -mtune=generic -march=x86-64 -g -O0 -fpre-include=/usr/include/finclude/math-vector-fortran.h
REM seed 1568063571 1126230904 -631681164 97937017 755653151 -1258315088 -46476958 1421836799 1306133806 1998844997 -636747184 1296281301 -136143621 -302467115 -386947308 1651184295 -414009296 -2003497156 -447427601 -1154855347 779374779 -1370756382 -1211944294 -1696642595 -318736099 378688754 459011593 973470813 948336299 -53530551 469640141 -796153890 1772146252
REM
CELL 1.54180   50.00000   50.00000   50.00000   90.00000   90.00000   90.00000
LATT -1
SFAC C  
C      1  0.4583540000000  0.4654020000000  0.5179200000000 1.0
C      1  0.5115200000000  0.4654020000000  0.4543940000000 1.0
C      1  0.5399520000000  0.4654020000000  0.5322010000000 1.0
C      1  0.5098480000000  0.5151500000000  0.4639510000000 1.0
C      1  0.5325120000000  0.5151500000000  0.5259740000000 1.0
C      1  0.4674660000000  0.5151500000000  0.5145900000000 1.0
C      1  0.4760460000000  0.4874900000000  0.5114550000000 1.0
C      1  0.5082730000000  0.4874900000000  0.4729490000000 1.0
C      1  0.5255070000000  0.4874900000000  0.5201110000000 1.0
C      1  0.4842700000000  0.5379800000000  0.5084500000000 1.0
C      1  0.5067640000000  0.5379800000000  0.4815730000000 1.0
C      1  0.5187930000000  0.5379800000000  0.5144920000000 1.0
C      1  0.5032750000000  0.4827800000000  0.5015050000000 1.0
END
