TITL C-862134-6730-554 0.098878905801813 125000 -279.993971873601 0 0 54 (Ci) n - 1
REM
REM in /home/nfs/bkarasulu/CARBON/AIRSS/Generating-Clusters/TERSOFF/Higher-Symm/FIRE-HFTN
REM
REM
REM
REM
REM
REM ./C.cell (b20cbc046b6831c77cfcea5457e17084)
REM AIRSS Version 0.9.1 bugfix July 2018 build 013d7b7c2542+ Fri, 06 Jul 2018 19:26:36 +0100
REM compiler GCC version 9.2.1 20190827 (Red Hat 9.2.1-1)
REM options -cpp -mtune=generic -march=x86-64 -g -O0 -fpre-include=/usr/include/finclude/math-vector-fortran.h
REM seed -1223965823 -1155396626 -516769322 -1231426664 1303139552 -59441376 1290440959 1603038076 1129439560 678700039 -979915477 298807176 1619696268 621155743 2037244721 -902335755 705462016 -2012153466 1950634995 1504922493 1138471968 1324266808 13449031 -1670161546 -197191889 39592760 -232622861 -356605165 -404804586 664774098 2057605235 -438486378 -296586018
REM
CELL 1.54180   50.00000   50.00000   50.00000   90.00000   90.00000   90.00000
LATT -1
SFAC C  
C      1  0.4852620000000  0.4857980000000  0.5642870000000 1.0
C      1  0.5147380000000  0.5142020000000  0.4357130000000 1.0
C      1  0.4774530000000  0.5257370000000  0.5264270000000 1.0
C      1  0.5225470000000  0.4742630000000  0.4735730000000 1.0
C      1  0.5297270000000  0.4989560000000  0.4161850000000 1.0
C      1  0.4702730000000  0.5010440000000  0.5838150000000 1.0
C      1  0.4948350000000  0.5700820000000  0.4854530000000 1.0
C      1  0.5051650000000  0.4299180000000  0.5145470000000 1.0
C      1  0.5516830000000  0.5502410000000  0.4947930000000 1.0
C      1  0.4483170000000  0.4497590000000  0.5052070000000 1.0
C      1  0.5213630000000  0.4583800000000  0.5488450000000 1.0
C      1  0.4786370000000  0.5416200000000  0.4511550000000 1.0
C      1  0.4531040000000  0.5473360000000  0.4663460000000 1.0
C      1  0.5468960000000  0.4526640000000  0.5336540000000 1.0
C      1  0.4960140000000  0.4846850000000  0.4589810000000 1.0
C      1  0.5039860000000  0.5153150000000  0.5410190000000 1.0
C      1  0.4619270000000  0.5009880000000  0.5080060000000 1.0
C      1  0.5380730000000  0.4990120000000  0.4919940000000 1.0
C      1  0.5041720000000  0.5290270000000  0.4892910000000 1.0
C      1  0.4958280000000  0.4709730000000  0.5107090000000 1.0
C      1  0.4339270000000  0.5413820000000  0.5137290000000 1.0
C      1  0.5660730000000  0.4586180000000  0.4862710000000 1.0
C      1  0.5441470000000  0.5256650000000  0.4769380000000 1.0
C      1  0.4558530000000  0.4743350000000  0.5230620000000 1.0
C      1  0.4730680000000  0.4663140000000  0.5456890000000 1.0
C      1  0.5269320000000  0.5336860000000  0.4543110000000 1.0
C      1  0.5113840000000  0.5399480000000  0.5576700000000 1.0
C      1  0.4886160000000  0.4600520000000  0.4423300000000 1.0
C      1  0.5497580000000  0.4642350000000  0.4612400000000 1.0
C      1  0.4502420000000  0.5357650000000  0.5387600000000 1.0
C      1  0.4549960000000  0.4743660000000  0.4630310000000 1.0
C      1  0.5450040000000  0.5256340000000  0.5369690000000 1.0
C      1  0.4819250000000  0.5586080000000  0.5118900000000 1.0
C      1  0.5180750000000  0.4413920000000  0.4881100000000 1.0
C      1  0.4718580000000  0.4635220000000  0.4857890000000 1.0
C      1  0.5281420000000  0.5364780000000  0.5142110000000 1.0
C      1  0.4533090000000  0.5579020000000  0.4957160000000 1.0
C      1  0.5466910000000  0.4420980000000  0.5042840000000 1.0
C      1  0.5171730000000  0.4881250000000  0.5603370000000 1.0
C      1  0.4828270000000  0.5118750000000  0.4396630000000 1.0
C      1  0.4558190000000  0.5011980000000  0.4534880000000 1.0
C      1  0.5441810000000  0.4988020000000  0.5465120000000 1.0
C      1  0.4397650000000  0.5209840000000  0.4679970000000 1.0
C      1  0.5602350000000  0.4790160000000  0.5320030000000 1.0
C      1  0.5632460000000  0.4844700000000  0.5028660000000 1.0
C      1  0.4367540000000  0.5155300000000  0.4971340000000 1.0
C      1  0.5030990000000  0.5503220000000  0.4650000000000 1.0
C      1  0.4969010000000  0.4496780000000  0.5350000000000 1.0
C      1  0.5141780000000  0.4954380000000  0.5147020000000 1.0
C      1  0.4858220000000  0.5045620000000  0.4852980000000 1.0
C      1  0.5350380000000  0.5766250000000  0.5042730000000 1.0
C      1  0.4649620000000  0.4233750000000  0.4957270000000 1.0
C      1  0.4876970000000  0.4362670000000  0.4769330000000 1.0
C      1  0.5123030000000  0.5637330000000  0.5230670000000 1.0
END
