TITL C-862128-1543-132 -6.57057810132163e-07 125000 -219.463386274649 0 0 38 (Ci) n - 1
REM
REM in /home/nfs/bkarasulu/CARBON/AIRSS/Generating-Clusters/TERSOFF/Higher-Symm/FIRE-HFTN
REM
REM
REM
REM
REM
REM ./C.cell (b20cbc046b6831c77cfcea5457e17084)
REM AIRSS Version 0.9.1 bugfix July 2018 build 013d7b7c2542+ Fri, 06 Jul 2018 19:26:36 +0100
REM compiler GCC version 9.2.1 20190827 (Red Hat 9.2.1-1)
REM options -cpp -mtune=generic -march=x86-64 -g -O0 -fpre-include=/usr/include/finclude/math-vector-fortran.h
REM seed 1438650435 967427466 2063333332 903897311 1983470131 876005273 1324624052 2098529364 1253028405 970482273 -52289085 -39573406 101119129 1336525672 -1776342711 -1910674059 977073688 380892640 -1589417030 2003893736 -740183971 1442887266 1038593008 1719334549 2043086308 -1800161718 -247653924 356317818 892399715 -25289235 254885418 -30069150 1102887956
REM
CELL 1.54180   50.00000   50.00000   50.00000   90.00000   90.00000   90.00000
LATT -1
SFAC C  
C      1  0.5527840000000  0.5213280000000  0.4785620000000 1.0
C      1  0.4472160000000  0.4786720000000  0.5214380000000 1.0
C      1  0.5107990000000  0.4422090000000  0.5310400000000 1.0
C      1  0.4892010000000  0.5577910000000  0.4689600000000 1.0
C      1  0.4980090000000  0.4601560000000  0.5505300000000 1.0
C      1  0.5019910000000  0.5398440000000  0.4494700000000 1.0
C      1  0.4615430000000  0.5497960000000  0.4731370000000 1.0
C      1  0.5384570000000  0.4502040000000  0.5268630000000 1.0
C      1  0.4609250000000  0.5061750000000  0.5247180000000 1.0
C      1  0.5390750000000  0.4938250000000  0.4752820000000 1.0
C      1  0.4553360000000  0.4773710000000  0.4486200000000 1.0
C      1  0.5446640000000  0.5226290000000  0.5513800000000 1.0
C      1  0.5043740000000  0.5628320000000  0.4929550000000 1.0
C      1  0.4956260000000  0.4371680000000  0.5070450000000 1.0
C      1  0.4900500000000  0.5102530000000  0.5368570000000 1.0
C      1  0.5099500000000  0.4897470000000  0.4631430000000 1.0
C      1  0.4421840000000  0.5275720000000  0.5325920000000 1.0
C      1  0.5578160000000  0.4724280000000  0.4674080000000 1.0
C      1  0.5484470000000  0.5388600000000  0.5023070000000 1.0
C      1  0.4515530000000  0.4611400000000  0.4976930000000 1.0
C      1  0.5434900000000  0.4787710000000  0.5256090000000 1.0
C      1  0.4565100000000  0.5212290000000  0.4743910000000 1.0
C      1  0.4955670000000  0.5344630000000  0.5541780000000 1.0
C      1  0.5044330000000  0.4655370000000  0.4458220000000 1.0
C      1  0.4391460000000  0.4675370000000  0.4715480000000 1.0
C      1  0.5608540000000  0.5324630000000  0.5284520000000 1.0
C      1  0.5288610000000  0.4935220000000  0.5043120000000 1.0
C      1  0.4711390000000  0.5064780000000  0.4956880000000 1.0
C      1  0.4906580000000  0.4849320000000  0.4871290000000 1.0
C      1  0.5093420000000  0.5150680000000  0.5128710000000 1.0
C      1  0.5360840000000  0.4940040000000  0.5503190000000 1.0
C      1  0.4639160000000  0.5059960000000  0.4496810000000 1.0
C      1  0.5196140000000  0.5425290000000  0.5066590000000 1.0
C      1  0.4803860000000  0.4574710000000  0.4933410000000 1.0
C      1  0.5058520000000  0.4883290000000  0.5524420000000 1.0
C      1  0.4941480000000  0.5116710000000  0.4475580000000 1.0
C      1  0.5231660000000  0.5401790000000  0.5613120000000 1.0
C      1  0.4768340000000  0.4598210000000  0.4386880000000 1.0
END
