TITL C-862128-1543-1215 -0.000368711155565414 125000 -338.789278027138 0 0 61 (C1) n - 1
REM
REM in /home/nfs/bkarasulu/CARBON/AIRSS/Generating-Clusters/TERSOFF/Higher-Symm/FIRE-HFTN
REM
REM
REM
REM
REM
REM ./C.cell (b20cbc046b6831c77cfcea5457e17084)
REM AIRSS Version 0.9.1 bugfix July 2018 build 013d7b7c2542+ Fri, 06 Jul 2018 19:26:36 +0100
REM compiler GCC version 9.2.1 20190827 (Red Hat 9.2.1-1)
REM options -cpp -mtune=generic -march=x86-64 -g -O0 -fpre-include=/usr/include/finclude/math-vector-fortran.h
REM seed 1154432235 527108714 -244636538 1839732694 1461026920 1360033729 2106459141 -1993195017 1040462472 416803504 -2030494429 -506471289 1990706017 -1543340395 -1970361021 1622895614 -2007696777 721735688 367832101 1147778542 298794789 1604533442 1281639965 1148254299 -452094115 1768641304 -1754004296 142019852 704800978 -128361323 -370986300 1222201390 1884396282
REM
CELL 1.54180   50.00000   50.00000   50.00000   90.00000   90.00000   90.00000
LATT -1
SFAC C  
C      1  0.4834230000000  0.5686130000000  0.5284060000000 1.0
C      1  0.5280030000000  0.4805350000000  0.5599000000000 1.0
C      1  0.5633160000000  0.5310980000000  0.4826020000000 1.0
C      1  0.5159250000000  0.5702210000000  0.4637640000000 1.0
C      1  0.4823680000000  0.4440970000000  0.4710650000000 1.0
C      1  0.5171040000000  0.4404330000000  0.5284320000000 1.0
C      1  0.4750530000000  0.4801950000000  0.4481750000000 1.0
C      1  0.5320430000000  0.5190240000000  0.4432990000000 1.0
C      1  0.4734220000000  0.5093810000000  0.5639290000000 1.0
C      1  0.4433580000000  0.5355640000000  0.5177720000000 1.0
C      1  0.5687460000000  0.4704410000000  0.5111510000000 1.0
C      1  0.4333380000000  0.4728410000000  0.4890790000000 1.0
C      1  0.4995610000000  0.4856450000000  0.4666010000000 1.0
C      1  0.4568360000000  0.4919710000000  0.4931320000000 1.0
C      1  0.4841420000000  0.4681920000000  0.4930980000000 1.0
C      1  0.5045100000000  0.4786230000000  0.5420240000000 1.0
C      1  0.4890660000000  0.5106330000000  0.5352480000000 1.0
C      1  0.5128910000000  0.5187820000000  0.4734760000000 1.0
C      1  0.5464490000000  0.4905630000000  0.5105980000000 1.0
C      1  0.4558190000000  0.5079060000000  0.5212530000000 1.0
C      1  0.5464370000000  0.5066630000000  0.4815330000000 1.0
C      1  0.5169850000000  0.4688440000000  0.5095360000000 1.0
C      1  0.4858020000000  0.5629520000000  0.5005390000000 1.0
C      1  0.5140890000000  0.5524410000000  0.4881110000000 1.0
C      1  0.4401390000000  0.5493250000000  0.4917380000000 1.0
C      1  0.4929470000000  0.4305860000000  0.5429170000000 1.0
C      1  0.5478110000000  0.4955560000000  0.4332980000000 1.0
C      1  0.5625400000000  0.5479530000000  0.5054330000000 1.0
C      1  0.4326820000000  0.4521840000000  0.5090500000000 1.0
C      1  0.5666990000000  0.4511980000000  0.4899480000000 1.0
C      1  0.5063200000000  0.4365190000000  0.4551480000000 1.0
C      1  0.4936290000000  0.5648090000000  0.4460040000000 1.0
C      1  0.5047410000000  0.5623100000000  0.5456970000000 1.0
C      1  0.4530090000000  0.4890380000000  0.5682540000000 1.0
C      1  0.5436470000000  0.5040750000000  0.5605410000000 1.0
C      1  0.4570970000000  0.5009890000000  0.4423460000000 1.0
C      1  0.4882060000000  0.4569580000000  0.5552060000000 1.0
C      1  0.5601060000000  0.4903530000000  0.4593230000000 1.0
C      1  0.4624840000000  0.5665480000000  0.4840580000000 1.0
C      1  0.5139500000000  0.4644300000000  0.4483900000000 1.0
C      1  0.4935400000000  0.5352490000000  0.4472910000000 1.0
C      1  0.5054190000000  0.5346880000000  0.5540070000000 1.0
C      1  0.4392070000000  0.4902170000000  0.5423150000000 1.0
C      1  0.5555180000000  0.5084350000000  0.5345400000000 1.0
C      1  0.4450390000000  0.5070880000000  0.4677700000000 1.0
C      1  0.5368510000000  0.5608280000000  0.5077590000000 1.0
C      1  0.4614820000000  0.4441150000000  0.5074880000000 1.0
C      1  0.5378270000000  0.4448280000000  0.4921960000000 1.0
C      1  0.4307960000000  0.5315000000000  0.4715740000000 1.0
C      1  0.4718400000000  0.4236580000000  0.5247920000000 1.0
C      1  0.5316560000000  0.4723180000000  0.4272630000000 1.0
C      1  0.5696900000000  0.5329220000000  0.5289310000000 1.0
C      1  0.4251110000000  0.4662220000000  0.5334760000000 1.0
C      1  0.5728960000000  0.4650380000000  0.4652030000000 1.0
C      1  0.5260550000000  0.4263640000000  0.4735060000000 1.0
C      1  0.4679190000000  0.5742190000000  0.4565940000000 1.0
C      1  0.5292440000000  0.5714110000000  0.5335680000000 1.0
C      1  0.4657370000000  0.4632610000000  0.5720670000000 1.0
C      1  0.5278070000000  0.5260050000000  0.5699000000000 1.0
C      1  0.4732710000000  0.5219110000000  0.4316820000000 1.0
C      1  0.5063890000000  0.5018010000000  0.5048660000000 1.0
END
