TITL C-862131-2149-669 0.896962976537664 125000 -882.260915270257 0 0 150 (C1) n - 1
REM
REM in /home/nfs/bkarasulu/CARBON/AIRSS/Generating-Clusters/TERSOFF/Higher-Symm/FIRE-HFTN
REM
REM
REM
REM
REM
REM ./C.cell (b20cbc046b6831c77cfcea5457e17084)
REM AIRSS Version 0.9.1 bugfix July 2018 build 013d7b7c2542+ Fri, 06 Jul 2018 19:26:36 +0100
REM compiler GCC version 9.2.1 20190827 (Red Hat 9.2.1-1)
REM options -cpp -mtune=generic -march=x86-64 -g -O0 -fpre-include=/usr/include/finclude/math-vector-fortran.h
REM seed 747645034 1708961070 133103037 689853822 580708410 -962305226 273536551 -842789562 840347040 1547184629 -768058843 -1582910488 742802611 -2140646531 731358305 -89973368 489202487 -882738895 1895950992 -308773055 -148312002 1693817848 -932443060 -1444135422 475721186 -1313368090 -691087071 1909919058 1358594941 -1688137849 -975657403 1777435382 -355469827
REM
CELL 1.54180   50.00000   50.00000   50.00000   90.00000   90.00000   90.00000
LATT -1
SFAC C  
C      1  0.5422300000000  0.5377040000000  0.4497870000000 1.0
C      1  0.5402720000000  0.5554880000000  0.4764900000000 1.0
C      1  0.5157910000000  0.4505640000000  0.4005060000000 1.0
C      1  0.4856300000000  0.4142990000000  0.5570260000000 1.0
C      1  0.4837990000000  0.4032050000000  0.5290850000000 1.0
C      1  0.5366830000000  0.5434120000000  0.3867410000000 1.0
C      1  0.3977770000000  0.4421160000000  0.4852030000000 1.0
C      1  0.4669640000000  0.5470130000000  0.6095310000000 1.0
C      1  0.5931370000000  0.5047220000000  0.5580900000000 1.0
C      1  0.5430770000000  0.4155080000000  0.4831330000000 1.0
C      1  0.4269770000000  0.5195400000000  0.5126330000000 1.0
C      1  0.5485940000000  0.4771330000000  0.5322270000000 1.0
C      1  0.4511960000000  0.5454020000000  0.5851600000000 1.0
C      1  0.5045340000000  0.5398860000000  0.5205670000000 1.0
C      1  0.5776640000000  0.4560730000000  0.5638980000000 1.0
C      1  0.5349610000000  0.4694100000000  0.5829710000000 1.0
C      1  0.5760870000000  0.5123120000000  0.4756910000000 1.0
C      1  0.5168330000000  0.5415930000000  0.4327330000000 1.0
C      1  0.4033140000000  0.4858210000000  0.5203960000000 1.0
C      1  0.4312490000000  0.5197660000000  0.4630600000000 1.0
C      1  0.4812170000000  0.4731780000000  0.4976280000000 1.0
C      1  0.3804480000000  0.4918880000000  0.4746990000000 1.0
C      1  0.5271740000000  0.4620500000000  0.4760740000000 1.0
C      1  0.4941320000000  0.5371750000000  0.6102770000000 1.0
C      1  0.4492820000000  0.5338160000000  0.5201660000000 1.0
C      1  0.5820560000000  0.4827620000000  0.5756440000000 1.0
C      1  0.5298130000000  0.6182260000000  0.6309890000000 1.0
C      1  0.4474820000000  0.4035070000000  0.4280260000000 1.0
C      1  0.5198220000000  0.5998470000000  0.5251700000000 1.0
C      1  0.4520060000000  0.5666240000000  0.4575930000000 1.0
C      1  0.4842300000000  0.4269260000000  0.4823180000000 1.0
C      1  0.4835610000000  0.4894060000000  0.4719840000000 1.0
C      1  0.5270090000000  0.5345960000000  0.5556250000000 1.0
C      1  0.5495700000000  0.5101530000000  0.4624330000000 1.0
C      1  0.4370980000000  0.5511830000000  0.4335920000000 1.0
C      1  0.5069610000000  0.4460400000000  0.4615390000000 1.0
C      1  0.5578930000000  0.5873800000000  0.4557280000000 1.0
C      1  0.3943120000000  0.4655340000000  0.4674160000000 1.0
C      1  0.5742690000000  0.4666140000000  0.4695400000000 1.0
C      1  0.4638170000000  0.5361700000000  0.4963610000000 1.0
C      1  0.4647970000000  0.5980150000000  0.5011050000000 1.0
C      1  0.5787610000000  0.5685080000000  0.4405900000000 1.0
C      1  0.4967480000000  0.4495030000000  0.5021090000000 1.0
C      1  0.5299870000000  0.5628610000000  0.5639110000000 1.0
C      1  0.4991880000000  0.5135100000000  0.5944910000000 1.0
C      1  0.4961240000000  0.4600210000000  0.3809440000000 1.0
C      1  0.4633460000000  0.5597030000000  0.5620850000000 1.0
C      1  0.5737530000000  0.5433990000000  0.5317270000000 1.0
C      1  0.4107980000000  0.5204690000000  0.5590490000000 1.0
C      1  0.4443200000000  0.4354540000000  0.4673820000000 1.0
C      1  0.5587740000000  0.5677420000000  0.5228350000000 1.0
C      1  0.4812290000000  0.4384130000000  0.4213260000000 1.0
C      1  0.5340540000000  0.4358570000000  0.5401910000000 1.0
C      1  0.4354300000000  0.4200970000000  0.5122660000000 1.0
C      1  0.4478190000000  0.5796870000000  0.5476420000000 1.0
C      1  0.5121470000000  0.4045750000000  0.5669430000000 1.0
C      1  0.4632010000000  0.4627390000000  0.4274300000000 1.0
C      1  0.5468590000000  0.5662740000000  0.5875010000000 1.0
C      1  0.6044930000000  0.4965260000000  0.5315480000000 1.0
C      1  0.4905960000000  0.5271330000000  0.4972730000000 1.0
C      1  0.5780040000000  0.4316280000000  0.5224970000000 1.0
C      1  0.4759490000000  0.4101730000000  0.4267470000000 1.0
C      1  0.5328150000000  0.5278390000000  0.5273390000000 1.0
C      1  0.5281570000000  0.4066340000000  0.4358360000000 1.0
C      1  0.5752170000000  0.5086940000000  0.5040170000000 1.0
C      1  0.5401980000000  0.6031690000000  0.5016120000000 1.0
C      1  0.5160600000000  0.5131450000000  0.5714500000000 1.0
C      1  0.4888120000000  0.4873230000000  0.6012500000000 1.0
C      1  0.5376660000000  0.5793070000000  0.5399860000000 1.0
C      1  0.5920760000000  0.4281870000000  0.4968250000000 1.0
C      1  0.4217780000000  0.4284470000000  0.5375520000000 1.0
C      1  0.5522140000000  0.4480210000000  0.5194910000000 1.0
C      1  0.4866340000000  0.5429170000000  0.5476400000000 1.0
C      1  0.4969390000000  0.4010390000000  0.4730410000000 1.0
C      1  0.5434970000000  0.5927260000000  0.6304450000000 1.0
C      1  0.4065400000000  0.5268720000000  0.4490540000000 1.0
C      1  0.4328780000000  0.4891570000000  0.5055800000000 1.0
C      1  0.4329350000000  0.4927850000000  0.4738450000000 1.0
C      1  0.4196750000000  0.4736690000000  0.5672210000000 1.0
C      1  0.4448290000000  0.5784080000000  0.4871990000000 1.0
C      1  0.4602150000000  0.4780060000000  0.5187650000000 1.0
C      1  0.4561910000000  0.4807180000000  0.4033100000000 1.0
C      1  0.5285390000000  0.4923190000000  0.4752790000000 1.0
C      1  0.4579900000000  0.4562330000000  0.5443190000000 1.0
C      1  0.5203040000000  0.3978000000000  0.4912750000000 1.0
C      1  0.5135040000000  0.5492770000000  0.4032940000000 1.0
C      1  0.5307300000000  0.4057700000000  0.5428960000000 1.0
C      1  0.5150100000000  0.5679020000000  0.4812990000000 1.0
C      1  0.4320980000000  0.5219770000000  0.5805320000000 1.0
C      1  0.4386610000000  0.4519330000000  0.4429180000000 1.0
C      1  0.5510310000000  0.5037210000000  0.5191650000000 1.0
C      1  0.4887260000000  0.4791570000000  0.4433950000000 1.0
C      1  0.4783630000000  0.4425620000000  0.5603510000000 1.0
C      1  0.5085910000000  0.4433020000000  0.4298260000000 1.0
C      1  0.4971820000000  0.5069060000000  0.3897960000000 1.0
C      1  0.4233000000000  0.5741760000000  0.5328160000000 1.0
C      1  0.4664250000000  0.4162950000000  0.5091470000000 1.0
C      1  0.5033530000000  0.5660410000000  0.5065070000000 1.0
C      1  0.4996850000000  0.3989020000000  0.4436660000000 1.0
C      1  0.5957170000000  0.4569790000000  0.4885350000000 1.0
C      1  0.5294920000000  0.5927690000000  0.4451750000000 1.0
C      1  0.3819040000000  0.5121450000000  0.4533460000000 1.0
C      1  0.5905470000000  0.5729440000000  0.4860230000000 1.0
C      1  0.4223620000000  0.5652750000000  0.5048530000000 1.0
C      1  0.5474920000000  0.4207260000000  0.4544670000000 1.0
C      1  0.4707150000000  0.4960670000000  0.5404520000000 1.0
C      1  0.4896850000000  0.5352690000000  0.3913160000000 1.0
C      1  0.5448070000000  0.4644130000000  0.4274990000000 1.0
C      1  0.4928970000000  0.5375260000000  0.4475020000000 1.0
C      1  0.5975680000000  0.5582180000000  0.4617680000000 1.0
C      1  0.4385040000000  0.5043230000000  0.4078980000000 1.0
C      1  0.4818870000000  0.5653750000000  0.4500910000000 1.0
C      1  0.6026090000000  0.4689280000000  0.5207170000000 1.0
C      1  0.4595740000000  0.4818620000000  0.6038630000000 1.0
C      1  0.5038470000000  0.5261680000000  0.4724330000000 1.0
C      1  0.5706400000000  0.5255030000000  0.4116160000000 1.0
C      1  0.5477360000000  0.4484330000000  0.5652200000000 1.0
C      1  0.4243100000000  0.4291010000000  0.4872880000000 1.0
C      1  0.5156030000000  0.5505700000000  0.6254800000000 1.0
C      1  0.4494250000000  0.5256550000000  0.4244460000000 1.0
C      1  0.4382090000000  0.4920610000000  0.5855790000000 1.0
C      1  0.4499680000000  0.5396520000000  0.4718650000000 1.0
C      1  0.5979340000000  0.5286000000000  0.4639010000000 1.0
C      1  0.5089700000000  0.4659650000000  0.5975190000000 1.0
C      1  0.5071180000000  0.4455580000000  0.5299460000000 1.0
C      1  0.5484470000000  0.5171960000000  0.3938860000000 1.0
C      1  0.5571560000000  0.4497950000000  0.4493800000000 1.0
C      1  0.4040670000000  0.4923610000000  0.5495230000000 1.0
C      1  0.4043470000000  0.5348360000000  0.4988360000000 1.0
C      1  0.5353700000000  0.5698560000000  0.6143790000000 1.0
C      1  0.4897590000000  0.5895620000000  0.5177620000000 1.0
C      1  0.5432780000000  0.4434870000000  0.4927410000000 1.0
C      1  0.5126150000000  0.3957120000000  0.5201560000000 1.0
C      1  0.4793900000000  0.4839780000000  0.3850740000000 1.0
C      1  0.4284710000000  0.4257680000000  0.4297180000000 1.0
C      1  0.5563210000000  0.5193790000000  0.5815290000000 1.0
C      1  0.4654620000000  0.5234920000000  0.5409790000000 1.0
C      1  0.5565970000000  0.4909260000000  0.5892960000000 1.0
C      1  0.4750310000000  0.5189520000000  0.4350310000000 1.0
C      1  0.5934670000000  0.4479040000000  0.5409460000000 1.0
C      1  0.4210920000000  0.4721410000000  0.4569450000000 1.0
C      1  0.3886480000000  0.5043430000000  0.5007400000000 1.0
C      1  0.5644980000000  0.5441470000000  0.4329340000000 1.0
C      1  0.5035650000000  0.5841150000000  0.4599040000000 1.0
C      1  0.5224790000000  0.5009870000000  0.4030570000000 1.0
C      1  0.5746940000000  0.5571200000000  0.5825130000000 1.0
C      1  0.5208040000000  0.4833990000000  0.4274580000000 1.0
C      1  0.5605110000000  0.5787960000000  0.4906740000000 1.0
C      1  0.4320840000000  0.4506290000000  0.5535550000000 1.0
C      1  0.5782120000000  0.5333720000000  0.5609250000000 1.0
END
