TITL C-862128-1543-124 -0.0215167810703769 125000 -628.740604551797 0 0 113 (C1) n - 1
REM
REM in /home/nfs/bkarasulu/CARBON/AIRSS/Generating-Clusters/TERSOFF/Higher-Symm/FIRE-HFTN
REM
REM
REM
REM
REM
REM ./C.cell (b20cbc046b6831c77cfcea5457e17084)
REM AIRSS Version 0.9.1 bugfix July 2018 build 013d7b7c2542+ Fri, 06 Jul 2018 19:26:36 +0100
REM compiler GCC version 9.2.1 20190827 (Red Hat 9.2.1-1)
REM options -cpp -mtune=generic -march=x86-64 -g -O0 -fpre-include=/usr/include/finclude/math-vector-fortran.h
REM seed 947337154 757837381 -2057995707 -297377146 1896472538 -310688660 459915510 -386852103 -171216255 376687295 -1401723992 -1924935875 1291634899 -616493942 408408775 1904996155 -55531319 213288749 -770587655 536565 -954262127 490420442 643646849 -827925152 1941091132 1571863625 -820279487 1939506315 -1299595054 545928072 1220544609 -168315518 -997363742
REM
CELL 1.54180   50.00000   50.00000   50.00000   90.00000   90.00000   90.00000
LATT -1
SFAC C  
C      1  0.4125730000000  0.4767250000000  0.4774860000000 1.0
C      1  0.5621500000000  0.4766600000000  0.4387130000000 1.0
C      1  0.5239450000000  0.4733910000000  0.5849240000000 1.0
C      1  0.5876890000000  0.5260280000000  0.4776530000000 1.0
C      1  0.4375530000000  0.5257940000000  0.4382540000000 1.0
C      1  0.4775770000000  0.5277900000000  0.5840530000000 1.0
C      1  0.5187170000000  0.4664600000000  0.4088910000000 1.0
C      1  0.5743010000000  0.4632700000000  0.5624310000000 1.0
C      1  0.4085380000000  0.4656190000000  0.5312040000000 1.0
C      1  0.4812720000000  0.5358630000000  0.4075000000000 1.0
C      1  0.4267710000000  0.5388010000000  0.5622970000000 1.0
C      1  0.5928890000000  0.5370860000000  0.5319380000000 1.0
C      1  0.4639930000000  0.5847110000000  0.5256180000000 1.0
C      1  0.4935580000000  0.5874250000000  0.4419410000000 1.0
C      1  0.5458130000000  0.5813520000000  0.5129170000000 1.0
C      1  0.5373140000000  0.4177970000000  0.5257940000000 1.0
C      1  0.5066510000000  0.4149180000000  0.4424620000000 1.0
C      1  0.4547610000000  0.4216190000000  0.5133410000000 1.0
C      1  0.5320930000000  0.5282340000000  0.4202270000000 1.0
C      1  0.5599920000000  0.5276460000000  0.5746060000000 1.0
C      1  0.4029330000000  0.5275560000000  0.5133960000000 1.0
C      1  0.4682180000000  0.4734670000000  0.4207330000000 1.0
C      1  0.4414450000000  0.4745830000000  0.5732040000000 1.0
C      1  0.5972060000000  0.4753280000000  0.5136720000000 1.0
C      1  0.5176970000000  0.5720300000000  0.5147390000000 1.0
C      1  0.4711070000000  0.5745240000000  0.4972310000000 1.0
C      1  0.5113260000000  0.5864120000000  0.4659320000000 1.0
C      1  0.4833210000000  0.4292620000000  0.5151620000000 1.0
C      1  0.5295230000000  0.4277440000000  0.4976130000000 1.0
C      1  0.4889980000000  0.4158040000000  0.4664250000000 1.0
C      1  0.4194650000000  0.5332320000000  0.4621840000000 1.0
C      1  0.5722620000000  0.5335560000000  0.4521110000000 1.0
C      1  0.5078720000000  0.5340480000000  0.5834080000000 1.0
C      1  0.5803580000000  0.4696040000000  0.4624030000000 1.0
C      1  0.4274620000000  0.4686520000000  0.4518530000000 1.0
C      1  0.4935410000000  0.4675920000000  0.5835240000000 1.0
C      1  0.5245450000000  0.5039790000000  0.5562260000000 1.0
C      1  0.4360880000000  0.5077880000000  0.4931180000000 1.0
C      1  0.5370290000000  0.5046070000000  0.4574040000000 1.0
C      1  0.4756560000000  0.4970030000000  0.5556010000000 1.0
C      1  0.5635070000000  0.4958840000000  0.4940350000000 1.0
C      1  0.4633660000000  0.4972490000000  0.4550090000000 1.0
C      1  0.4945240000000  0.4844540000000  0.4085020000000 1.0
C      1  0.5886430000000  0.4836810000000  0.5432020000000 1.0
C      1  0.4186370000000  0.4850710000000  0.5537680000000 1.0
C      1  0.5054910000000  0.5176340000000  0.4073210000000 1.0
C      1  0.4120190000000  0.5188420000000  0.5427360000000 1.0
C      1  0.5826660000000  0.5174550000000  0.5545660000000 1.0
C      1  0.5484110000000  0.5511860000000  0.5593400000000 1.0
C      1  0.4205020000000  0.5515810000000  0.5088300000000 1.0
C      1  0.5281160000000  0.5505110000000  0.4397300000000 1.0
C      1  0.4538600000000  0.4524660000000  0.5569390000000 1.0
C      1  0.5791240000000  0.4518120000000  0.5088840000000 1.0
C      1  0.4721070000000  0.4515110000000  0.4405900000000 1.0
C      1  0.5397880000000  0.5405910000000  0.5315090000000 1.0
C      1  0.4500870000000  0.5456300000000  0.5192600000000 1.0
C      1  0.5071870000000  0.5446990000000  0.4640250000000 1.0
C      1  0.4611920000000  0.4623740000000  0.5282750000000 1.0
C      1  0.5502060000000  0.4572000000000  0.5192260000000 1.0
C      1  0.4929440000000  0.4575720000000  0.4654510000000 1.0
C      1  0.5173910000000  0.4840880000000  0.4911830000000 1.0
C      1  0.5083770000000  0.4857520000000  0.5220270000000 1.0
C      1  0.4744490000000  0.4915500000000  0.4983290000000 1.0
C      1  0.4794640000000  0.5214180000000  0.4853080000000 1.0
C      1  0.4933710000000  0.5186770000000  0.5243660000000 1.0
C      1  0.5271590000000  0.5160290000000  0.4998810000000 1.0
C      1  0.4592660000000  0.4169580000000  0.4633100000000 1.0
C      1  0.5504960000000  0.4299000000000  0.4771040000000 1.0
C      1  0.4954960000000  0.4327770000000  0.5424000000000 1.0
C      1  0.5410270000000  0.5852040000000  0.4627350000000 1.0
C      1  0.4497990000000  0.5730140000000  0.4767420000000 1.0
C      1  0.5053790000000  0.5688670000000  0.5423810000000 1.0
C      1  0.4651810000000  0.5721210000000  0.5539230000000 1.0
C      1  0.4679550000000  0.5721010000000  0.4389100000000 1.0
C      1  0.5675170000000  0.5681780000000  0.4980650000000 1.0
C      1  0.5357130000000  0.4300330000000  0.5540590000000 1.0
C      1  0.5320740000000  0.4303510000000  0.4394050000000 1.0
C      1  0.4343000000000  0.4353420000000  0.4973400000000 1.0
C      1  0.5367200000000  0.4794380000000  0.5404640000000 1.0
C      1  0.4451220000000  0.4834580000000  0.5112280000000 1.0
C      1  0.5169260000000  0.4786270000000  0.4555450000000 1.0
C      1  0.4642860000000  0.5230320000000  0.5396580000000 1.0
C      1  0.5559960000000  0.5208610000000  0.5127240000000 1.0
C      1  0.4829440000000  0.5242100000000  0.4532740000000 1.0
C      1  0.5315850000000  0.5085750000000  0.5858620000000 1.0
C      1  0.4074430000000  0.5095600000000  0.4824570000000 1.0
C      1  0.5571670000000  0.5097890000000  0.4346620000000 1.0
C      1  0.4700730000000  0.4926740000000  0.5854590000000 1.0
C      1  0.5919030000000  0.4931460000000  0.4827730000000 1.0
C      1  0.4420210000000  0.4918830000000  0.4336590000000 1.0
C      1  0.5432730000000  0.4581580000000  0.5627380000000 1.0
C      1  0.4228640000000  0.4623880000000  0.5033890000000 1.0
C      1  0.5338740000000  0.4601560000000  0.4344940000000 1.0
C      1  0.4578370000000  0.5437330000000  0.5623780000000 1.0
C      1  0.5783950000000  0.5409210000000  0.5039330000000 1.0
C      1  0.4659660000000  0.5424300000000  0.4331440000000 1.0
C      1  0.4535110000000  0.5303640000000  0.4938980000000 1.0
C      1  0.5278330000000  0.5259050000000  0.4737550000000 1.0
C      1  0.5164310000000  0.5254660000000  0.5403800000000 1.0
C      1  0.5451830000000  0.4739290000000  0.4950650000000 1.0
C      1  0.4723760000000  0.4774130000000  0.4736320000000 1.0
C      1  0.4852590000000  0.4762770000000  0.5383800000000 1.0
C      1  0.4450420000000  0.4407800000000  0.4499070000000 1.0
C      1  0.5747460000000  0.4456370000000  0.4801510000000 1.0
C      1  0.4814520000000  0.4448530000000  0.5659500000000 1.0
C      1  0.5549830000000  0.5613710000000  0.4493240000000 1.0
C      1  0.4250040000000  0.5577290000000  0.4797450000000 1.0
C      1  0.5197060000000  0.5578650000000  0.5668260000000 1.0
C      1  0.5609410000000  0.5001080000000  0.5357030000000 1.0
C      1  0.4398190000000  0.5029320000000  0.5346310000000 1.0
C      1  0.5007420000000  0.5017460000000  0.4367210000000 1.0
C      1  0.5001300000000  0.5693540000000  0.4895070000000 1.0
C      1  0.5003930000000  0.4324310000000  0.4902210000000 1.0
END
