TITL C-862505-1648-435 0.0030587165094824 125000 -856.349819350966 0 0 154 (D2) n - 1
REM
REM in /home/nfs/bkarasulu/CARBON/AIRSS/Generating-Clusters/TERSOFF/Higher-Symm/FIRE-HFTN
REM
REM
REM
REM
REM
REM ./C.cell (b20cbc046b6831c77cfcea5457e17084)
REM AIRSS Version 0.9.1 bugfix July 2018 build 013d7b7c2542+ Fri, 06 Jul 2018 19:26:36 +0100
REM compiler GCC version 9.2.1 20190827 (Red Hat 9.2.1-1)
REM options -cpp -mtune=generic -march=x86-64 -g -O0 -fpre-include=/usr/include/finclude/math-vector-fortran.h
REM seed 960616234 -665027176 -2084625383 114542545 -949319418 -375647391 1119543102 421368497 1733910649 -498583444 1765725280 1389450599 324054833 -1688406411 -1260934708 1278090094 1001154529 1259334432 -1083758639 1128720665 -2051853521 717755134 686727645 -2012516442 -1493249972 328609681 1634794669 -1365831078 1698076783 1440316432 -830248372 -1571244042 606688109
REM
CELL 1.54180   50.00000   50.00000   50.00000   90.00000   90.00000   90.00000
LATT -1
SFAC C  
C      1  0.4988270000000  0.4211510000000  0.5297690000000 1.0
C      1  0.4988270000000  0.5788490000000  0.4702310000000 1.0
C      1  0.5024150000000  0.5788490000000  0.5297690000000 1.0
C      1  0.5024150000000  0.4211510000000  0.4702310000000 1.0
C      1  0.5903960000000  0.5322670000000  0.4432280000000 1.0
C      1  0.5903960000000  0.4677330000000  0.5567720000000 1.0
C      1  0.4108450000000  0.4677330000000  0.4432280000000 1.0
C      1  0.4108450000000  0.5322670000000  0.5567720000000 1.0
C      1  0.5291910000000  0.4951870000000  0.5925310000000 1.0
C      1  0.5291910000000  0.5048130000000  0.4074690000000 1.0
C      1  0.4720510000000  0.5048130000000  0.5925310000000 1.0
C      1  0.4720510000000  0.4951870000000  0.4074690000000 1.0
C      1  0.5773020000000  0.4682440000000  0.5843820000000 1.0
C      1  0.5773020000000  0.5317560000000  0.4156180000000 1.0
C      1  0.4239390000000  0.5317560000000  0.5843820000000 1.0
C      1  0.4239390000000  0.4682440000000  0.4156180000000 1.0
C      1  0.5131410000000  0.4727710000000  0.6022000000000 1.0
C      1  0.5131410000000  0.5272290000000  0.3978000000000 1.0
C      1  0.4881010000000  0.5272290000000  0.6022000000000 1.0
C      1  0.4881010000000  0.4727710000000  0.3978000000000 1.0
C      1  0.4398130000000  0.4920210000000  0.4062100000000 1.0
C      1  0.4398130000000  0.5079790000000  0.5937900000000 1.0
C      1  0.5614280000000  0.5079790000000  0.4062100000000 1.0
C      1  0.5614280000000  0.4920210000000  0.5937900000000 1.0
C      1  0.4602560000000  0.5151390000000  0.5145320000000 1.0
C      1  0.4602560000000  0.4848610000000  0.4854680000000 1.0
C      1  0.5409850000000  0.4848610000000  0.5145320000000 1.0
C      1  0.5409850000000  0.5151390000000  0.4854680000000 1.0
C      1  0.4163980000000  0.5020440000000  0.4529390000000 1.0
C      1  0.4163980000000  0.4979560000000  0.5470610000000 1.0
C      1  0.5848440000000  0.4979560000000  0.4529390000000 1.0
C      1  0.5848440000000  0.5020440000000  0.5470610000000 1.0
C      1  0.5683840000000  0.5381610000000  0.4894770000000 1.0
C      1  0.5683840000000  0.4618390000000  0.5105230000000 1.0
C      1  0.4328570000000  0.4618390000000  0.4894770000000 1.0
C      1  0.4328570000000  0.5381610000000  0.5105230000000 1.0
C      1  0.4412830000000  0.5051470000000  0.4341760000000 1.0
C      1  0.4412830000000  0.4948530000000  0.5658240000000 1.0
C      1  0.5599580000000  0.4948530000000  0.4341760000000 1.0
C      1  0.5599580000000  0.5051470000000  0.5658240000000 1.0
C      1  0.4829970000000  0.5235460000000  0.4031930000000 1.0
C      1  0.4829970000000  0.4764540000000  0.5968070000000 1.0
C      1  0.5182440000000  0.4764540000000  0.4031930000000 1.0
C      1  0.5182440000000  0.5235460000000  0.5968070000000 1.0
C      1  0.4752160000000  0.5818730000000  0.5453410000000 1.0
C      1  0.4752160000000  0.4181270000000  0.4546590000000 1.0
C      1  0.5260250000000  0.4181270000000  0.5453410000000 1.0
C      1  0.5260250000000  0.5818730000000  0.4546590000000 1.0
C      1  0.3817830000000  0.4617470000000  0.4417780000000 1.0
C      1  0.3817830000000  0.5382530000000  0.5582220000000 1.0
C      1  0.6194580000000  0.5382530000000  0.4417780000000 1.0
C      1  0.6194580000000  0.4617470000000  0.5582220000000 1.0
C      1  0.5281250000000  0.5184770000000  0.5189390000000 1.0
C      1  0.5281250000000  0.4815230000000  0.4810610000000 1.0
C      1  0.4731160000000  0.4815230000000  0.5189390000000 1.0
C      1  0.4731160000000  0.5184770000000  0.4810610000000 1.0
C      1  0.4141960000000  0.4122570000000  0.4973640000000 1.0
C      1  0.4141960000000  0.5877430000000  0.5026360000000 1.0
C      1  0.5870460000000  0.5877430000000  0.4973640000000 1.0
C      1  0.5870460000000  0.4122570000000  0.5026360000000 1.0
C      1  0.5197980000000  0.5465650000000  0.5705010000000 1.0
C      1  0.5197980000000  0.4534350000000  0.4294990000000 1.0
C      1  0.4814440000000  0.4534350000000  0.5705010000000 1.0
C      1  0.4814440000000  0.5465650000000  0.4294990000000 1.0
C      1  0.6064630000000  0.4838770000000  0.4788440000000 1.0
C      1  0.6064630000000  0.5161230000000  0.5211560000000 1.0
C      1  0.3947780000000  0.5161230000000  0.4788440000000 1.0
C      1  0.3947780000000  0.4838770000000  0.5211560000000 1.0
C      1  0.3972170000000  0.4330530000000  0.5087130000000 1.0
C      1  0.3972170000000  0.5669470000000  0.4912870000000 1.0
C      1  0.6040240000000  0.5669470000000  0.5087130000000 1.0
C      1  0.6040240000000  0.4330530000000  0.4912870000000 1.0
C      1  0.5285930000000  0.5017130000000  0.4419840000000 1.0
C      1  0.5285930000000  0.4982870000000  0.5580160000000 1.0
C      1  0.4726480000000  0.4982870000000  0.4419840000000 1.0
C      1  0.4726480000000  0.5017130000000  0.5580160000000 1.0
C      1  0.4343940000000  0.4975880000000  0.5208510000000 1.0
C      1  0.4343940000000  0.5024120000000  0.4791490000000 1.0
C      1  0.5668470000000  0.5024120000000  0.5208510000000 1.0
C      1  0.5668470000000  0.4975880000000  0.4791490000000 1.0
C      1  0.5226020000000  0.5288440000000  0.4593020000000 1.0
C      1  0.5226020000000  0.4711560000000  0.5406980000000 1.0
C      1  0.4786400000000  0.4711560000000  0.4593020000000 1.0
C      1  0.4786400000000  0.5288440000000  0.5406980000000 1.0
C      1  0.4885960000000  0.4766260000000  0.5473110000000 1.0
C      1  0.4885960000000  0.5233740000000  0.4526890000000 1.0
C      1  0.5126450000000  0.5233750000000  0.5473110000000 1.0
C      1  0.5126450000000  0.4766250000000  0.4526890000000 1.0
C      1  0.5662070000000  0.5533290000000  0.5527610000000 1.0
C      1  0.5662070000000  0.4466710000000  0.4472390000000 1.0
C      1  0.4350340000000  0.4466710000000  0.5527610000000 1.0
C      1  0.4350340000000  0.5533290000000  0.4472390000000 1.0
C      1  0.5540750000000  0.4363190000000  0.4741330000000 1.0
C      1  0.5540750000000  0.5636810000000  0.5258670000000 1.0
C      1  0.4471660000000  0.5636810000000  0.4741330000000 1.0
C      1  0.4471660000000  0.4363190000000  0.5258670000000 1.0
C      1  0.5110120000000  0.5518360000000  0.4165640000000 1.0
C      1  0.5110120000000  0.4481640000000  0.5834360000000 1.0
C      1  0.4902290000000  0.4481640000000  0.4165640000000 1.0
C      1  0.4902290000000  0.5518360000000  0.5834360000000 1.0
C      1  0.5291150000000  0.5551500000000  0.4401970000000 1.0
C      1  0.5291150000000  0.4448500000000  0.5598030000000 1.0
C      1  0.4721260000000  0.4448500000000  0.4401970000000 1.0
C      1  0.4721260000000  0.5551500000000  0.5598030000000 1.0
C      1  0.4838510000000  0.5520280000000  0.5171580000000 1.0
C      1  0.4838510000000  0.4479720000000  0.4828420000000 1.0
C      1  0.5173910000000  0.4479720000000  0.5171580000000 1.0
C      1  0.5173910000000  0.5520280000000  0.4828420000000 1.0
C      1  0.5316380000000  0.4522490000000  0.4892280000000 1.0
C      1  0.5316380000000  0.5477510000000  0.5107720000000 1.0
C      1  0.4696030000000  0.5477510000000  0.4892280000000 1.0
C      1  0.4696030000000  0.4522490000000  0.5107720000000 1.0
C      1  0.4796970000000  0.4275390000000  0.5509360000000 1.0
C      1  0.4796970000000  0.5724610000000  0.4490640000000 1.0
C      1  0.5215440000000  0.5724620000000  0.5509360000000 1.0
C      1  0.5215440000000  0.4275380000000  0.4490640000000 1.0
C      1  0.5916720000000  0.4592340000000  0.4900660000000 1.0
C      1  0.5916720000000  0.5407660000000  0.5099340000000 1.0
C      1  0.4095690000000  0.5407660000000  0.4900660000000 1.0
C      1  0.4095690000000  0.4592340000000  0.5099340000000 1.0
C      1  0.5755090000000  0.4490320000000  0.5358030000000 1.0
C      1  0.5755090000000  0.5509680000000  0.4641970000000 1.0
C      1  0.4257320000000  0.5509680000000  0.5358030000000 1.0
C      1  0.4257320000000  0.4490320000000  0.4641970000000 1.0
C      1  0.5113090000000  0.5995380000000  0.5096660000000 1.0
C      1  0.5113090000000  0.4004620000000  0.4903340000000 1.0
C      1  0.4899320000000  0.4004620000000  0.5096660000000 1.0
C      1  0.4899320000000  0.5995380000000  0.4903340000000 1.0
C      1  0.4391140000000  0.4103370000000  0.5144040000000 1.0
C      1  0.4391140000000  0.5896630000000  0.4855960000000 1.0
C      1  0.5621270000000  0.5896640000000  0.5144040000000 1.0
C      1  0.5621270000000  0.4103360000000  0.4855960000000 1.0
C      1  0.5756190000000  0.4184870000000  0.5313810000000 1.0
C      1  0.5756190000000  0.5815130000000  0.4686190000000 1.0
C      1  0.4256220000000  0.5815130000000  0.5313810000000 1.0
C      1  0.4256220000000  0.4184870000000  0.4686190000000 1.0
C      1  0.4132710000000  0.4658020000000  0.5541890000000 1.0
C      1  0.4132710000000  0.5341980000000  0.4458110000000 1.0
C      1  0.5879710000000  0.5341980000000  0.5541890000000 1.0
C      1  0.5879710000000  0.4658020000000  0.4458110000000 1.0
C      1  0.4538660000000  0.4062180000000  0.4702330000000 1.0
C      1  0.4538660000000  0.5937820000000  0.5297670000000 1.0
C      1  0.5473750000000  0.5937820000000  0.4702320000000 1.0
C      1  0.5473750000000  0.4062180000000  0.5297680000000 1.0
C      1  0.4521630000000  0.4474530000000  0.5756030000000 1.0
C      1  0.4521630000000  0.5525470000000  0.4243970000000 1.0
C      1  0.5490780000000  0.5525470000000  0.5756030000000 1.0
C      1  0.5490780000000  0.4474530000000  0.4243970000000 1.0
C      1  0.5397650000000  0.6015330000000  0.4992450000000 1.0
C      1  0.5397650000000  0.3984670000000  0.5007550000000 1.0
C      1  0.4614770000000  0.3984670000000  0.4992450000000 1.0
C      1  0.4614770000000  0.6015330000000  0.5007550000000 1.0
C      1  0.5900750000000  0.5000000000000  0.5000000000000 1.0
C      1  0.4111660000000  0.5000000000000  0.5000000000000 1.0
END
