TITL C-862501-1041-1153 199.270924165296 125000 -908.899853121694 0 0 156 (C1) n - 1
REM
REM in /home/nfs/bkarasulu/CARBON/AIRSS/Generating-Clusters/TERSOFF/Higher-Symm/FIRE-HFTN
REM
REM
REM
REM
REM
REM ./C.cell (b20cbc046b6831c77cfcea5457e17084)
REM AIRSS Version 0.9.1 bugfix July 2018 build 013d7b7c2542+ Fri, 06 Jul 2018 19:26:36 +0100
REM compiler GCC version 9.2.1 20190827 (Red Hat 9.2.1-1)
REM options -cpp -mtune=generic -march=x86-64 -g -O0 -fpre-include=/usr/include/finclude/math-vector-fortran.h
REM seed 272691487 1010256320 648800893 -1603557903 1190813671 -1187556360 1355234838 -2000410051 -2082540057 -1325906631 780324552 -1647113486 1874701630 -607829271 -277230403 -1543590571 1763900380 -863886417 476032346 -832854438 -1513453072 344183931 -51225798 -2078903738 895976832 1132194738 1968052462 1289243431 -1461012704 1405397132 1853041259 549439601 2092200501
REM
CELL 1.54180   50.00000   50.00000   50.00000   90.00000   90.00000   90.00000
LATT -1
SFAC C  
C      1  0.4725260000000  0.5279730000000  0.5418500000000 1.0
C      1  0.5759240000000  0.5219940000000  0.5791430000000 1.0
C      1  0.5365280000000  0.5327970000000  0.6101100000000 1.0
C      1  0.5542890000000  0.5997010000000  0.5279560000000 1.0
C      1  0.5631730000000  0.5492290000000  0.5744040000000 1.0
C      1  0.5901300000000  0.4508420000000  0.4572800000000 1.0
C      1  0.5210700000000  0.5697740000000  0.3879480000000 1.0
C      1  0.5936220000000  0.4226200000000  0.5284220000000 1.0
C      1  0.4526970000000  0.4890110000000  0.6127680000000 1.0
C      1  0.4928980000000  0.5487600000000  0.6318970000000 1.0
C      1  0.4977500000000  0.5731740000000  0.3711450000000 1.0
C      1  0.5889800000000  0.5727680000000  0.5500160000000 1.0
C      1  0.5868180000000  0.5577320000000  0.4891800000000 1.0
C      1  0.5704490000000  0.4339030000000  0.4423800000000 1.0
C      1  0.4343410000000  0.4487750000000  0.4383240000000 1.0
C      1  0.5545500000000  0.4528720000000  0.4260900000000 1.0
C      1  0.5915770000000  0.4508550000000  0.5662430000000 1.0
C      1  0.5836210000000  0.4806120000000  0.4555400000000 1.0
C      1  0.4496670000000  0.4291140000000  0.4873230000000 1.0
C      1  0.5190100000000  0.5740030000000  0.5847250000000 1.0
C      1  0.4515610000000  0.4992770000000  0.4669060000000 1.0
C      1  0.4441180000000  0.5558460000000  0.4070190000000 1.0
C      1  0.4205080000000  0.5185760000000  0.5068530000000 1.0
C      1  0.4275590000000  0.4131170000000  0.5979870000000 1.0
C      1  0.5504570000000  0.4888280000000  0.5829080000000 1.0
C      1  0.4440770000000  0.5377680000000  0.3834540000000 1.0
C      1  0.4234020000000  0.5501600000000  0.4267270000000 1.0
C      1  0.4306100000000  0.4757740000000  0.4788650000000 1.0
C      1  0.5316770000000  0.5765810000000  0.4355980000000 1.0
C      1  0.4472230000000  0.5371270000000  0.5556450000000 1.0
C      1  0.4982800000000  0.4459480000000  0.4112230000000 1.0
C      1  0.4767720000000  0.3875960000000  0.5075810000000 1.0
C      1  0.5399840000000  0.5554510000000  0.5916580000000 1.0
C      1  0.5874020000000  0.4993650000000  0.4796280000000 1.0
C      1  0.4854070000000  0.3980670000000  0.4593310000000 1.0
C      1  0.6080250000000  0.4936130000000  0.5040670000000 1.0
C      1  0.5495050000000  0.5406320000000  0.4975020000000 1.0
C      1  0.5941330000000  0.4764320000000  0.5521200000000 1.0
C      1  0.4205150000000  0.4849670000000  0.5746610000000 1.0
C      1  0.4429100000000  0.5022060000000  0.4347010000000 1.0
C      1  0.4606520000000  0.5885700000000  0.4648380000000 1.0
C      1  0.4065240000000  0.5663430000000  0.4995590000000 1.0
C      1  0.5771880000000  0.4301680000000  0.5514490000000 1.0
C      1  0.4698820000000  0.5675550000000  0.4173450000000 1.0
C      1  0.3788800000000  0.4389390000000  0.4933850000000 1.0
C      1  0.5108500000000  0.4292020000000  0.3913090000000 1.0
C      1  0.4924030000000  0.5503710000000  0.4250160000000 1.0
C      1  0.4262190000000  0.5174840000000  0.4791540000000 1.0
C      1  0.4506690000000  0.4492020000000  0.5174210000000 1.0
C      1  0.4248280000000  0.5508270000000  0.5433810000000 1.0
C      1  0.5338240000000  0.4058290000000  0.5095700000000 1.0
C      1  0.4718660000000  0.5783380000000  0.5733830000000 1.0
C      1  0.5560360000000  0.5112500000000  0.6038780000000 1.0
C      1  0.4986180000000  0.5694930000000  0.5632660000000 1.0
C      1  0.4728230000000  0.5957760000000  0.4252960000000 1.0
C      1  0.5951820000000  0.5816250000000  0.5768780000000 1.0
C      1  0.4134080000000  0.5440290000000  0.5177580000000 1.0
C      1  0.4338000000000  0.4500350000000  0.4685480000000 1.0
C      1  0.4499770000000  0.4001770000000  0.5029330000000 1.0
C      1  0.4170830000000  0.5699120000000  0.4476980000000 1.0
C      1  0.3805790000000  0.4673180000000  0.4879490000000 1.0
C      1  0.5372720000000  0.4342400000000  0.3821100000000 1.0
C      1  0.4200550000000  0.5903550000000  0.5078680000000 1.0
C      1  0.5430020000000  0.5079100000000  0.5043190000000 1.0
C      1  0.4878280000000  0.4554570000000  0.4622190000000 1.0
C      1  0.4682940000000  0.4677760000000  0.6237060000000 1.0
C      1  0.5005790000000  0.4996810000000  0.4428700000000 1.0
C      1  0.5314270000000  0.4960150000000  0.4494850000000 1.0
C      1  0.5014140000000  0.5116030000000  0.5059130000000 1.0
C      1  0.4634780000000  0.5758430000000  0.4903150000000 1.0
C      1  0.4695840000000  0.5480500000000  0.6147390000000 1.0
C      1  0.5608990000000  0.4895670000000  0.4897080000000 1.0
C      1  0.4617000000000  0.6088530000000  0.5290410000000 1.0
C      1  0.4324760000000  0.4131420000000  0.5469170000000 1.0
C      1  0.4715530000000  0.4808840000000  0.5673810000000 1.0
C      1  0.4098680000000  0.4929900000000  0.5487910000000 1.0
C      1  0.4509730000000  0.4252810000000  0.4338920000000 1.0
C      1  0.4869540000000  0.4706000000000  0.4025060000000 1.0
C      1  0.4970650000000  0.5400690000000  0.5565150000000 1.0
C      1  0.4992400000000  0.4137090000000  0.5466270000000 1.0
C      1  0.5321690000000  0.5319720000000  0.4173880000000 1.0
C      1  0.4686240000000  0.5463120000000  0.4911460000000 1.0
C      1  0.4833310000000  0.5336470000000  0.5127110000000 1.0
C      1  0.5818410000000  0.5905110000000  0.5285490000000 1.0
C      1  0.6199660000000  0.5208530000000  0.5110770000000 1.0
C      1  0.5193310000000  0.5231080000000  0.5623750000000 1.0
C      1  0.5154670000000  0.5307320000000  0.6298620000000 1.0
C      1  0.4609560000000  0.4138260000000  0.4592220000000 1.0
C      1  0.4047040000000  0.4831500000000  0.4902040000000 1.0
C      1  0.5374680000000  0.4888410000000  0.5298190000000 1.0
C      1  0.4517870000000  0.5088520000000  0.3857320000000 1.0
C      1  0.6021720000000  0.5211840000000  0.4400420000000 1.0
C      1  0.4812760000000  0.4836370000000  0.4580740000000 1.0
C      1  0.4481140000000  0.4893360000000  0.5841510000000 1.0
C      1  0.4902170000000  0.4461870000000  0.4897710000000 1.0
C      1  0.4948150000000  0.3856840000000  0.4845050000000 1.0
C      1  0.6018270000000  0.5316430000000  0.4873940000000 1.0
C      1  0.6046010000000  0.4720510000000  0.5233530000000 1.0
C      1  0.5039820000000  0.4606600000000  0.5110440000000 1.0
C      1  0.4522670000000  0.4342000000000  0.5429800000000 1.0
C      1  0.6073170000000  0.4440480000000  0.5146780000000 1.0
C      1  0.5581390000000  0.5368370000000  0.4627120000000 1.0
C      1  0.4732610000000  0.4920740000000  0.5392400000000 1.0
C      1  0.5297880000000  0.5647080000000  0.5005900000000 1.0
C      1  0.5892590000000  0.5451790000000  0.5417550000000 1.0
C      1  0.4359370000000  0.4821200000000  0.3921970000000 1.0
C      1  0.4504790000000  0.4801630000000  0.5221300000000 1.0
C      1  0.5064940000000  0.5870650000000  0.5398630000000 1.0
C      1  0.4933780000000  0.6051940000000  0.4444680000000 1.0
C      1  0.5445540000000  0.4598820000000  0.5240890000000 1.0
C      1  0.5550220000000  0.4508310000000  0.3971310000000 1.0
C      1  0.4813750000000  0.4493140000000  0.6059210000000 1.0
C      1  0.4602470000000  0.5702220000000  0.5986230000000 1.0
C      1  0.4187210000000  0.5223600000000  0.4338170000000 1.0
C      1  0.5169900000000  0.4231250000000  0.5246740000000 1.0
C      1  0.5395350000000  0.5231930000000  0.4447220000000 1.0
C      1  0.5579340000000  0.4614550000000  0.4979680000000 1.0
C      1  0.5206520000000  0.5586600000000  0.4153000000000 1.0
C      1  0.4055420000000  0.5211590000000  0.4594650000000 1.0
C      1  0.5310210000000  0.5822520000000  0.5242340000000 1.0
C      1  0.5559340000000  0.4791400000000  0.4406840000000 1.0
C      1  0.4670110000000  0.5293540000000  0.4665680000000 1.0
C      1  0.4171230000000  0.4096460000000  0.5712140000000 1.0
C      1  0.4002820000000  0.4199640000000  0.4889500000000 1.0
C      1  0.5078790000000  0.4111450000000  0.4455650000000 1.0
C      1  0.5146790000000  0.5878630000000  0.4556680000000 1.0
C      1  0.4255140000000  0.4955750000000  0.5244980000000 1.0
C      1  0.5167540000000  0.5119730000000  0.4017120000000 1.0
C      1  0.5096640000000  0.5712880000000  0.4798030000000 1.0
C      1  0.5502500000000  0.4394460000000  0.5444410000000 1.0
C      1  0.4341440000000  0.4752240000000  0.4220480000000 1.0
C      1  0.4486520000000  0.5902160000000  0.5112690000000 1.0
C      1  0.5248620000000  0.3917820000000  0.4864290000000 1.0
C      1  0.4892570000000  0.5289330000000  0.4464300000000 1.0
C      1  0.5395850000000  0.4625290000000  0.5899390000000 1.0
C      1  0.4965270000000  0.4870780000000  0.5206830000000 1.0
C      1  0.5602130000000  0.4082330000000  0.4515680000000 1.0
C      1  0.4654400000000  0.5092060000000  0.4127770000000 1.0
C      1  0.4300540000000  0.3962890000000  0.5237790000000 1.0
C      1  0.5325920000000  0.4033090000000  0.4602270000000 1.0
C      1  0.4880200000000  0.3885900000000  0.5348670000000 1.0
C      1  0.5942510000000  0.5820170000000  0.5034720000000 1.0
C      1  0.4780760000000  0.4329730000000  0.5566130000000 1.0
C      1  0.5221570000000  0.4964440000000  0.5528260000000 1.0
C      1  0.4933660000000  0.4971900000000  0.4136300000000 1.0
C      1  0.4871460000000  0.4552010000000  0.5765830000000 1.0
C      1  0.6144000000000  0.5322450000000  0.5366930000000 1.0
C      1  0.4357940000000  0.5914610000000  0.4510570000000 1.0
C      1  0.5725180000000  0.4955390000000  0.5593500000000 1.0
C      1  0.3996170000000  0.5621630000000  0.4708110000000 1.0
C      1  0.5182940000000  0.4483460000000  0.5755640000000 1.0
C      1  0.5846830000000  0.5417810000000  0.4504170000000 1.0
C      1  0.5207490000000  0.4200390000000  0.5671600000000 1.0
C      1  0.4899820000000  0.6099400000000  0.5336760000000 1.0
C      1  0.5648610000000  0.5344800000000  0.5283150000000 1.0
C      1  0.5004090000000  0.4388650000000  0.4396280000000 1.0
END
