TITL C-862503-991-521 0.501797281187035 125000 -695.420446446771 0 0 125 (C1) n - 1
REM
REM in /home/nfs/bkarasulu/CARBON/AIRSS/Generating-Clusters/TERSOFF/Higher-Symm/FIRE-HFTN
REM
REM
REM
REM
REM
REM ./C.cell (b20cbc046b6831c77cfcea5457e17084)
REM AIRSS Version 0.9.1 bugfix July 2018 build 013d7b7c2542+ Fri, 06 Jul 2018 19:26:36 +0100
REM compiler GCC version 9.2.1 20190827 (Red Hat 9.2.1-1)
REM options -cpp -mtune=generic -march=x86-64 -g -O0 -fpre-include=/usr/include/finclude/math-vector-fortran.h
REM seed -778647192 -877783363 -1322564374 1173932060 254207220 -1413042381 -1484477273 -115936394 -935035844 -1057142745 -85155970 130741165 -94540665 -1292913398 -108853873 1387274206 178889424 64491444 -1305857108 1073217143 1890580258 724728022 -1881117542 -1783639615 -1748876809 1611278757 2047487600 636850117 -1507690326 1933634721 -1937968523 -2025245390 875971032
REM
CELL 1.54180   50.00000   50.00000   50.00000   90.00000   90.00000   90.00000
LATT -1
SFAC C  
C      1  0.4884570000000  0.4225780000000  0.5442540000000 1.0
C      1  0.5030510000000  0.3986990000000  0.5362820000000 1.0
C      1  0.4367210000000  0.5485630000000  0.5084220000000 1.0
C      1  0.4622050000000  0.4420660000000  0.4716890000000 1.0
C      1  0.4131790000000  0.4993880000000  0.4664440000000 1.0
C      1  0.5876110000000  0.5327140000000  0.5352550000000 1.0
C      1  0.4249730000000  0.5098780000000  0.5422590000000 1.0
C      1  0.5783740000000  0.4701850000000  0.4735710000000 1.0
C      1  0.4743540000000  0.4458990000000  0.4439940000000 1.0
C      1  0.5750400000000  0.5692570000000  0.5020530000000 1.0
C      1  0.5075690000000  0.5465190000000  0.4166560000000 1.0
C      1  0.4539010000000  0.4705210000000  0.5852710000000 1.0
C      1  0.4536420000000  0.5255980000000  0.4167360000000 1.0
C      1  0.5288360000000  0.4390380000000  0.5715670000000 1.0
C      1  0.5175010000000  0.5313410000000  0.4545350000000 1.0
C      1  0.5355060000000  0.5671130000000  0.5242570000000 1.0
C      1  0.5822130000000  0.5076660000000  0.5197110000000 1.0
C      1  0.5188780000000  0.5174060000000  0.4149630000000 1.0
C      1  0.4535190000000  0.4716360000000  0.5358410000000 1.0
C      1  0.5050850000000  0.5781620000000  0.4974970000000 1.0
C      1  0.4050130000000  0.5073670000000  0.4947870000000 1.0
C      1  0.4996460000000  0.4962080000000  0.4984060000000 1.0
C      1  0.4304960000000  0.4726820000000  0.4305510000000 1.0
C      1  0.5204130000000  0.5370960000000  0.5884330000000 1.0
C      1  0.4785760000000  0.5962900000000  0.4704490000000 1.0
C      1  0.5151930000000  0.4725470000000  0.4590530000000 1.0
C      1  0.4389580000000  0.5688720000000  0.4876320000000 1.0
C      1  0.5342970000000  0.5709140000000  0.5542660000000 1.0
C      1  0.4581280000000  0.4139120000000  0.5025560000000 1.0
C      1  0.5139490000000  0.4500340000000  0.5016230000000 1.0
C      1  0.4825360000000  0.4566520000000  0.4042340000000 1.0
C      1  0.5702210000000  0.5453510000000  0.5804250000000 1.0
C      1  0.4136590000000  0.4546160000000  0.5144250000000 1.0
C      1  0.5697290000000  0.5143130000000  0.4591140000000 1.0
C      1  0.5567500000000  0.4682440000000  0.4955040000000 1.0
C      1  0.3821440000000  0.4925110000000  0.5054400000000 1.0
C      1  0.5036220000000  0.4485640000000  0.4460400000000 1.0
C      1  0.5177160000000  0.4226630000000  0.4536570000000 1.0
C      1  0.5251690000000  0.4901110000000  0.5521580000000 1.0
C      1  0.4892010000000  0.5351420000000  0.5515330000000 1.0
C      1  0.5328800000000  0.5026330000000  0.4922050000000 1.0
C      1  0.5762940000000  0.5581650000000  0.5287330000000 1.0
C      1  0.5492430000000  0.5101600000000  0.5150530000000 1.0
C      1  0.5447360000000  0.4329690000000  0.4668050000000 1.0
C      1  0.4711230000000  0.5130030000000  0.5517700000000 1.0
C      1  0.5016660000000  0.4737420000000  0.5481290000000 1.0
C      1  0.5228150000000  0.5977420000000  0.5594460000000 1.0
C      1  0.5612990000000  0.4561610000000  0.4506140000000 1.0
C      1  0.4388790000000  0.5390580000000  0.5581310000000 1.0
C      1  0.5319560000000  0.4580010000000  0.4807940000000 1.0
C      1  0.5289490000000  0.4441040000000  0.5248810000000 1.0
C      1  0.4656250000000  0.4592470000000  0.4945880000000 1.0
C      1  0.3867650000000  0.4655350000000  0.5145550000000 1.0
C      1  0.4921280000000  0.4044400000000  0.4614560000000 1.0
C      1  0.6052500000000  0.4849610000000  0.5199390000000 1.0
C      1  0.5113190000000  0.5486470000000  0.5046450000000 1.0
C      1  0.4273080000000  0.5083940000000  0.4345010000000 1.0
C      1  0.5742350000000  0.4334660000000  0.5112720000000 1.0
C      1  0.5508320000000  0.5533790000000  0.4324170000000 1.0
C      1  0.5545290000000  0.4336170000000  0.5563550000000 1.0
C      1  0.4609160000000  0.5659280000000  0.5477110000000 1.0
C      1  0.4408600000000  0.5558340000000  0.4601080000000 1.0
C      1  0.4721090000000  0.4150870000000  0.4410620000000 1.0
C      1  0.5423830000000  0.5513320000000  0.5749770000000 1.0
C      1  0.5714540000000  0.5474170000000  0.4570490000000 1.0
C      1  0.5260560000000  0.4984530000000  0.4425480000000 1.0
C      1  0.4673530000000  0.5897650000000  0.5247770000000 1.0
C      1  0.4505950000000  0.5241990000000  0.5866380000000 1.0
C      1  0.4179450000000  0.4860950000000  0.5578480000000 1.0
C      1  0.5414040000000  0.4152820000000  0.5328060000000 1.0
C      1  0.4919540000000  0.4682690000000  0.5019360000000 1.0
C      1  0.4954270000000  0.5461720000000  0.5772470000000 1.0
C      1  0.4652480000000  0.5519440000000  0.4361420000000 1.0
C      1  0.4894340000000  0.5376200000000  0.4534730000000 1.0
C      1  0.4612510000000  0.4248870000000  0.5319120000000 1.0
C      1  0.4831800000000  0.4000560000000  0.4900280000000 1.0
C      1  0.4991650000000  0.4999220000000  0.4005480000000 1.0
C      1  0.5304450000000  0.5428600000000  0.4804090000000 1.0
C      1  0.5440370000000  0.5907390000000  0.4835950000000 1.0
C      1  0.5457820000000  0.4736920000000  0.4303260000000 1.0
C      1  0.4313630000000  0.4138950000000  0.4884670000000 1.0
C      1  0.4834100000000  0.5457870000000  0.4818230000000 1.0
C      1  0.4250020000000  0.4255100000000  0.4614210000000 1.0
C      1  0.5696100000000  0.4854080000000  0.5421520000000 1.0
C      1  0.4539790000000  0.5305760000000  0.4746300000000 1.0
C      1  0.5666150000000  0.4954880000000  0.5712570000000 1.0
C      1  0.4806240000000  0.5158290000000  0.5109740000000 1.0
C      1  0.4300200000000  0.5040740000000  0.5126860000000 1.0
C      1  0.5818470000000  0.5192100000000  0.5781610000000 1.0
C      1  0.5185970000000  0.5690540000000  0.4361440000000 1.0
C      1  0.4954500000000  0.5969640000000  0.5164850000000 1.0
C      1  0.4237700000000  0.5523710000000  0.5336750000000 1.0
C      1  0.4329480000000  0.4759460000000  0.4742540000000 1.0
C      1  0.4603760000000  0.4822340000000  0.4595930000000 1.0
C      1  0.5171850000000  0.6106460000000  0.5324570000000 1.0
C      1  0.4937770000000  0.4968600000000  0.6048840000000 1.0
C      1  0.5437220000000  0.4893880000000  0.5898180000000 1.0
C      1  0.4211510000000  0.4544790000000  0.4558800000000 1.0
C      1  0.5397760000000  0.5959870000000  0.5130450000000 1.0
C      1  0.5916380000000  0.4961730000000  0.4687250000000 1.0
C      1  0.5014260000000  0.3884490000000  0.5094850000000 1.0
C      1  0.5464910000000  0.5311990000000  0.4128770000000 1.0
C      1  0.4859150000000  0.5786440000000  0.4457800000000 1.0
C      1  0.4378740000000  0.4636820000000  0.5607860000000 1.0
C      1  0.5336420000000  0.4627820000000  0.4057270000000 1.0
C      1  0.4514010000000  0.5223780000000  0.5033920000000 1.0
C      1  0.5955000000000  0.5414590000000  0.4781580000000 1.0
C      1  0.5199960000000  0.5077690000000  0.5948310000000 1.0
C      1  0.5602860000000  0.4578300000000  0.5298930000000 1.0
C      1  0.4383760000000  0.4346140000000  0.5485990000000 1.0
C      1  0.4618880000000  0.4696210000000  0.4259010000000 1.0
C      1  0.5316690000000  0.5136900000000  0.5371150000000 1.0
C      1  0.4589880000000  0.5883160000000  0.4935340000000 1.0
C      1  0.4523140000000  0.5096130000000  0.4553470000000 1.0
C      1  0.5030540000000  0.4453690000000  0.5578940000000 1.0
C      1  0.5606180000000  0.4192970000000  0.4885730000000 1.0
C      1  0.4668610000000  0.4972670000000  0.5904610000000 1.0
C      1  0.5974290000000  0.5146510000000  0.4912810000000 1.0
C      1  0.5544980000000  0.5612430000000  0.4789230000000 1.0
C      1  0.5448280000000  0.5015710000000  0.4656070000000 1.0
C      1  0.4712690000000  0.4996170000000  0.4121280000000 1.0
C      1  0.5070840000000  0.4713490000000  0.3962010000000 1.0
C      1  0.4767280000000  0.4869050000000  0.5411700000000 1.0
C      1  0.5115030000000  0.5337820000000  0.5329480000000 1.0
C      1  0.4386440000000  0.4717320000000  0.5078850000000 1.0
END
