TITL C-862133-5440-1153 0.526645330593366 125000 -1151.65548294151 0 0 192 (C3i) n - 1
REM
REM in /home/nfs/bkarasulu/CARBON/AIRSS/Generating-Clusters/TERSOFF/Higher-Symm/FIRE-HFTN
REM
REM
REM
REM
REM
REM ./C.cell (b20cbc046b6831c77cfcea5457e17084)
REM AIRSS Version 0.9.1 bugfix July 2018 build 013d7b7c2542+ Fri, 06 Jul 2018 19:26:36 +0100
REM compiler GCC version 9.2.1 20190827 (Red Hat 9.2.1-1)
REM options -cpp -mtune=generic -march=x86-64 -g -O0 -fpre-include=/usr/include/finclude/math-vector-fortran.h
REM seed -386655618 -2086347701 170814037 1929864420 1415944362 1085548005 1511181833 -78615937 -70540 -1855827595 -1471010862 849945310 1794866959 2114550094 1979732613 131176348 -2051520986 -724754786 -1916741671 -1970623604 1583504070 -819130224 1826945385 808931663 -194715523 795310642 -113638293 -898606087 1061707117 263614379 -1613723034 -1871587173 -795460302
REM
CELL 1.54180   50.00000   50.00000   50.00000   90.00000   90.00000   90.00000
LATT -1
SFAC C  
C      1  0.4172660000000  0.4034050000000  0.4472560000000 1.0
C      1  0.5425900000000  0.3800520000000  0.4473210000000 1.0
C      1  0.6250210000000  0.4766470000000  0.4472560000000 1.0
C      1  0.5825830000000  0.5968580000000  0.4473210000000 1.0
C      1  0.4577140000000  0.6199470000000  0.4472560000000 1.0
C      1  0.3748270000000  0.5230900000000  0.4473210000000 1.0
C      1  0.4174170000000  0.4031420000000  0.5526790000000 1.0
C      1  0.5422860000000  0.3800530000000  0.5527440000000 1.0
C      1  0.6251730000000  0.4769100000000  0.5526790000000 1.0
C      1  0.5827340000000  0.5965950000000  0.5527440000000 1.0
C      1  0.4574100000000  0.6199480000000  0.5526790000000 1.0
C      1  0.3749790000000  0.5233530000000  0.5527440000000 1.0
C      1  0.4918720000000  0.5298570000000  0.3833940000000 1.0
C      1  0.4704690000000  0.5077900000000  0.3861860000000 1.0
C      1  0.4782070000000  0.4780320000000  0.3833940000000 1.0
C      1  0.5080200000000  0.4705300000000  0.3861860000000 1.0
C      1  0.5299210000000  0.4921110000000  0.3833940000000 1.0
C      1  0.5215120000000  0.5216800000000  0.3861860000000 1.0
C      1  0.4919800000000  0.5294700000000  0.6138140000000 1.0
C      1  0.4700790000000  0.5078890000000  0.6166060000000 1.0
C      1  0.4784880000000  0.4783200000000  0.6138140000000 1.0
C      1  0.5081280000000  0.4701430000000  0.6166060000000 1.0
C      1  0.5295310000000  0.4922100000000  0.6138140000000 1.0
C      1  0.5217930000000  0.5219680000000  0.6166060000000 1.0
C      1  0.5392090000000  0.4404000000000  0.5529410000000 1.0
C      1  0.5712890000000  0.5044930000000  0.5523190000000 1.0
C      1  0.5320110000000  0.5637560000000  0.5529410000000 1.0
C      1  0.4604640000000  0.5594920000000  0.5523190000000 1.0
C      1  0.4287800000000  0.4958440000000  0.5529410000000 1.0
C      1  0.4682460000000  0.4360150000000  0.5523190000000 1.0
C      1  0.5395360000000  0.4405080000000  0.4476810000000 1.0
C      1  0.5712200000000  0.5041560000000  0.4470590000000 1.0
C      1  0.5317540000000  0.5639850000000  0.4476810000000 1.0
C      1  0.4607910000000  0.5596000000000  0.4470590000000 1.0
C      1  0.4287110000000  0.4955070000000  0.4476810000000 1.0
C      1  0.4679890000000  0.4362440000000  0.4470590000000 1.0
C      1  0.4896110000000  0.5822780000000  0.4125520000000 1.0
C      1  0.4234090000000  0.5317410000000  0.4131880000000 1.0
C      1  0.4339390000000  0.4498630000000  0.4125520000000 1.0
C      1  0.5108070000000  0.4177990000000  0.4131880000000 1.0
C      1  0.5764500000000  0.4678580000000  0.4125520000000 1.0
C      1  0.5657840000000  0.5504590000000  0.4131880000000 1.0
C      1  0.4891930000000  0.5822010000000  0.5868120000000 1.0
C      1  0.4235500000000  0.5321420000000  0.5874480000000 1.0
C      1  0.4342160000000  0.4495410000000  0.5868120000000 1.0
C      1  0.5103890000000  0.4177220000000  0.5874480000000 1.0
C      1  0.5765910000000  0.4682590000000  0.5868120000000 1.0
C      1  0.5660610000000  0.5501370000000  0.5874480000000 1.0
C      1  0.4364480000000  0.4309800000000  0.3905760000000 1.0
C      1  0.5290310000000  0.4104740000000  0.3917380000000 1.0
C      1  0.5915490000000  0.4794720000000  0.3905760000000 1.0
C      1  0.5630160000000  0.5699050000000  0.3917380000000 1.0
C      1  0.4720030000000  0.5895470000000  0.3905760000000 1.0
C      1  0.4079530000000  0.5196210000000  0.3917380000000 1.0
C      1  0.4369840000000  0.4300950000000  0.6082620000000 1.0
C      1  0.5279970000000  0.4104530000000  0.6094240000000 1.0
C      1  0.5920470000000  0.4803790000000  0.6082620000000 1.0
C      1  0.5635520000000  0.5690200000000  0.6094240000000 1.0
C      1  0.4709690000000  0.5895260000000  0.6082620000000 1.0
C      1  0.4084510000000  0.5205280000000  0.6094240000000 1.0
C      1  0.4560630000000  0.5421000000000  0.5287150000000 1.0
C      1  0.4416890000000  0.4831050000000  0.5293660000000 1.0
C      1  0.4855080000000  0.4409000000000  0.5287150000000 1.0
C      1  0.5437870000000  0.4579480000000  0.5293660000000 1.0
C      1  0.5584280000000  0.5170000000000  0.5287150000000 1.0
C      1  0.5145240000000  0.5589470000000  0.5293660000000 1.0
C      1  0.4562130000000  0.5420520000000  0.4706340000000 1.0
C      1  0.4415720000000  0.4830000000000  0.4712850000000 1.0
C      1  0.4854760000000  0.4410530000000  0.4706340000000 1.0
C      1  0.5439370000000  0.4579000000000  0.4712850000000 1.0
C      1  0.5583110000000  0.5168950000000  0.4706340000000 1.0
C      1  0.5144920000000  0.5591000000000  0.4712850000000 1.0
C      1  0.5319730000000  0.4916110000000  0.4176010000000 1.0
C      1  0.5232350000000  0.5234960000000  0.4187250000000 1.0
C      1  0.4912780000000  0.5318840000000  0.4176010000000 1.0
C      1  0.4680340000000  0.5083740000000  0.4187250000000 1.0
C      1  0.4767490000000  0.4765050000000  0.4176010000000 1.0
C      1  0.5087310000000  0.4681300000000  0.4187250000000 1.0
C      1  0.5319660000000  0.4916260000000  0.5812750000000 1.0
C      1  0.5232510000000  0.5234950000000  0.5823990000000 1.0
C      1  0.4912690000000  0.5318700000000  0.5812750000000 1.0
C      1  0.4680270000000  0.5083890000000  0.5823990000000 1.0
C      1  0.4767650000000  0.4765040000000  0.5812750000000 1.0
C      1  0.5087220000000  0.4681160000000  0.5823990000000 1.0
C      1  0.5915540000000  0.5382270000000  0.4184150000000 1.0
C      1  0.5127720000000  0.5986210000000  0.4185730000000 1.0
C      1  0.4211170000000  0.5601740000000  0.4184150000000 1.0
C      1  0.4082060000000  0.4617510000000  0.4185730000000 1.0
C      1  0.4873290000000  0.4015980000000  0.4184150000000 1.0
C      1  0.5790220000000  0.4396280000000  0.4185730000000 1.0
C      1  0.5917940000000  0.5382490000000  0.5814270000000 1.0
C      1  0.5126710000000  0.5984020000000  0.5815850000000 1.0
C      1  0.4209780000000  0.5603720000000  0.5814270000000 1.0
C      1  0.4084460000000  0.4617730000000  0.5815850000000 1.0
C      1  0.4872280000000  0.4013790000000  0.5814270000000 1.0
C      1  0.5788830000000  0.4398260000000  0.5815850000000 1.0
C      1  0.4898800000000  0.3674760000000  0.4853470000000 1.0
C      1  0.6098400000000  0.4250960000000  0.4861090000000 1.0
C      1  0.6198290000000  0.5574980000000  0.4853470000000 1.0
C      1  0.5099490000000  0.6325770000000  0.4861090000000 1.0
C      1  0.3902910000000  0.5750260000000  0.4853470000000 1.0
C      1  0.3802110000000  0.4423280000000  0.4861090000000 1.0
C      1  0.4900510000000  0.3674230000000  0.5138910000000 1.0
C      1  0.6097090000000  0.4249740000000  0.5146530000000 1.0
C      1  0.6197890000000  0.5576720000000  0.5138910000000 1.0
C      1  0.5101200000000  0.6325240000000  0.5146530000000 1.0
C      1  0.3901600000000  0.5749040000000  0.5138910000000 1.0
C      1  0.3801710000000  0.4425020000000  0.5146530000000 1.0
C      1  0.5420860000000  0.5430910000000  0.5711900000000 1.0
C      1  0.4835930000000  0.5579650000000  0.5702560000000 1.0
C      1  0.4416390000000  0.5149020000000  0.5711900000000 1.0
C      1  0.4580040000000  0.4568080000000  0.5702560000000 1.0
C      1  0.5162740000000  0.4420070000000  0.5711900000000 1.0
C      1  0.5584030000000  0.4852260000000  0.5702560000000 1.0
C      1  0.5419960000000  0.5431920000000  0.4297440000000 1.0
C      1  0.4837260000000  0.5579930000000  0.4288100000000 1.0
C      1  0.4415970000000  0.5147740000000  0.4297440000000 1.0
C      1  0.4579140000000  0.4569090000000  0.4288100000000 1.0
C      1  0.5164070000000  0.4420350000000  0.4297440000000 1.0
C      1  0.5583610000000  0.4850980000000  0.4288100000000 1.0
C      1  0.4952830000000  0.4171710000000  0.4848780000000 1.0
C      1  0.5694330000000  0.4545310000000  0.4856170000000 1.0
C      1  0.5740900000000  0.5373300000000  0.4848780000000 1.0
C      1  0.5046610000000  0.5828650000000  0.4856170000000 1.0
C      1  0.4306260000000  0.5454990000000  0.4848780000000 1.0
C      1  0.4259060000000  0.4626040000000  0.4856170000000 1.0
C      1  0.4953390000000  0.4171350000000  0.5143830000000 1.0
C      1  0.5693740000000  0.4545010000000  0.5151220000000 1.0
C      1  0.5740940000000  0.5373960000000  0.5143830000000 1.0
C      1  0.5047170000000  0.5828290000000  0.5151220000000 1.0
C      1  0.4305670000000  0.5454690000000  0.5143830000000 1.0
C      1  0.4259100000000  0.4626700000000  0.5151220000000 1.0
C      1  0.5620290000000  0.4257850000000  0.5632010000000 1.0
C      1  0.5953760000000  0.5169280000000  0.5626390000000 1.0
C      1  0.5332580000000  0.5908260000000  0.5632010000000 1.0
C      1  0.4376510000000  0.5741340000000  0.5626390000000 1.0
C      1  0.4047140000000  0.4833890000000  0.5632010000000 1.0
C      1  0.4669720000000  0.4089380000000  0.5626390000000 1.0
C      1  0.5623490000000  0.4258660000000  0.4373610000000 1.0
C      1  0.5952860000000  0.5166110000000  0.4367990000000 1.0
C      1  0.5330280000000  0.5910620000000  0.4373610000000 1.0
C      1  0.4379710000000  0.5742150000000  0.4367990000000 1.0
C      1  0.4046240000000  0.4830720000000  0.4373610000000 1.0
C      1  0.4667420000000  0.4091740000000  0.4367990000000 1.0
C      1  0.5644350000000  0.3973950000000  0.5587770000000 1.0
C      1  0.6211550000000  0.5048830000000  0.5579780000000 1.0
C      1  0.5566410000000  0.6071050000000  0.5587770000000 1.0
C      1  0.4351940000000  0.6024820000000  0.5579780000000 1.0
C      1  0.3789240000000  0.4955000000000  0.5587770000000 1.0
C      1  0.4436510000000  0.3926360000000  0.5579780000000 1.0
C      1  0.5648060000000  0.3975180000000  0.4420220000000 1.0
C      1  0.6210760000000  0.5045000000000  0.4412230000000 1.0
C      1  0.5563490000000  0.6073640000000  0.4420220000000 1.0
C      1  0.4355650000000  0.6026050000000  0.4412230000000 1.0
C      1  0.3788450000000  0.4951170000000  0.4420220000000 1.0
C      1  0.4433590000000  0.3928950000000  0.4412230000000 1.0
C      1  0.4983350000000  0.3910470000000  0.4708220000000 1.0
C      1  0.5936140000000  0.4441740000000  0.4716020000000 1.0
C      1  0.5951880000000  0.5530340000000  0.4708220000000 1.0
C      1  0.5015390000000  0.6089850000000  0.4716020000000 1.0
C      1  0.4064770000000  0.5559180000000  0.4708220000000 1.0
C      1  0.4048460000000  0.4468400000000  0.4716020000000 1.0
C      1  0.4984610000000  0.3910150000000  0.5283980000000 1.0
C      1  0.5935230000000  0.4440820000000  0.5291780000000 1.0
C      1  0.5951540000000  0.5531600000000  0.5283980000000 1.0
C      1  0.5016650000000  0.6089530000000  0.5291780000000 1.0
C      1  0.4063860000000  0.5558260000000  0.5283980000000 1.0
C      1  0.4048120000000  0.4469660000000  0.5291780000000 1.0
C      1  0.4107010000000  0.4312770000000  0.5527990000000 1.0
C      1  0.5145730000000  0.3883770000000  0.5523260000000 1.0
C      1  0.6041650000000  0.4570260000000  0.5527990000000 1.0
C      1  0.5893810000000  0.5684320000000  0.5523260000000 1.0
C      1  0.4851340000000  0.6116970000000  0.5527990000000 1.0
C      1  0.3960450000000  0.5431910000000  0.5523260000000 1.0
C      1  0.4106190000000  0.4315680000000  0.4476740000000 1.0
C      1  0.5148660000000  0.3883030000000  0.4472010000000 1.0
C      1  0.6039550000000  0.4568090000000  0.4476740000000 1.0
C      1  0.5892990000000  0.5687230000000  0.4472010000000 1.0
C      1  0.4854270000000  0.6116230000000  0.4476740000000 1.0
C      1  0.3958350000000  0.5429740000000  0.4472010000000 1.0
C      1  0.5317490000000  0.5085720000000  0.5171990000000 1.0
C      1  0.5084690000000  0.5317380000000  0.5175670000000 1.0
C      1  0.4767020000000  0.5232100000000  0.5171990000000 1.0
C      1  0.4682790000000  0.4914650000000  0.5175670000000 1.0
C      1  0.4915490000000  0.4682180000000  0.5171990000000 1.0
C      1  0.5232510000000  0.4767960000000  0.5175670000000 1.0
C      1  0.5317210000000  0.5085350000000  0.4824330000000 1.0
C      1  0.5084510000000  0.5317820000000  0.4828010000000 1.0
C      1  0.4767490000000  0.5232040000000  0.4824330000000 1.0
C      1  0.4682510000000  0.4914280000000  0.4828010000000 1.0
C      1  0.4915310000000  0.4682620000000  0.4824330000000 1.0
C      1  0.5232980000000  0.4767900000000  0.4828010000000 1.0
END
