TITL C-862501-1041-1263 1.4649881392644e-08 125000 -716.342646007245 0 0 140 (C3i) n - 1
REM
REM in /home/nfs/bkarasulu/CARBON/AIRSS/Generating-Clusters/TERSOFF/Higher-Symm/FIRE-HFTN
REM
REM
REM
REM
REM
REM ./C.cell (b20cbc046b6831c77cfcea5457e17084)
REM AIRSS Version 0.9.1 bugfix July 2018 build 013d7b7c2542+ Fri, 06 Jul 2018 19:26:36 +0100
REM compiler GCC version 9.2.1 20190827 (Red Hat 9.2.1-1)
REM options -cpp -mtune=generic -march=x86-64 -g -O0 -fpre-include=/usr/include/finclude/math-vector-fortran.h
REM seed 2024199634 721274320 1282895277 204578350 -763113978 -1289826423 565926867 146893999 -1534440250 1150948520 -1144337816 2042544433 699876463 1851976441 1615569759 -2076011922 35709176 -675125490 1034916388 35976407 -171573829 -379893218 -955256925 171187364 -698987077 -60711588 -1380568216 -497049815 -390785966 1782335466 1454089923 2026827556 1853522494
REM
CELL 1.54180   50.00000   50.00000   50.00000   90.00000   90.00000   90.00000
LATT -1
SFAC C  
C      1  0.4713940000000  0.4922940000000  0.4814240000000 1.0
C      1  0.4927830000000  0.4712840000000  0.5185750000000 1.0
C      1  0.5216720000000  0.4793030000000  0.4814250000000 1.0
C      1  0.5291720000000  0.5083310000000  0.5185760000000 1.0
C      1  0.5077840000000  0.5293400000000  0.4814250000000 1.0
C      1  0.4788940000000  0.5213220000000  0.5185750000000 1.0
C      1  0.5731010000000  0.4673520000000  0.5701620000000 1.0
C      1  0.5652370000000  0.5468940000000  0.4298380000000 1.0
C      1  0.4924190000000  0.5798550000000  0.5701620000000 1.0
C      1  0.4274660000000  0.5332730000000  0.4298380000000 1.0
C      1  0.4353300000000  0.4537310000000  0.5701620000000 1.0
C      1  0.5081480000000  0.4207700000000  0.4298380000000 1.0
C      1  0.4136900000000  0.4915780000000  0.5235160000000 1.0
C      1  0.4645510000000  0.4209540000000  0.4764840000000 1.0
C      1  0.5511440000000  0.4296880000000  0.5235160000000 1.0
C      1  0.5868760000000  0.5090470000000  0.4764840000000 1.0
C      1  0.5360160000000  0.5796710000000  0.5235160000000 1.0
C      1  0.4494230000000  0.5709370000000  0.4764840000000 1.0
C      1  0.4301670000000  0.5779570000000  0.5006260000000 1.0
C      1  0.3979830000000  0.4784120000000  0.4993740000000 1.0
C      1  0.4680990000000  0.4007670000000  0.5006260000000 1.0
C      1  0.5704000000000  0.4226680000000  0.4993740000000 1.0
C      1  0.6025840000000  0.5222130000000  0.5006260000000 1.0
C      1  0.5324670000000  0.5998570000000  0.4993740000000 1.0
C      1  0.4624320000000  0.5961250000000  0.5203720000000 1.0
C      1  0.3983820000000  0.5154380000000  0.4796280000000 1.0
C      1  0.4362330000000  0.4196260000000  0.5203720000000 1.0
C      1  0.5381350000000  0.4045000000000  0.4796280000000 1.0
C      1  0.6021850000000  0.4851870000000  0.5203720000000 1.0
C      1  0.5643330000000  0.5809990000000  0.4796280000000 1.0
C      1  0.5152850000000  0.5984890000000  0.4694520000000 1.0
C      1  0.4227600000000  0.5623930000000  0.5305480000000 1.0
C      1  0.4077590000000  0.4642160000000  0.4694520000000 1.0
C      1  0.4852820000000  0.4021350000000  0.5305480000000 1.0
C      1  0.5778060000000  0.4382320000000  0.4694520000000 1.0
C      1  0.5928080000000  0.5364090000000  0.5305480000000 1.0
C      1  0.5037610000000  0.5995620000000  0.5514100000000 1.0
C      1  0.4160700000000  0.5529490000000  0.4485900000000 1.0
C      1  0.4125910000000  0.4537000000000  0.5514100000000 1.0
C      1  0.4968050000000  0.4010630000000  0.4485900000000 1.0
C      1  0.5844970000000  0.4476750000000  0.5514100000000 1.0
C      1  0.5879750000000  0.5469250000000  0.4485900000000 1.0
C      1  0.4271010000000  0.5011230000000  0.4740450000000 1.0
C      1  0.4629910000000  0.4373400000000  0.5259550000000 1.0
C      1  0.5361730000000  0.4365300000000  0.4740450000000 1.0
C      1  0.5734650000000  0.4995020000000  0.5259550000000 1.0
C      1  0.5375760000000  0.5632850000000  0.4740450000000 1.0
C      1  0.4643940000000  0.5640950000000  0.5259550000000 1.0
C      1  0.5055530000000  0.4294700000000  0.4884310000000 1.0
C      1  0.5642690000000  0.4694550000000  0.5115690000000 1.0
C      1  0.5589990000000  0.5402970000000  0.4884310000000 1.0
C      1  0.4950130000000  0.5711550000000  0.5115690000000 1.0
C      1  0.4362970000000  0.5311700000000  0.4884310000000 1.0
C      1  0.4415670000000  0.4603270000000  0.5115690000000 1.0
C      1  0.5287740000000  0.4664590000000  0.6030980000000 1.0
C      1  0.5438470000000  0.5080600000000  0.3969020000000 1.0
C      1  0.5153560000000  0.5419130000000  0.6030980000000 1.0
C      1  0.4717920000000  0.5341660000000  0.3969020000000 1.0
C      1  0.4567200000000  0.4925650000000  0.6030980000000 1.0
C      1  0.4852110000000  0.4587120000000  0.3969020000000 1.0
C      1  0.5532300000000  0.5125200000000  0.5787420000000 1.0
C      1  0.5161850000000  0.5522700000000  0.4212580000000 1.0
C      1  0.4632380000000  0.5400620000000  0.5787420000000 1.0
C      1  0.4473360000000  0.4881050000000  0.4212580000000 1.0
C      1  0.4843820000000  0.4483550000000  0.5787420000000 1.0
C      1  0.5373290000000  0.4605630000000  0.4212580000000 1.0
C      1  0.4990650000000  0.5471360000000  0.5789190000000 1.0
C      1  0.4591240000000  0.5226690000000  0.4210810000000 1.0
C      1  0.4603420000000  0.4758450000000  0.5789190000000 1.0
C      1  0.5015020000000  0.4534890000000  0.4210810000000 1.0
C      1  0.5414430000000  0.4779560000000  0.5789190000000 1.0
C      1  0.5402250000000  0.5247790000000  0.4210810000000 1.0
C      1  0.4894170000000  0.4686470000000  0.4445720000000 1.0
C      1  0.5222730000000  0.4750690000000  0.5554280000000 1.0
C      1  0.5331390000000  0.5067350000000  0.4445720000000 1.0
C      1  0.5111490000000  0.5319780000000  0.5554280000000 1.0
C      1  0.4782930000000  0.5255550000000  0.4445720000000 1.0
C      1  0.4674270000000  0.4938900000000  0.5554280000000 1.0
C      1  0.4678820000000  0.5655920000000  0.5577600000000 1.0
C      1  0.4275490000000  0.5048920000000  0.4422400000000 1.0
C      1  0.4599500000000  0.4396130000000  0.5577600000000 1.0
C      1  0.5326840000000  0.4350330000000  0.4422400000000 1.0
C      1  0.5730170000000  0.4957320000000  0.5577600000000 1.0
C      1  0.5406170000000  0.5610120000000  0.4422400000000 1.0
C      1  0.4925410000000  0.4695470000000  0.4863020000000 1.0
C      1  0.5230550000000  0.4782250000000  0.5136980000000 1.0
C      1  0.5307980000000  0.5089900000000  0.4863020000000 1.0
C      1  0.5080260000000  0.5310770000000  0.5136980000000 1.0
C      1  0.4775110000000  0.5224000000000  0.4863020000000 1.0
C      1  0.4697690000000  0.4916350000000  0.5136980000000 1.0
C      1  0.4352610000000  0.4343640000000  0.4360010000000 1.0
C      1  0.5248850000000  0.4110270000000  0.5639990000000 1.0
C      1  0.5899080000000  0.4769750000000  0.4360010000000 1.0
C      1  0.5653060000000  0.5662610000000  0.5639990000000 1.0
C      1  0.4756810000000  0.5895980000000  0.4360010000000 1.0
C      1  0.4106590000000  0.5236490000000  0.5639990000000 1.0
C      1  0.4584460000000  0.4733750000000  0.4586960000000 1.0
C      1  0.5026930000000  0.4506120000000  0.5413040000000 1.0
C      1  0.5445300000000  0.4775490000000  0.4586970000000 1.0
C      1  0.5421200000000  0.5272500000000  0.5413040000000 1.0
C      1  0.4978730000000  0.5500130000000  0.4586960000000 1.0
C      1  0.4560360000000  0.5230760000000  0.5413030000000 1.0
C      1  0.4944060000000  0.4294570000000  0.5165160000000 1.0
C      1  0.5587080000000  0.4597950000000  0.4834840000000 1.0
C      1  0.5645850000000  0.5306500000000  0.5165160000000 1.0
C      1  0.5061610000000  0.5711680000000  0.4834840000000 1.0
C      1  0.4418590000000  0.5408300000000  0.5165160000000 1.0
C      1  0.4359820000000  0.4699740000000  0.4834840000000 1.0
C      1  0.4981450000000  0.4221780000000  0.5576810000000 1.0
C      1  0.5668800000000  0.4593940000000  0.4423190000000 1.0
C      1  0.5690180000000  0.5375280000000  0.5576810000000 1.0
C      1  0.5024210000000  0.5784460000000  0.4423190000000 1.0
C      1  0.4336860000000  0.5412310000000  0.5576810000000 1.0
C      1  0.4315480000000  0.4630970000000  0.4423190000000 1.0
C      1  0.5071390000000  0.3994760000000  0.4762260000000 1.0
C      1  0.5910380000000  0.4558320000000  0.5237740000000 1.0
C      1  0.5841820000000  0.5566680000000  0.4762260000000 1.0
C      1  0.4934270000000  0.6011480000000  0.5237740000000 1.0
C      1  0.4095290000000  0.5447930000000  0.4762260000000 1.0
C      1  0.4163850000000  0.4439570000000  0.5237740000000 1.0
C      1  0.5467230000000  0.4099940000000  0.5448660000000 1.0
C      1  0.6017210000000  0.4953710000000  0.4551340000000 1.0
C      1  0.5552810000000  0.5856900000000  0.5448660000000 1.0
C      1  0.4538430000000  0.5906310000000  0.4551340000000 1.0
C      1  0.3988450000000  0.5052540000000  0.5448660000000 1.0
C      1  0.4452850000000  0.4149350000000  0.4551340000000 1.0
C      1  0.5030890000000  0.4517550000000  0.6032840000000 1.0
C      1  0.5437390000000  0.4784640000000  0.3967160000000 1.0
C      1  0.5409320000000  0.5270220000000  0.6032840000000 1.0
C      1  0.4974770000000  0.5488700000000  0.3967160000000 1.0
C      1  0.4568280000000  0.5221610000000  0.6032840000000 1.0
C      1  0.4596340000000  0.4736030000000  0.3967160000000 1.0
C      1  0.5564950000000  0.5156820000000  0.4711640000000 1.0
C      1  0.5150780000000  0.5566780000000  0.5288360000000 1.0
C      1  0.4588670000000  0.5413080000000  0.4711640000000 1.0
C      1  0.4440720000000  0.4849420000000  0.5288360000000 1.0
C      1  0.4854880000000  0.4439470000000  0.4711640000000 1.0
C      1  0.5417000000000  0.4593170000000  0.5288360000000 1.0
C      1  0.5002830000000  0.5003120000000  0.4465460000000 1.0
C      1  0.5002830000000  0.5003120000000  0.5534540000000 1.0
END
