TITL C-862128-1543-285 48.498284027818 125000 -1131.20000598406 0 0 189 (C1) n - 1
REM
REM in /home/nfs/bkarasulu/CARBON/AIRSS/Generating-Clusters/TERSOFF/Higher-Symm/FIRE-HFTN
REM
REM
REM
REM
REM
REM ./C.cell (b20cbc046b6831c77cfcea5457e17084)
REM AIRSS Version 0.9.1 bugfix July 2018 build 013d7b7c2542+ Fri, 06 Jul 2018 19:26:36 +0100
REM compiler GCC version 9.2.1 20190827 (Red Hat 9.2.1-1)
REM options -cpp -mtune=generic -march=x86-64 -g -O0 -fpre-include=/usr/include/finclude/math-vector-fortran.h
REM seed -8237798 -908312129 1567365731 172347701 203947819 -1489717518 -816851637 467157705 -1359149919 -601644694 1937559614 1135924384 1148019790 -900721362 -1955296198 605806835 -1736643793 -320401645 -1595791539 977147846 1867482745 285283545 1886839242 -1629739980 -1458091050 -1483628523 71958364 110396855 596666846 -886075932 -322471159 -20439434 -1636499628
REM
CELL 1.54180   50.00000   50.00000   50.00000   90.00000   90.00000   90.00000
LATT -1
SFAC C  
C      1  0.5487300000000  0.5147010000000  0.5597750000000 1.0
C      1  0.4533510000000  0.4399600000000  0.4920330000000 1.0
C      1  0.4045260000000  0.4847430000000  0.4441170000000 1.0
C      1  0.4561590000000  0.6124080000000  0.5589470000000 1.0
C      1  0.5353290000000  0.4816760000000  0.4386580000000 1.0
C      1  0.4391130000000  0.4868480000000  0.4065310000000 1.0
C      1  0.5414410000000  0.5032480000000  0.4851730000000 1.0
C      1  0.3657490000000  0.5110510000000  0.4935280000000 1.0
C      1  0.4800040000000  0.4558450000000  0.5742480000000 1.0
C      1  0.4621800000000  0.4327840000000  0.4288400000000 1.0
C      1  0.6006580000000  0.5570970000000  0.4352410000000 1.0
C      1  0.4016870000000  0.5307980000000  0.5748820000000 1.0
C      1  0.5172150000000  0.4938270000000  0.3823060000000 1.0
C      1  0.5776600000000  0.3955460000000  0.5640440000000 1.0
C      1  0.5071010000000  0.5931360000000  0.4718990000000 1.0
C      1  0.4755480000000  0.5169600000000  0.5489130000000 1.0
C      1  0.4334450000000  0.5359740000000  0.4205430000000 1.0
C      1  0.5226470000000  0.5148850000000  0.5707470000000 1.0
C      1  0.5919970000000  0.5067860000000  0.4592910000000 1.0
C      1  0.4969610000000  0.4695830000000  0.5282030000000 1.0
C      1  0.5390560000000  0.5786830000000  0.4795660000000 1.0
C      1  0.4276950000000  0.5225680000000  0.5091760000000 1.0
C      1  0.4481750000000  0.4818140000000  0.5346740000000 1.0
C      1  0.6057760000000  0.5451040000000  0.5343430000000 1.0
C      1  0.4818950000000  0.6040260000000  0.4536880000000 1.0
C      1  0.4154680000000  0.5657350000000  0.5413580000000 1.0
C      1  0.4086030000000  0.5499000000000  0.4240920000000 1.0
C      1  0.4653100000000  0.5117280000000  0.4437110000000 1.0
C      1  0.4473180000000  0.4575480000000  0.4460870000000 1.0
C      1  0.4364110000000  0.5445370000000  0.5275870000000 1.0
C      1  0.5050190000000  0.5224050000000  0.4522140000000 1.0
C      1  0.5395450000000  0.4779960000000  0.3736470000000 1.0
C      1  0.4886490000000  0.4996760000000  0.5258640000000 1.0
C      1  0.4590120000000  0.4046300000000  0.4398740000000 1.0
C      1  0.5621770000000  0.5653670000000  0.5499910000000 1.0
C      1  0.5300420000000  0.5086170000000  0.5115430000000 1.0
C      1  0.3820990000000  0.4950500000000  0.5126480000000 1.0
C      1  0.5095610000000  0.5472590000000  0.5332080000000 1.0
C      1  0.4466750000000  0.3936640000000  0.5233480000000 1.0
C      1  0.3853350000000  0.4668160000000  0.4570750000000 1.0
C      1  0.4552150000000  0.5586410000000  0.3927100000000 1.0
C      1  0.6074890000000  0.4616690000000  0.5180950000000 1.0
C      1  0.5221720000000  0.5057960000000  0.4289630000000 1.0
C      1  0.4104100000000  0.5580040000000  0.5692190000000 1.0
C      1  0.6170470000000  0.5183310000000  0.4988400000000 1.0
C      1  0.4298000000000  0.4762830000000  0.4320910000000 1.0
C      1  0.5000460000000  0.4145160000000  0.5195840000000 1.0
C      1  0.5743910000000  0.4478610000000  0.5660610000000 1.0
C      1  0.3988040000000  0.5466020000000  0.4734770000000 1.0
C      1  0.6055460000000  0.4828040000000  0.5392590000000 1.0
C      1  0.4538530000000  0.4413440000000  0.4004980000000 1.0
C      1  0.5802950000000  0.3750770000000  0.5845130000000 1.0
C      1  0.4614910000000  0.5737770000000  0.5927830000000 1.0
C      1  0.5130640000000  0.6190600000000  0.4865780000000 1.0
C      1  0.3923160000000  0.4663660000000  0.5075970000000 1.0
C      1  0.4997780000000  0.5396980000000  0.4834050000000 1.0
C      1  0.5902460000000  0.4736370000000  0.5648540000000 1.0
C      1  0.5637290000000  0.3897700000000  0.5393040000000 1.0
C      1  0.6076790000000  0.5642150000000  0.5110630000000 1.0
C      1  0.5502870000000  0.4600830000000  0.5191790000000 1.0
C      1  0.5508950000000  0.5470590000000  0.5258350000000 1.0
C      1  0.5639180000000  0.5236690000000  0.4042760000000 1.0
C      1  0.4570420000000  0.4885250000000  0.4861000000000 1.0
C      1  0.5573760000000  0.5621040000000  0.5817240000000 1.0
C      1  0.6041030000000  0.4500310000000  0.4688700000000 1.0
C      1  0.5203030000000  0.4585540000000  0.4818080000000 1.0
C      1  0.5877950000000  0.4863930000000  0.4391950000000 1.0
C      1  0.3723550000000  0.5382740000000  0.4831030000000 1.0
C      1  0.4948720000000  0.4739170000000  0.4304770000000 1.0
C      1  0.4917950000000  0.4333900000000  0.4198910000000 1.0
C      1  0.5279720000000  0.5646930000000  0.4415780000000 1.0
C      1  0.5348640000000  0.5969700000000  0.5257670000000 1.0
C      1  0.4365800000000  0.5152590000000  0.3993610000000 1.0
C      1  0.5004910000000  0.4553550000000  0.5546750000000 1.0
C      1  0.5776650000000  0.5577770000000  0.4518550000000 1.0
C      1  0.4449770000000  0.5687630000000  0.5117190000000 1.0
C      1  0.6104890000000  0.4694690000000  0.4894550000000 1.0
C      1  0.5239570000000  0.4540700000000  0.6207740000000 1.0
C      1  0.5517930000000  0.4204760000000  0.4481020000000 1.0
C      1  0.6045090000000  0.5146810000000  0.5267450000000 1.0
C      1  0.5296460000000  0.5387130000000  0.4539050000000 1.0
C      1  0.4386160000000  0.4330630000000  0.5622530000000 1.0
C      1  0.3952830000000  0.4746660000000  0.5552420000000 1.0
C      1  0.4884430000000  0.4569560000000  0.4544880000000 1.0
C      1  0.4587350000000  0.4693840000000  0.3918020000000 1.0
C      1  0.5820820000000  0.5976530000000  0.4826680000000 1.0
C      1  0.4522510000000  0.4054330000000  0.5719040000000 1.0
C      1  0.4163320000000  0.4797630000000  0.5755730000000 1.0
C      1  0.4688760000000  0.4805730000000  0.5819370000000 1.0
C      1  0.4948820000000  0.5745880000000  0.4065370000000 1.0
C      1  0.5360390000000  0.4701490000000  0.5987080000000 1.0
C      1  0.4154160000000  0.4089620000000  0.4930000000000 1.0
C      1  0.5395390000000  0.4039250000000  0.4952950000000 1.0
C      1  0.4986460000000  0.5823260000000  0.5622610000000 1.0
C      1  0.4768630000000  0.3906430000000  0.5561450000000 1.0
C      1  0.5072640000000  0.4354350000000  0.4671070000000 1.0
C      1  0.5517570000000  0.5183860000000  0.5313810000000 1.0
C      1  0.4805600000000  0.3673840000000  0.5050050000000 1.0
C      1  0.4806820000000  0.5512000000000  0.5994800000000 1.0
C      1  0.5690170000000  0.4801540000000  0.5083150000000 1.0
C      1  0.4670740000000  0.4600990000000  0.5296810000000 1.0
C      1  0.5285910000000  0.5172110000000  0.4012240000000 1.0
C      1  0.4716370000000  0.5919140000000  0.5717370000000 1.0
C      1  0.4870820000000  0.5679880000000  0.4828560000000 1.0
C      1  0.6230850000000  0.5536460000000  0.4570330000000 1.0
C      1  0.4856450000000  0.3879460000000  0.4826060000000 1.0
C      1  0.4731340000000  0.6103730000000  0.5133270000000 1.0
C      1  0.5441000000000  0.5528620000000  0.4953530000000 1.0
C      1  0.3901630000000  0.4521830000000  0.4821140000000 1.0
C      1  0.4857350000000  0.5497310000000  0.3924220000000 1.0
C      1  0.5155370000000  0.4959630000000  0.5915000000000 1.0
C      1  0.5650010000000  0.5831790000000  0.4640230000000 1.0
C      1  0.3986660000000  0.4528380000000  0.5349910000000 1.0
C      1  0.5011080000000  0.5725210000000  0.4336360000000 1.0
C      1  0.5019930000000  0.4487340000000  0.3976280000000 1.0
C      1  0.4799770000000  0.5621480000000  0.4512200000000 1.0
C      1  0.5229820000000  0.4388330000000  0.5576490000000 1.0
C      1  0.5716160000000  0.5166100000000  0.5772370000000 1.0
C      1  0.5164460000000  0.5422990000000  0.3905280000000 1.0
C      1  0.4044640000000  0.5657110000000  0.4491880000000 1.0
C      1  0.4556470000000  0.5391450000000  0.4427600000000 1.0
C      1  0.5061070000000  0.4099320000000  0.4894130000000 1.0
C      1  0.4588180000000  0.5184580000000  0.3810420000000 1.0
C      1  0.4418380000000  0.4967340000000  0.5098830000000 1.0
C      1  0.5934500000000  0.5390580000000  0.4104560000000 1.0
C      1  0.5750850000000  0.5051110000000  0.5208690000000 1.0
C      1  0.5821720000000  0.4919710000000  0.5864360000000 1.0
C      1  0.4862490000000  0.4970720000000  0.5987680000000 1.0
C      1  0.4164190000000  0.4294580000000  0.5408620000000 1.0
C      1  0.5571990000000  0.4664310000000  0.3926650000000 1.0
C      1  0.5238130000000  0.4176850000000  0.5371220000000 1.0
C      1  0.4810290000000  0.4997330000000  0.4234550000000 1.0
C      1  0.5866240000000  0.5866980000000  0.5091690000000 1.0
C      1  0.5638770000000  0.4801820000000  0.6061220000000 1.0
C      1  0.5891110000000  0.4222550000000  0.5683010000000 1.0
C      1  0.5747200000000  0.5410870000000  0.5919030000000 1.0
C      1  0.3798320000000  0.5216410000000  0.5580040000000 1.0
C      1  0.5449360000000  0.4499160000000  0.5742660000000 1.0
C      1  0.5492300000000  0.4099690000000  0.5241480000000 1.0
C      1  0.5019650000000  0.5302780000000  0.5568410000000 1.0
C      1  0.4912710000000  0.3714800000000  0.5336820000000 1.0
C      1  0.4844530000000  0.5157910000000  0.3966700000000 1.0
C      1  0.4499840000000  0.6118720000000  0.5309570000000 1.0
C      1  0.5213600000000  0.4598260000000  0.5104760000000 1.0
C      1  0.5320490000000  0.5659010000000  0.5955020000000 1.0
C      1  0.4287900000000  0.5931600000000  0.5228120000000 1.0
C      1  0.6179120000000  0.5466970000000  0.4876130000000 1.0
C      1  0.4344440000000  0.4565580000000  0.5811720000000 1.0
C      1  0.4823290000000  0.5015990000000  0.4807420000000 1.0
C      1  0.5897050000000  0.5547130000000  0.5551280000000 1.0
C      1  0.5893210000000  0.4575420000000  0.4453630000000 1.0
C      1  0.4610480000000  0.4353490000000  0.5419870000000 1.0
C      1  0.5642100000000  0.4353250000000  0.5242230000000 1.0
C      1  0.4444770000000  0.5462320000000  0.4696960000000 1.0
C      1  0.5589110000000  0.4074020000000  0.4730760000000 1.0
C      1  0.4702660000000  0.5224430000000  0.6037020000000 1.0
C      1  0.5346450000000  0.4797210000000  0.4682100000000 1.0
C      1  0.6094960000000  0.4981300000000  0.4810490000000 1.0
C      1  0.4434450000000  0.5807010000000  0.4096380000000 1.0
C      1  0.4572220000000  0.4958220000000  0.5596480000000 1.0
C      1  0.4599520000000  0.3977910000000  0.4684930000000 1.0
C      1  0.5506750000000  0.4618420000000  0.4209640000000 1.0
C      1  0.4516870000000  0.3683040000000  0.5103290000000 1.0
C      1  0.4722540000000  0.4105900000000  0.5321830000000 1.0
C      1  0.4200520000000  0.4065340000000  0.5222480000000 1.0
C      1  0.4224990000000  0.5325490000000  0.4816260000000 1.0
C      1  0.5295200000000  0.6202240000000  0.5097510000000 1.0
C      1  0.5929250000000  0.5444540000000  0.6141630000000 1.0
C      1  0.5235240000000  0.4235730000000  0.4455690000000 1.0
C      1  0.4522250000000  0.4621490000000  0.4749910000000 1.0
C      1  0.4430630000000  0.4149450000000  0.4846750000000 1.0
C      1  0.4208630000000  0.5096640000000  0.5856800000000 1.0
C      1  0.4569740000000  0.5655930000000  0.4861760000000 1.0
C      1  0.4358510000000  0.5803700000000  0.4392300000000 1.0
C      1  0.5088190000000  0.5783550000000  0.5330270000000 1.0
C      1  0.4578270000000  0.5404670000000  0.5472660000000 1.0
C      1  0.3929790000000  0.4232640000000  0.4818460000000 1.0
C      1  0.4406250000000  0.5172790000000  0.6073960000000 1.0
C      1  0.5631430000000  0.5882830000000  0.5311500000000 1.0
C      1  0.4528550000000  0.5965590000000  0.4581300000000 1.0
C      1  0.5110760000000  0.5309140000000  0.5091050000000 1.0
C      1  0.4895800000000  0.5863770000000  0.5103410000000 1.0
C      1  0.5932170000000  0.4366020000000  0.5236760000000 1.0
C      1  0.5480920000000  0.5299730000000  0.4748850000000 1.0
C      1  0.4909910000000  0.4751240000000  0.3886780000000 1.0
C      1  0.5668970000000  0.4420160000000  0.4349950000000 1.0
C      1  0.5061770000000  0.5623870000000  0.5835100000000 1.0
C      1  0.5734830000000  0.5313110000000  0.4630470000000 1.0
C      1  0.3810290000000  0.4973370000000  0.5430870000000 1.0
END
