TITL C-862130-1496-405 -0.000210569448353001 125000 -364.96201779317 0 0 68 (C1) n - 1
REM
REM in /home/nfs/bkarasulu/CARBON/AIRSS/Generating-Clusters/TERSOFF/Higher-Symm/FIRE-HFTN
REM
REM
REM
REM
REM
REM ./C.cell (b20cbc046b6831c77cfcea5457e17084)
REM AIRSS Version 0.9.1 bugfix July 2018 build 013d7b7c2542+ Fri, 06 Jul 2018 19:26:36 +0100
REM compiler GCC version 9.2.1 20190827 (Red Hat 9.2.1-1)
REM options -cpp -mtune=generic -march=x86-64 -g -O0 -fpre-include=/usr/include/finclude/math-vector-fortran.h
REM seed -1705942103 448791174 -709564050 -1756036796 -1225785088 -1532020103 -1557413507 -810283443 -1015511867 1199703716 898536265 -501292128 -1664078936 1571915584 -1734666885 -2123720308 -206455166 -200611682 -2138629338 1095266433 405982039 2036902901 1649393071 -1066675016 -1640449382 135499545 -1454484427 1543973871 -1520254911 1849058640 -1539811630 -1017754650 -1985059551
REM
CELL 1.54180   50.00000   50.00000   50.00000   90.00000   90.00000   90.00000
LATT -1
SFAC C  
C      1  0.5363710000000  0.5342440000000  0.4500380000000 1.0
C      1  0.4495340000000  0.5154530000000  0.4460260000000 1.0
C      1  0.5126670000000  0.4483160000000  0.4449320000000 1.0
C      1  0.4754640000000  0.5060090000000  0.4842570000000 1.0
C      1  0.5103780000000  0.4732180000000  0.4836570000000 1.0
C      1  0.5124330000000  0.5070470000000  0.4842160000000 1.0
C      1  0.5359540000000  0.5326380000000  0.5444260000000 1.0
C      1  0.4530310000000  0.5172450000000  0.5449550000000 1.0
C      1  0.5083190000000  0.4514040000000  0.5439300000000 1.0
C      1  0.4608240000000  0.4521160000000  0.4728020000000 1.0
C      1  0.5606580000000  0.4907040000000  0.4725990000000 1.0
C      1  0.4804540000000  0.5595860000000  0.4738200000000 1.0
C      1  0.4818830000000  0.4703840000000  0.4629600000000 1.0
C      1  0.5353280000000  0.5013020000000  0.4593710000000 1.0
C      1  0.4840750000000  0.5324310000000  0.4626930000000 1.0
C      1  0.5344740000000  0.5056280000000  0.5068010000000 1.0
C      1  0.4762450000000  0.5287870000000  0.5067940000000 1.0
C      1  0.4879710000000  0.4651320000000  0.5052150000000 1.0
C      1  0.4800150000000  0.5226910000000  0.5349750000000 1.0
C      1  0.4899570000000  0.4722980000000  0.5336630000000 1.0
C      1  0.5280390000000  0.5059510000000  0.5350700000000 1.0
C      1  0.4669710000000  0.5575760000000  0.5006360000000 1.0
C      1  0.4682260000000  0.4419680000000  0.4998050000000 1.0
C      1  0.5637510000000  0.5013750000000  0.5001740000000 1.0
C      1  0.5051910000000  0.5271850000000  0.4423830000000 1.0
C      1  0.4752670000000  0.4921020000000  0.4418820000000 1.0
C      1  0.5210690000000  0.4816970000000  0.4382630000000 1.0
C      1  0.4783940000000  0.4962410000000  0.5837380000000 1.0
C      1  0.5124060000000  0.4833920000000  0.5837650000000 1.0
C      1  0.5065340000000  0.5193900000000  0.5840150000000 1.0
C      1  0.5437700000000  0.4329730000000  0.5101650000000 1.0
C      1  0.5335890000000  0.5631520000000  0.5016460000000 1.0
C      1  0.4227280000000  0.4956000000000  0.5112090000000 1.0
C      1  0.5637560000000  0.5429720000000  0.4720500000000 1.0
C      1  0.4308800000000  0.5350200000000  0.4705540000000 1.0
C      1  0.5055970000000  0.4224430000000  0.4699310000000 1.0
C      1  0.5504460000000  0.5480040000000  0.5225620000000 1.0
C      1  0.4318040000000  0.5232900000000  0.5236490000000 1.0
C      1  0.5144580000000  0.4290560000000  0.5231720000000 1.0
C      1  0.5349700000000  0.4522160000000  0.4671370000000 1.0
C      1  0.5270620000000  0.5687170000000  0.4551660000000 1.0
C      1  0.4437790000000  0.4951250000000  0.4694730000000 1.0
C      1  0.5321310000000  0.4637140000000  0.5074090000000 1.0
C      1  0.5134720000000  0.5405860000000  0.4914990000000 1.0
C      1  0.4560460000000  0.4920650000000  0.5094960000000 1.0
C      1  0.4932080000000  0.4238870000000  0.4994300000000 1.0
C      1  0.5672770000000  0.5314370000000  0.5002440000000 1.0
C      1  0.4381490000000  0.5450470000000  0.5000730000000 1.0
C      1  0.4357060000000  0.4658100000000  0.4717440000000 1.0
C      1  0.5631520000000  0.4621160000000  0.4707230000000 1.0
C      1  0.5029830000000  0.5779870000000  0.4719150000000 1.0
C      1  0.5459700000000  0.4849740000000  0.5467280000000 1.0
C      1  0.4890040000000  0.5484630000000  0.5470680000000 1.0
C      1  0.4628650000000  0.4674520000000  0.5452640000000 1.0
C      1  0.5693020000000  0.4466780000000  0.4958540000000 1.0
C      1  0.5132780000000  0.5868850000000  0.4996510000000 1.0
C      1  0.4194270000000  0.4675100000000  0.4967380000000 1.0
C      1  0.5673330000000  0.4828570000000  0.5251820000000 1.0
C      1  0.4808420000000  0.5687900000000  0.5262440000000 1.0
C      1  0.4506530000000  0.4487250000000  0.5247010000000 1.0
C      1  0.4182780000000  0.5083210000000  0.4821010000000 1.0
C      1  0.5355750000000  0.4239070000000  0.4803900000000 1.0
C      1  0.5501490000000  0.5695860000000  0.4758390000000 1.0
C      1  0.4571000000000  0.4923680000000  0.5615860000000 1.0
C      1  0.5270100000000  0.4670280000000  0.5618060000000 1.0
C      1  0.5135140000000  0.5409190000000  0.5624530000000 1.0
C      1  0.5000120000000  0.5011010000000  0.4291810000000 1.0
C      1  0.4992770000000  0.5001920000000  0.5380030000000 1.0
END
