TITL C-862504-1170-312 -1.17564452192984e-05 125000 -249.051436515665 0 0 43 (C1) n - 1
REM
REM in /home/nfs/bkarasulu/CARBON/AIRSS/Generating-Clusters/TERSOFF/Higher-Symm/FIRE-HFTN
REM
REM
REM
REM
REM
REM ./C.cell (b20cbc046b6831c77cfcea5457e17084)
REM AIRSS Version 0.9.1 bugfix July 2018 build 013d7b7c2542+ Fri, 06 Jul 2018 19:26:36 +0100
REM compiler GCC version 9.2.1 20190827 (Red Hat 9.2.1-1)
REM options -cpp -mtune=generic -march=x86-64 -g -O0 -fpre-include=/usr/include/finclude/math-vector-fortran.h
REM seed -1974270442 -1875726551 -1044269525 477930228 -692583689 471395845 -267172735 -242319860 -2109688174 1568628495 1209773865 1950776424 -1560206094 -947374839 24763823 1931327947 1584005771 1137342413 511968798 -1723379758 411922097 -372090610 -686628064 -1382694022 1812824596 1473923991 -662305048 -2122911167 811653920 -258623894 -272727216 -391209564 1516227544
REM
CELL 1.54180   50.00000   50.00000   50.00000   90.00000   90.00000   90.00000
LATT -1
SFAC C  
C      1  0.4819110000000  0.5505450000000  0.5167760000000 1.0
C      1  0.4748610000000  0.4445920000000  0.4917560000000 1.0
C      1  0.4804840000000  0.5501860000000  0.4871460000000 1.0
C      1  0.5002510000000  0.4476880000000  0.4747340000000 1.0
C      1  0.5059230000000  0.5591980000000  0.4744610000000 1.0
C      1  0.5237830000000  0.4516820000000  0.4930950000000 1.0
C      1  0.5290460000000  0.5572330000000  0.4962270000000 1.0
C      1  0.5138880000000  0.4491420000000  0.5212460000000 1.0
C      1  0.5126280000000  0.5524960000000  0.5226850000000 1.0
C      1  0.4834040000000  0.4478510000000  0.5205190000000 1.0
C      1  0.4439500000000  0.5168730000000  0.4906610000000 1.0
C      1  0.4695570000000  0.4678350000000  0.4440560000000 1.0
C      1  0.4845820000000  0.5338830000000  0.4355910000000 1.0
C      1  0.5412220000000  0.4825560000000  0.4592170000000 1.0
C      1  0.5508650000000  0.5254090000000  0.4633290000000 1.0
C      1  0.5544880000000  0.4734690000000  0.5341290000000 1.0
C      1  0.5517500000000  0.5264290000000  0.5377180000000 1.0
C      1  0.4832580000000  0.4736560000000  0.5622720000000 1.0
C      1  0.4799790000000  0.5194480000000  0.5531480000000 1.0
C      1  0.4323750000000  0.4657000000000  0.5060850000000 1.0
C      1  0.4976950000000  0.4632950000000  0.4495490000000 1.0
C      1  0.5091550000000  0.5448160000000  0.4483510000000 1.0
C      1  0.5440570000000  0.4722610000000  0.4860540000000 1.0
C      1  0.5533770000000  0.5371320000000  0.4899930000000 1.0
C      1  0.5279030000000  0.4645120000000  0.5419920000000 1.0
C      1  0.5237470000000  0.5319400000000  0.5410180000000 1.0
C      1  0.4677550000000  0.4655010000000  0.5390830000000 1.0
C      1  0.4637560000000  0.5316920000000  0.5334060000000 1.0
C      1  0.4497150000000  0.4588130000000  0.4835240000000 1.0
C      1  0.4662860000000  0.5271300000000  0.4753090000000 1.0
C      1  0.5217620000000  0.5197380000000  0.4595650000000 1.0
C      1  0.5588330000000  0.4871440000000  0.5084120000000 1.0
C      1  0.5607880000000  0.5176980000000  0.5116450000000 1.0
C      1  0.5105840000000  0.4832620000000  0.5565320000000 1.0
C      1  0.5047140000000  0.5084400000000  0.5418270000000 1.0
C      1  0.4441810000000  0.4819840000000  0.5276850000000 1.0
C      1  0.4458950000000  0.5120780000000  0.5193220000000 1.0
C      1  0.4585770000000  0.4854270000000  0.4669750000000 1.0
C      1  0.4807050000000  0.5078560000000  0.4526710000000 1.0
C      1  0.5126920000000  0.4912890000000  0.4474300000000 1.0
C      1  0.5161300000000  0.5177820000000  0.4903740000000 1.0
C      1  0.4744580000000  0.4888800000000  0.4991440000000 1.0
C      1  0.4986690000000  0.5034480000000  0.5091330000000 1.0
END
