TITL C-862131-2149-883 -10.9723193715775 125000 -579.646862123665 0 0 104 (C1) n - 1
REM
REM in /home/nfs/bkarasulu/CARBON/AIRSS/Generating-Clusters/TERSOFF/Higher-Symm/FIRE-HFTN
REM
REM
REM
REM
REM
REM ./C.cell (b20cbc046b6831c77cfcea5457e17084)
REM AIRSS Version 0.9.1 bugfix July 2018 build 013d7b7c2542+ Fri, 06 Jul 2018 19:26:36 +0100
REM compiler GCC version 9.2.1 20190827 (Red Hat 9.2.1-1)
REM options -cpp -mtune=generic -march=x86-64 -g -O0 -fpre-include=/usr/include/finclude/math-vector-fortran.h
REM seed -1044403145 352807976 -1287532824 -1590884830 -237697798 1110185230 259135700 1628281642 -737001321 1479004435 1961190814 -610126615 -1734086463 598137439 -715292033 715866360 -560983944 496073767 -2037523668 1809965228 -546436039 2047581255 -2012041563 1141595603 1875935208 1438124979 -1788631383 1397993606 -1993612733 2079900429 47282730 -1215964350 315589913
REM
CELL 1.54180   50.00000   50.00000   50.00000   90.00000   90.00000   90.00000
LATT -1
SFAC C  
C      1  0.5492220000000  0.5102790000000  0.4922930000000 1.0
C      1  0.4265090000000  0.4839030000000  0.4495460000000 1.0
C      1  0.5603370000000  0.4877580000000  0.4318670000000 1.0
C      1  0.4122630000000  0.5119490000000  0.4623140000000 1.0
C      1  0.5921420000000  0.4870450000000  0.5491180000000 1.0
C      1  0.5024620000000  0.4792470000000  0.5799820000000 1.0
C      1  0.5512620000000  0.4588560000000  0.5584050000000 1.0
C      1  0.4946020000000  0.5684240000000  0.4330940000000 1.0
C      1  0.5537170000000  0.5136790000000  0.5687880000000 1.0
C      1  0.4315340000000  0.4576830000000  0.4862000000000 1.0
C      1  0.4759910000000  0.5728030000000  0.4576620000000 1.0
C      1  0.5211840000000  0.4546310000000  0.4672320000000 1.0
C      1  0.5751600000000  0.4981800000000  0.4548390000000 1.0
C      1  0.5284240000000  0.4212430000000  0.5254180000000 1.0
C      1  0.4790250000000  0.4353880000000  0.5633820000000 1.0
C      1  0.4623490000000  0.5814100000000  0.4972560000000 1.0
C      1  0.5751660000000  0.4532950000000  0.4899250000000 1.0
C      1  0.5030010000000  0.5289010000000  0.4911050000000 1.0
C      1  0.4705540000000  0.5351440000000  0.5011390000000 1.0
C      1  0.5486580000000  0.4845500000000  0.5253050000000 1.0
C      1  0.5207770000000  0.5759150000000  0.4920490000000 1.0
C      1  0.4911750000000  0.5550600000000  0.5507510000000 1.0
C      1  0.5499770000000  0.4383890000000  0.4791240000000 1.0
C      1  0.4214500000000  0.5515510000000  0.5052930000000 1.0
C      1  0.4508660000000  0.4246810000000  0.4671180000000 1.0
C      1  0.5406370000000  0.5384660000000  0.6000690000000 1.0
C      1  0.5626400000000  0.5237240000000  0.4672110000000 1.0
C      1  0.4759370000000  0.4805410000000  0.4494190000000 1.0
C      1  0.5037970000000  0.5781610000000  0.5354750000000 1.0
C      1  0.4045440000000  0.5006190000000  0.4891090000000 1.0
C      1  0.4056880000000  0.4718830000000  0.4891370000000 1.0
C      1  0.5772280000000  0.4992300000000  0.4980310000000 1.0
C      1  0.5847780000000  0.5363110000000  0.5318320000000 1.0
C      1  0.4657030000000  0.5635880000000  0.5597150000000 1.0
C      1  0.5334080000000  0.5814890000000  0.5384500000000 1.0
C      1  0.4500920000000  0.5585230000000  0.5121340000000 1.0
C      1  0.5286940000000  0.4401560000000  0.5498850000000 1.0
C      1  0.5285250000000  0.4909630000000  0.4872680000000 1.0
C      1  0.4272380000000  0.5219830000000  0.5759060000000 1.0
C      1  0.4279720000000  0.5435760000000  0.4571390000000 1.0
C      1  0.4870570000000  0.4565930000000  0.4664940000000 1.0
C      1  0.5365720000000  0.4863530000000  0.5707440000000 1.0
C      1  0.4762050000000  0.4730830000000  0.4196230000000 1.0
C      1  0.5487700000000  0.4192830000000  0.5030040000000 1.0
C      1  0.5840680000000  0.4457480000000  0.5184080000000 1.0
C      1  0.5400410000000  0.5355830000000  0.4285970000000 1.0
C      1  0.4514130000000  0.4421300000000  0.5590030000000 1.0
C      1  0.5276880000000  0.4947620000000  0.5418530000000 1.0
C      1  0.5017090000000  0.4537180000000  0.5587880000000 1.0
C      1  0.5855340000000  0.4790160000000  0.4778580000000 1.0
C      1  0.4449070000000  0.5739990000000  0.4665850000000 1.0
C      1  0.4754870000000  0.4891090000000  0.4929590000000 1.0
C      1  0.4898350000000  0.5279000000000  0.5308370000000 1.0
C      1  0.5465250000000  0.5669680000000  0.5597730000000 1.0
C      1  0.4322530000000  0.4489670000000  0.4561030000000 1.0
C      1  0.5077100000000  0.4627070000000  0.4173160000000 1.0
C      1  0.4136610000000  0.5303010000000  0.5244080000000 1.0
C      1  0.5540200000000  0.4587460000000  0.4310840000000 1.0
C      1  0.4547680000000  0.4226030000000  0.4972620000000 1.0
C      1  0.5022120000000  0.4999760000000  0.4806700000000 1.0
C      1  0.4243910000000  0.5389040000000  0.5512860000000 1.0
C      1  0.5200750000000  0.4183040000000  0.4462190000000 1.0
C      1  0.4602520000000  0.4857330000000  0.5474310000000 1.0
C      1  0.4788330000000  0.5541110000000  0.4126650000000 1.0
C      1  0.4948270000000  0.5299730000000  0.4499340000000 1.0
C      1  0.4518450000000  0.4981930000000  0.4594910000000 1.0
C      1  0.5446910000000  0.5773440000000  0.5117890000000 1.0
C      1  0.5121350000000  0.4558570000000  0.5081410000000 1.0
C      1  0.4210710000000  0.4823160000000  0.5326960000000 1.0
C      1  0.4519000000000  0.5085500000000  0.4943470000000 1.0
C      1  0.5637810000000  0.5532210000000  0.5110850000000 1.0
C      1  0.5245870000000  0.5249630000000  0.5377400000000 1.0
C      1  0.4723990000000  0.5423070000000  0.4658250000000 1.0
C      1  0.5182700000000  0.4101930000000  0.4755980000000 1.0
C      1  0.5392700000000  0.5065270000000  0.4213490000000 1.0
C      1  0.4666180000000  0.5280790000000  0.4188280000000 1.0
C      1  0.4530830000000  0.5264400000000  0.4471250000000 1.0
C      1  0.4688470000000  0.4896860000000  0.5754950000000 1.0
C      1  0.4986310000000  0.5009140000000  0.4497520000000 1.0
C      1  0.5427680000000  0.5307110000000  0.5129200000000 1.0
C      1  0.5074970000000  0.5453540000000  0.5725780000000 1.0
C      1  0.4443800000000  0.5586850000000  0.5429000000000 1.0
C      1  0.4232130000000  0.5049130000000  0.5125940000000 1.0
C      1  0.5781150000000  0.4613230000000  0.5439840000000 1.0
C      1  0.5957560000000  0.5160500000000  0.5123530000000 1.0
C      1  0.4794290000000  0.4135900000000  0.5086630000000 1.0
C      1  0.5040520000000  0.4750610000000  0.5335240000000 1.0
C      1  0.5189020000000  0.5505410000000  0.4774670000000 1.0
C      1  0.4378590000000  0.4425320000000  0.5120240000000 1.0
C      1  0.4532080000000  0.5119420000000  0.5872920000000 1.0
C      1  0.4672420000000  0.4618370000000  0.4890780000000 1.0
C      1  0.5263110000000  0.4478620000000  0.4363820000000 1.0
C      1  0.5368030000000  0.5401240000000  0.5687640000000 1.0
C      1  0.4829020000000  0.4958800000000  0.5334680000000 1.0
C      1  0.5187960000000  0.5492670000000  0.4448910000000 1.0
C      1  0.4427040000000  0.4606320000000  0.5372920000000 1.0
C      1  0.5785080000000  0.5133190000000  0.5528760000000 1.0
C      1  0.5057500000000  0.4241980000000  0.5018280000000 1.0
C      1  0.5121850000000  0.4945740000000  0.4214510000000 1.0
C      1  0.5411510000000  0.4606520000000  0.5134100000000 1.0
C      1  0.4632380000000  0.4057710000000  0.4488990000000 1.0
C      1  0.4936100000000  0.5850430000000  0.5064990000000 1.0
C      1  0.4812640000000  0.5041110000000  0.4085160000000 1.0
C      1  0.5737290000000  0.5476940000000  0.4821930000000 1.0
END
