TITL C-862128-1543-1379 -0.000753620657279503 125000 -834.810873091059 0 0 147 (C1) n - 1
REM
REM in /home/nfs/bkarasulu/CARBON/AIRSS/Generating-Clusters/TERSOFF/Higher-Symm/FIRE-HFTN
REM
REM
REM
REM
REM
REM ./C.cell (b20cbc046b6831c77cfcea5457e17084)
REM AIRSS Version 0.9.1 bugfix July 2018 build 013d7b7c2542+ Fri, 06 Jul 2018 19:26:36 +0100
REM compiler GCC version 9.2.1 20190827 (Red Hat 9.2.1-1)
REM options -cpp -mtune=generic -march=x86-64 -g -O0 -fpre-include=/usr/include/finclude/math-vector-fortran.h
REM seed -1180548245 -483968845 -1887619069 -778485314 -885264419 -111497878 2042549039 -579638138 -614586617 -91965547 443690988 -609380454 1335683976 1562143472 -1105433676 -954147472 -182927122 -669769516 408403349 449137071 409699538 1716805685 2112163461 1672903657 327037538 -597967317 -1015762939 -1814283931 -1781955858 -1113782100 -1311106061 -1296105069 307242661
REM
CELL 1.54180   50.00000   50.00000   50.00000   90.00000   90.00000   90.00000
LATT -1
SFAC C  
C      1  0.4450750000000  0.5285350000000  0.4704070000000 1.0
C      1  0.5571400000000  0.5307850000000  0.5315270000000 1.0
C      1  0.4442000000000  0.5295480000000  0.5317440000000 1.0
C      1  0.5564060000000  0.5294540000000  0.4693510000000 1.0
C      1  0.5141880000000  0.4117980000000  0.5407630000000 1.0
C      1  0.4848540000000  0.4123260000000  0.4535020000000 1.0
C      1  0.5140190000000  0.4124650000000  0.4536610000000 1.0
C      1  0.4844580000000  0.4118840000000  0.5406470000000 1.0
C      1  0.4294920000000  0.4318510000000  0.4671550000000 1.0
C      1  0.5700130000000  0.4342480000000  0.5285140000000 1.0
C      1  0.4288740000000  0.4343670000000  0.5284170000000 1.0
C      1  0.5693240000000  0.4318790000000  0.4674410000000 1.0
C      1  0.4719770000000  0.5659200000000  0.5218130000000 1.0
C      1  0.5277610000000  0.5673570000000  0.4797450000000 1.0
C      1  0.4727580000000  0.5635110000000  0.4803130000000 1.0
C      1  0.5276340000000  0.5698760000000  0.5211060000000 1.0
C      1  0.5151940000000  0.4494030000000  0.4146510000000 1.0
C      1  0.4838670000000  0.4490580000000  0.5814340000000 1.0
C      1  0.5146910000000  0.4491220000000  0.5813670000000 1.0
C      1  0.4838130000000  0.4493790000000  0.4145500000000 1.0
C      1  0.4148090000000  0.4536600000000  0.4816180000000 1.0
C      1  0.5825890000000  0.4559310000000  0.5127990000000 1.0
C      1  0.4172820000000  0.4564890000000  0.5127550000000 1.0
C      1  0.5846860000000  0.4532800000000  0.4816960000000 1.0
C      1  0.4379150000000  0.5624430000000  0.5633890000000 1.0
C      1  0.5607610000000  0.5610380000000  0.4384220000000 1.0
C      1  0.4397110000000  0.5603350000000  0.4391550000000 1.0
C      1  0.5615430000000  0.5633350000000  0.5632000000000 1.0
C      1  0.4419600000000  0.4416980000000  0.5531420000000 1.0
C      1  0.5573770000000  0.4398950000000  0.4423780000000 1.0
C      1  0.4409700000000  0.4391280000000  0.4415420000000 1.0
C      1  0.5557020000000  0.4429430000000  0.5520360000000 1.0
C      1  0.5596410000000  0.4117690000000  0.5130530000000 1.0
C      1  0.4494250000000  0.4212390000000  0.4849980000000 1.0
C      1  0.5497360000000  0.4209640000000  0.4853840000000 1.0
C      1  0.4394150000000  0.4121910000000  0.5126950000000 1.0
C      1  0.4689630000000  0.4307300000000  0.5606090000000 1.0
C      1  0.5298880000000  0.4306050000000  0.4344320000000 1.0
C      1  0.4689730000000  0.4302540000000  0.4340020000000 1.0
C      1  0.5295420000000  0.4311670000000  0.5602830000000 1.0
C      1  0.5265340000000  0.4464770000000  0.5206880000000 1.0
C      1  0.4687740000000  0.4434300000000  0.4920910000000 1.0
C      1  0.5299980000000  0.4423620000000  0.4931850000000 1.0
C      1  0.4703860000000  0.4460230000000  0.5207240000000 1.0
C      1  0.5927430000000  0.5085640000000  0.5304370000000 1.0
C      1  0.4085410000000  0.5078650000000  0.4702490000000 1.0
C      1  0.5922940000000  0.5076820000000  0.4696810000000 1.0
C      1  0.4078370000000  0.5085870000000  0.5307490000000 1.0
C      1  0.5802070000000  0.5376450000000  0.4277260000000 1.0
C      1  0.4192230000000  0.5380060000000  0.5736610000000 1.0
C      1  0.5807980000000  0.5387700000000  0.5731440000000 1.0
C      1  0.4206290000000  0.5372990000000  0.4283760000000 1.0
C      1  0.5587920000000  0.4905870000000  0.5959980000000 1.0
C      1  0.4408890000000  0.4903020000000  0.4035190000000 1.0
C      1  0.5587520000000  0.4899230000000  0.4033660000000 1.0
C      1  0.4402560000000  0.4908570000000  0.5961640000000 1.0
C      1  0.4575510000000  0.5224100000000  0.4417450000000 1.0
C      1  0.5431290000000  0.5257460000000  0.5599890000000 1.0
C      1  0.4570740000000  0.5251880000000  0.5607920000000 1.0
C      1  0.5431790000000  0.5229920000000  0.4410060000000 1.0
C      1  0.5855620000000  0.5346780000000  0.5151580000000 1.0
C      1  0.4165240000000  0.5340380000000  0.4852030000000 1.0
C      1  0.5850990000000  0.5340730000000  0.4846420000000 1.0
C      1  0.4159900000000  0.5345780000000  0.5157850000000 1.0
C      1  0.4833320000000  0.5503180000000  0.5954370000000 1.0
C      1  0.5167030000000  0.5482180000000  0.4067420000000 1.0
C      1  0.4835440000000  0.5477670000000  0.4071840000000 1.0
C      1  0.5168070000000  0.5507080000000  0.5951860000000 1.0
C      1  0.5453540000000  0.5049450000000  0.5158310000000 1.0
C      1  0.4557540000000  0.5025430000000  0.4865220000000 1.0
C      1  0.5456030000000  0.5037150000000  0.4858360000000 1.0
C      1  0.4560130000000  0.5035220000000  0.5163290000000 1.0
C      1  0.5179350000000  0.5163090000000  0.5277430000000 1.0
C      1  0.4829380000000  0.5106050000000  0.4730370000000 1.0
C      1  0.5180790000000  0.5127380000000  0.4730450000000 1.0
C      1  0.4828930000000  0.5134000000000  0.5298570000000 1.0
C      1  0.4347890000000  0.5760810000000  0.4684180000000 1.0
C      1  0.5659900000000  0.5797550000000  0.5342680000000 1.0
C      1  0.4336260000000  0.5772270000000  0.5337630000000 1.0
C      1  0.5660220000000  0.5783190000000  0.4672080000000 1.0
C      1  0.5297690000000  0.4001830000000  0.5159140000000 1.0
C      1  0.4711940000000  0.4000700000000  0.4787630000000 1.0
C      1  0.5276290000000  0.4000830000000  0.4789590000000 1.0
C      1  0.4690180000000  0.4003780000000  0.5157210000000 1.0
C      1  0.5545850000000  0.4715670000000  0.5553660000000 1.0
C      1  0.4433460000000  0.4677120000000  0.4432080000000 1.0
C      1  0.5557250000000  0.4683880000000  0.4442300000000 1.0
C      1  0.4434040000000  0.4702910000000  0.5583780000000 1.0
C      1  0.5178150000000  0.5037460000000  0.4414890000000 1.0
C      1  0.4816270000000  0.5068800000000  0.5615690000000 1.0
C      1  0.5175070000000  0.5087610000000  0.5602520000000 1.0
C      1  0.4821380000000  0.5024920000000  0.4417030000000 1.0
C      1  0.4840420000000  0.4936260000000  0.6126970000000 1.0
C      1  0.5151490000000  0.4946110000000  0.3872770000000 1.0
C      1  0.4842500000000  0.4944500000000  0.3871980000000 1.0
C      1  0.5147310000000  0.4946450000000  0.6107920000000 1.0
C      1  0.5578340000000  0.5217030000000  0.5874070000000 1.0
C      1  0.4428600000000  0.5206310000000  0.4138180000000 1.0
C      1  0.5576220000000  0.5208380000000  0.4130100000000 1.0
C      1  0.4420330000000  0.5214570000000  0.5878720000000 1.0
C      1  0.4255560000000  0.4852800000000  0.4284710000000 1.0
C      1  0.5743400000000  0.4862360000000  0.5710750000000 1.0
C      1  0.4226160000000  0.4855350000000  0.5726480000000 1.0
C      1  0.5735350000000  0.4852880000000  0.4287140000000 1.0
C      1  0.5317950000000  0.4722620000000  0.3972930000000 1.0
C      1  0.4671230000000  0.4722500000000  0.6003780000000 1.0
C      1  0.5314190000000  0.4724550000000  0.6001020000000 1.0
C      1  0.4674320000000  0.4722290000000  0.3972750000000 1.0
C      1  0.5756950000000  0.4857280000000  0.4827460000000 1.0
C      1  0.4256240000000  0.4872320000000  0.5182040000000 1.0
C      1  0.5750230000000  0.4871900000000  0.5176220000000 1.0
C      1  0.4248380000000  0.4856770000000  0.4831130000000 1.0
C      1  0.5278620000000  0.4822620000000  0.5501880000000 1.0
C      1  0.4702120000000  0.4758370000000  0.4513610000000 1.0
C      1  0.5294740000000  0.4777100000000  0.4528750000000 1.0
C      1  0.4713500000000  0.4795130000000  0.5553620000000 1.0
C      1  0.4846530000000  0.4597260000000  0.4719270000000 1.0
C      1  0.5125730000000  0.4701240000000  0.5291720000000 1.0
C      1  0.4851350000000  0.4648780000000  0.5354460000000 1.0
C      1  0.5151220000000  0.4645760000000  0.4758660000000 1.0
C      1  0.5874360000000  0.5090630000000  0.4409160000000 1.0
C      1  0.4104460000000  0.5099550000000  0.5599020000000 1.0
C      1  0.5883230000000  0.5100950000000  0.5593990000000 1.0
C      1  0.4125910000000  0.5092100000000  0.4413830000000 1.0
C      1  0.5328640000000  0.5947350000000  0.5380090000000 1.0
C      1  0.4685410000000  0.5893770000000  0.4643970000000 1.0
C      1  0.5327610000000  0.5926410000000  0.4630540000000 1.0
C      1  0.4671240000000  0.5915720000000  0.5374940000000 1.0
C      1  0.4836220000000  0.5183470000000  0.5925690000000 1.0
C      1  0.5160610000000  0.5165360000000  0.4096880000000 1.0
C      1  0.4843280000000  0.5159070000000  0.4101340000000 1.0
C      1  0.5161360000000  0.5192280000000  0.5914540000000 1.0
C      1  0.4846300000000  0.5873910000000  0.4390260000000 1.0
C      1  0.5156570000000  0.5899630000000  0.5628420000000 1.0
C      1  0.4839490000000  0.5894330000000  0.5626380000000 1.0
C      1  0.5157830000000  0.5879450000000  0.4383830000000 1.0
C      1  0.5161090000000  0.5441390000000  0.4680630000000 1.0
C      1  0.4870860000000  0.5444470000000  0.5322460000000 1.0
C      1  0.5156450000000  0.5473400000000  0.5332280000000 1.0
C      1  0.4874900000000  0.5413760000000  0.4702210000000 1.0
C      1  0.4675650000000  0.5687380000000  0.5776360000000 1.0
C      1  0.5319670000000  0.5667820000000  0.4244700000000 1.0
C      1  0.4682680000000  0.5663630000000  0.4249070000000 1.0
C      1  0.5321090000000  0.5692470000000  0.5773500000000 1.0
C      1  0.5563190000000  0.5677650000000  0.5009540000000 1.0
C      1  0.4439420000000  0.5631180000000  0.5014480000000 1.0
C      1  0.5131100000000  0.4822360000000  0.5014740000000 1.0
END
