TITL C-862133-5440-377 0.00514558594067653 125000 -171.415664270752 0 0 35 (C3) n - 1
REM
REM in /home/nfs/bkarasulu/CARBON/AIRSS/Generating-Clusters/TERSOFF/Higher-Symm/FIRE-HFTN
REM
REM
REM
REM
REM
REM ./C.cell (b20cbc046b6831c77cfcea5457e17084)
REM AIRSS Version 0.9.1 bugfix July 2018 build 013d7b7c2542+ Fri, 06 Jul 2018 19:26:36 +0100
REM compiler GCC version 9.2.1 20190827 (Red Hat 9.2.1-1)
REM options -cpp -mtune=generic -march=x86-64 -g -O0 -fpre-include=/usr/include/finclude/math-vector-fortran.h
REM seed 993247930 -1232485145 166057703 -436710690 1516658632 1192500893 -2043481612 482482432 2009082656 1275099096 1812645829 1805820390 286828224 2087538056 1065569505 784203443 1438122746 -1051641904 -342781237 -1541766624 -1086830406 186092762 -2042712726 1078530146 2091978455 -683073524 -1908633455 1720981631 1468954196 945162966 1836891839 299414379 -1368532367
REM
CELL 1.54180   50.00000   50.00000   50.00000   90.00000   90.00000   90.00000
LATT -1
SFAC C  
C      1  0.4890210000000  0.5631690000000  0.5256420000000 1.0
C      1  0.4890210000000  0.4884750000000  0.4321610000000 1.0
C      1  0.4890210000000  0.4448650000000  0.5435890000000 1.0
C      1  0.5354800000000  0.5177060000000  0.5508720000000 1.0
C      1  0.5354800000000  0.5330560000000  0.4589180000000 1.0
C      1  0.5354800000000  0.4457470000000  0.4916020000000 1.0
C      1  0.4908190000000  0.5081800000000  0.4534090000000 1.0
C      1  0.4908190000000  0.4534140000000  0.5158990000000 1.0
C      1  0.4908190000000  0.5349150000000  0.5320830000000 1.0
C      1  0.4398120000000  0.4838030000000  0.5273150000000 1.0
C      1  0.4398120000000  0.5296070000000  0.5000570000000 1.0
C      1  0.4398120000000  0.4830990000000  0.4740190000000 1.0
C      1  0.5161270000000  0.4638260000000  0.5047420000000 1.0
C      1  0.5161270000000  0.5200460000000  0.5286440000000 1.0
C      1  0.5161270000000  0.5126360000000  0.4680050000000 1.0
C      1  0.4374340000000  0.4664840000000  0.5030710000000 1.0
C      1  0.4374340000000  0.5172700000000  0.5271780000000 1.0
C      1  0.4374340000000  0.5127550000000  0.4711430000000 1.0
C      1  0.4707650000000  0.4918880000000  0.5293230000000 1.0
C      1  0.4707650000000  0.5273040000000  0.4920510000000 1.0
C      1  0.4707650000000  0.4773170000000  0.4800170000000 1.0
C      1  0.5353940000000  0.5450540000000  0.4325730000000 1.0
C      1  0.5353940000000  0.4169330000000  0.4943830000000 1.0
C      1  0.5353940000000  0.5345220000000  0.5744350000000 1.0
C      1  0.4672630000000  0.4519820000000  0.4978340000000 1.0
C      1  0.4672630000000  0.5199870000000  0.5423560000000 1.0
C      1  0.4672630000000  0.5245410000000  0.4612010000000 1.0
C      1  0.5492090000000  0.4889350000000  0.4783350000000 1.0
C      1  0.5492090000000  0.4846230000000  0.5201030000000 1.0
C      1  0.5492090000000  0.5229510000000  0.5029540000000 1.0
C      1  0.5545190000000  0.4964540000000  0.5460550000000 1.0
C      1  0.5545190000000  0.5395110000000  0.4797310000000 1.0
C      1  0.5545190000000  0.4605440000000  0.4756050000000 1.0
C      1  0.4793280000000  0.4988360000000  0.5004640000000 1.0
C      1  0.5238250000000  0.4988360000000  0.5004640000000 1.0
END
