TITL C-862134-6730-1225 2.98580104652795e-05 125000 -514.413496200872 0 0 96 (D2d) n - 1
REM
REM in /home/nfs/bkarasulu/CARBON/AIRSS/Generating-Clusters/TERSOFF/Higher-Symm/FIRE-HFTN
REM
REM
REM
REM
REM
REM ./C.cell (b20cbc046b6831c77cfcea5457e17084)
REM AIRSS Version 0.9.1 bugfix July 2018 build 013d7b7c2542+ Fri, 06 Jul 2018 19:26:36 +0100
REM compiler GCC version 9.2.1 20190827 (Red Hat 9.2.1-1)
REM options -cpp -mtune=generic -march=x86-64 -g -O0 -fpre-include=/usr/include/finclude/math-vector-fortran.h
REM seed -2062943798 -54351590 -1781746030 41030179 -944695507 -420523780 1286223399 -1097482448 619805250 539828086 1571049408 871621448 -1739693935 1980136037 791608031 -1768246368 -1290500221 1726124194 1341901854 -1887782722 -2024362569 1372993092 -768544590 -681438072 -1453283593 -315972591 -937350100 1546941405 1370847503 -840551860 -1876849725 -1158411867 -632361893
REM
CELL 1.54180   50.00000   50.00000   50.00000   90.00000   90.00000   90.00000
LATT -1
SFAC C  
C      1  0.4904440000000  0.5129390000000  0.5338070000000 1.0
C      1  0.5095560000000  0.5129390000000  0.4661930000000 1.0
C      1  0.4904440000000  0.4870610000000  0.4661930000000 1.0
C      1  0.5095560000000  0.4870610000000  0.5338070000000 1.0
C      1  0.5338070000000  0.5129390000000  0.4904440000000 1.0
C      1  0.4661930000000  0.5129390000000  0.5095560000000 1.0
C      1  0.4661930000000  0.4870610000000  0.4904440000000 1.0
C      1  0.5338070000000  0.4870610000000  0.5095560000000 1.0
C      1  0.5068060000000  0.4504520000000  0.5689450000000 1.0
C      1  0.4931940000000  0.4504520000000  0.4310550000000 1.0
C      1  0.5068060000000  0.5495480000000  0.4310550000000 1.0
C      1  0.4931940000000  0.5495480000000  0.5689450000000 1.0
C      1  0.5689450000000  0.4504520000000  0.5068060000000 1.0
C      1  0.4310550000000  0.4504520000000  0.4931940000000 1.0
C      1  0.4310550000000  0.5495480000000  0.5068060000000 1.0
C      1  0.5689450000000  0.5495480000000  0.4931940000000 1.0
C      1  0.5855210000000  0.5175580000000  0.5638430000000 1.0
C      1  0.4144790000000  0.5175580000000  0.4361570000000 1.0
C      1  0.5855210000000  0.4824420000000  0.4361570000000 1.0
C      1  0.4144790000000  0.4824420000000  0.5638430000000 1.0
C      1  0.5638430000000  0.5175580000000  0.5855210000000 1.0
C      1  0.4361570000000  0.5175580000000  0.4144790000000 1.0
C      1  0.4361570000000  0.4824420000000  0.5855210000000 1.0
C      1  0.5638430000000  0.4824420000000  0.4144790000000 1.0
C      1  0.5224120000000  0.4587410000000  0.4382140000000 1.0
C      1  0.4775880000000  0.4587410000000  0.5617860000000 1.0
C      1  0.5224120000000  0.5412590000000  0.5617860000000 1.0
C      1  0.4775880000000  0.5412590000000  0.4382140000000 1.0
C      1  0.4382140000000  0.4587410000000  0.5224120000000 1.0
C      1  0.5617860000000  0.4587410000000  0.4775880000000 1.0
C      1  0.5617860000000  0.5412590000000  0.5224120000000 1.0
C      1  0.4382140000000  0.5412590000000  0.4775880000000 1.0
C      1  0.4740320000000  0.5124870000000  0.5641470000000 1.0
C      1  0.5259680000000  0.5124870000000  0.4358530000000 1.0
C      1  0.4740320000000  0.4875130000000  0.4358530000000 1.0
C      1  0.5259680000000  0.4875130000000  0.5641470000000 1.0
C      1  0.5641470000000  0.5124870000000  0.4740320000000 1.0
C      1  0.4358530000000  0.5124870000000  0.5259680000000 1.0
C      1  0.4358530000000  0.4875130000000  0.4740320000000 1.0
C      1  0.5641470000000  0.4875130000000  0.5259680000000 1.0
C      1  0.4587740000000  0.4357930000000  0.5614570000000 1.0
C      1  0.5412260000000  0.4357930000000  0.4385430000000 1.0
C      1  0.4587740000000  0.5642070000000  0.4385430000000 1.0
C      1  0.5412260000000  0.5642070000000  0.5614570000000 1.0
C      1  0.5614570000000  0.4357930000000  0.4587740000000 1.0
C      1  0.4385430000000  0.4357930000000  0.5412260000000 1.0
C      1  0.4385430000000  0.5642070000000  0.4587740000000 1.0
C      1  0.5614570000000  0.5642070000000  0.5412260000000 1.0
C      1  0.5098210000000  0.4900060000000  0.5883000000000 1.0
C      1  0.4901790000000  0.4900060000000  0.4117000000000 1.0
C      1  0.5098210000000  0.5099940000000  0.4117000000000 1.0
C      1  0.4901790000000  0.5099940000000  0.5883000000000 1.0
C      1  0.5883000000000  0.4900060000000  0.5098210000000 1.0
C      1  0.4117000000000  0.4900060000000  0.4901790000000 1.0
C      1  0.4117000000000  0.5099940000000  0.5098210000000 1.0
C      1  0.5883000000000  0.5099940000000  0.4901790000000 1.0
C      1  0.4599590000000  0.5151150000000  0.4356640000000 1.0
C      1  0.5400410000000  0.5151150000000  0.5643360000000 1.0
C      1  0.4599590000000  0.4848850000000  0.5643360000000 1.0
C      1  0.5400410000000  0.4848850000000  0.4356640000000 1.0
C      1  0.4356640000000  0.5151150000000  0.4599590000000 1.0
C      1  0.5643360000000  0.5151150000000  0.5400410000000 1.0
C      1  0.5643360000000  0.4848850000000  0.4599590000000 1.0
C      1  0.4356640000000  0.4848850000000  0.5400410000000 1.0
C      1  0.5328730000000  0.5364930000000  0.5104630000000 1.0
C      1  0.4671270000000  0.5364930000000  0.4895370000000 1.0
C      1  0.5328730000000  0.4635070000000  0.4895370000000 1.0
C      1  0.4671270000000  0.4635070000000  0.5104630000000 1.0
C      1  0.5104630000000  0.5364930000000  0.5328730000000 1.0
C      1  0.4895370000000  0.5364930000000  0.4671270000000 1.0
C      1  0.4895370000000  0.4635070000000  0.5328730000000 1.0
C      1  0.5104630000000  0.4635070000000  0.4671270000000 1.0
C      1  0.5656020000000  0.4658510000000  0.5457220000000 1.0
C      1  0.4343980000000  0.4658510000000  0.4542780000000 1.0
C      1  0.5656020000000  0.5341490000000  0.4542780000000 1.0
C      1  0.4343980000000  0.5341490000000  0.5457220000000 1.0
C      1  0.5457220000000  0.4658510000000  0.5656020000000 1.0
C      1  0.4542780000000  0.4658510000000  0.4343980000000 1.0
C      1  0.4542780000000  0.5341490000000  0.5656020000000 1.0
C      1  0.5457220000000  0.5341490000000  0.4343980000000 1.0
C      1  0.4761540000000  0.5650600000000  0.5013410000000 1.0
C      1  0.5238460000000  0.5650600000000  0.4986590000000 1.0
C      1  0.4761540000000  0.4349400000000  0.4986590000000 1.0
C      1  0.5238460000000  0.4349400000000  0.5013410000000 1.0
C      1  0.5013410000000  0.5650600000000  0.4761540000000 1.0
C      1  0.4986590000000  0.5650600000000  0.5238460000000 1.0
C      1  0.4986590000000  0.4349400000000  0.4761540000000 1.0
C      1  0.5013410000000  0.4349400000000  0.5238460000000 1.0
C      1  0.5483770000000  0.5655830000000  0.4763010000000 1.0
C      1  0.4516230000000  0.5655830000000  0.5236990000000 1.0
C      1  0.5483770000000  0.4344170000000  0.5236990000000 1.0
C      1  0.4516230000000  0.4344170000000  0.4763010000000 1.0
C      1  0.4763010000000  0.5655830000000  0.5483770000000 1.0
C      1  0.5236990000000  0.5655830000000  0.4516230000000 1.0
C      1  0.5236990000000  0.4344170000000  0.5483770000000 1.0
C      1  0.4763010000000  0.4344170000000  0.4516230000000 1.0
END
