TITL C-862500-986-1003 0.000624970251293983 125000 -642.455371729657 0 0 120 (C1) n - 1
REM
REM in /home/nfs/bkarasulu/CARBON/AIRSS/Generating-Clusters/TERSOFF/Higher-Symm/FIRE-HFTN
REM
REM
REM
REM
REM
REM ./C.cell (b20cbc046b6831c77cfcea5457e17084)
REM AIRSS Version 0.9.1 bugfix July 2018 build 013d7b7c2542+ Fri, 06 Jul 2018 19:26:36 +0100
REM compiler GCC version 9.2.1 20190827 (Red Hat 9.2.1-1)
REM options -cpp -mtune=generic -march=x86-64 -g -O0 -fpre-include=/usr/include/finclude/math-vector-fortran.h
REM seed 271817368 431871490 1511494989 113573975 274715155 -781581578 1819292260 -67619000 689144887 1170254787 2094478488 -1254732601 -1726115364 -49329916 -1323941506 2075584658 -1634927018 1176394416 1078876481 -163964199 -883097903 -409159005 1300496056 771968991 -824028674 1258122474 509745165 457297392 954035396 164005183 851594397 -1202262638 -997956626
REM
CELL 1.54180   50.00000   50.00000   50.00000   90.00000   90.00000   90.00000
LATT -1
SFAC C  
C      1  0.4454370000000  0.5597150000000  0.4325580000000 1.0
C      1  0.5711310000000  0.4355090000000  0.4646080000000 1.0
C      1  0.4241670000000  0.4582580000000  0.5698250000000 1.0
C      1  0.5617590000000  0.4515490000000  0.4416670000000 1.0
C      1  0.4500010000000  0.4347650000000  0.5707100000000 1.0
C      1  0.5398290000000  0.5601640000000  0.5649990000000 1.0
C      1  0.4261100000000  0.5610580000000  0.4615170000000 1.0
C      1  0.5665720000000  0.5615590000000  0.5430420000000 1.0
C      1  0.4291360000000  0.4336300000000  0.5436270000000 1.0
C      1  0.5667680000000  0.5370330000000  0.5696620000000 1.0
C      1  0.4223360000000  0.5331630000000  0.4383400000000 1.0
C      1  0.5775830000000  0.4754190000000  0.4323230000000 1.0
C      1  0.4593740000000  0.5679970000000  0.5688870000000 1.0
C      1  0.5593860000000  0.4222480000000  0.5450710000000 1.0
C      1  0.4481700000000  0.4396390000000  0.4451550000000 1.0
C      1  0.5327380000000  0.4271760000000  0.5690530000000 1.0
C      1  0.4738850000000  0.4326400000000  0.4316990000000 1.0
C      1  0.5340930000000  0.5636030000000  0.4259930000000 1.0
C      1  0.4331710000000  0.5725360000000  0.5466960000000 1.0
C      1  0.5701750000000  0.5703060000000  0.4620140000000 1.0
C      1  0.4376990000000  0.4218680000000  0.4664100000000 1.0
C      1  0.5560600000000  0.5524170000000  0.4425440000000 1.0
C      1  0.4315230000000  0.5456910000000  0.5697200000000 1.0
C      1  0.5612610000000  0.4486580000000  0.5693680000000 1.0
C      1  0.4752280000000  0.5270720000000  0.4614460000000 1.0
C      1  0.5335330000000  0.4558730000000  0.4905750000000 1.0
C      1  0.4463370000000  0.4856360000000  0.5355070000000 1.0
C      1  0.5255320000000  0.4772930000000  0.4501860000000 1.0
C      1  0.4741710000000  0.4705610000000  0.5403890000000 1.0
C      1  0.5180570000000  0.5242990000000  0.5331850000000 1.0
C      1  0.4743680000000  0.5541080000000  0.4814920000000 1.0
C      1  0.5291950000000  0.5467830000000  0.5109740000000 1.0
C      1  0.4697770000000  0.4497050000000  0.5158340000000 1.0
C      1  0.5503460000000  0.5081390000000  0.5329540000000 1.0
C      1  0.4495080000000  0.5103110000000  0.4709010000000 1.0
C      1  0.5433860000000  0.4833490000000  0.4741460000000 1.0
C      1  0.4819300000000  0.5314940000000  0.5347890000000 1.0
C      1  0.5275460000000  0.4588670000000  0.5210540000000 1.0
C      1  0.4483280000000  0.4772530000000  0.4760280000000 1.0
C      1  0.5092450000000  0.4647560000000  0.5452850000000 1.0
C      1  0.4922340000000  0.4714160000000  0.4566500000000 1.0
C      1  0.5080120000000  0.5335650000000  0.4547130000000 1.0
C      1  0.4732270000000  0.5572020000000  0.5157500000000 1.0
C      1  0.5272700000000  0.5380320000000  0.4798560000000 1.0
C      1  0.4743820000000  0.4625060000000  0.4848080000000 1.0
C      1  0.5496510000000  0.5158730000000  0.4748480000000 1.0
C      1  0.4509610000000  0.5178790000000  0.5306750000000 1.0
C      1  0.5531310000000  0.4745560000000  0.5270710000000 1.0
C      1  0.4858900000000  0.5596580000000  0.5566850000000 1.0
C      1  0.5766650000000  0.5644020000000  0.4911720000000 1.0
C      1  0.5615320000000  0.4749560000000  0.5560940000000 1.0
C      1  0.5047460000000  0.4363800000000  0.5621490000000 1.0
C      1  0.4992390000000  0.4470040000000  0.4378750000000 1.0
C      1  0.5039230000000  0.5618660000000  0.4331890000000 1.0
C      1  0.4259390000000  0.4310770000000  0.4919830000000 1.0
C      1  0.5700920000000  0.4245800000000  0.5159340000000 1.0
C      1  0.4405570000000  0.5677440000000  0.5171220000000 1.0
C      1  0.4339100000000  0.5194110000000  0.5570350000000 1.0
C      1  0.5575380000000  0.5232200000000  0.4470150000000 1.0
C      1  0.4389430000000  0.4696110000000  0.4459270000000 1.0
C      1  0.4734770000000  0.5520140000000  0.4396090000000 1.0
C      1  0.5585320000000  0.5570800000000  0.5146280000000 1.0
C      1  0.5673190000000  0.5033140000000  0.4267710000000 1.0
C      1  0.5318070000000  0.4486230000000  0.4334340000000 1.0
C      1  0.4753370000000  0.4476510000000  0.5631390000000 1.0
C      1  0.5152590000000  0.5498450000000  0.5525760000000 1.0
C      1  0.4409170000000  0.4384740000000  0.5168180000000 1.0
C      1  0.5580960000000  0.4365610000000  0.4908740000000 1.0
C      1  0.4448160000000  0.5624650000000  0.4852800000000 1.0
C      1  0.4310360000000  0.5038500000000  0.4450910000000 1.0
C      1  0.5643590000000  0.5062390000000  0.5653800000000 1.0
C      1  0.4302090000000  0.4884680000000  0.5664150000000 1.0
C      1  0.5103370000000  0.4728300000000  0.5938670000000 1.0
C      1  0.4825640000000  0.6059970000000  0.5076230000000 1.0
C      1  0.5988800000000  0.5155530000000  0.4748320000000 1.0
C      1  0.4877580000000  0.5323670000000  0.5884850000000 1.0
C      1  0.5037730000000  0.5319660000000  0.4037600000000 1.0
C      1  0.4869070000000  0.4725320000000  0.4065540000000 1.0
C      1  0.5324350000000  0.4074540000000  0.5087070000000 1.0
C      1  0.4742520000000  0.4091120000000  0.4826680000000 1.0
C      1  0.5389500000000  0.5915730000000  0.4802840000000 1.0
C      1  0.3990120000000  0.4851480000000  0.4775040000000 1.0
C      1  0.6022660000000  0.4785440000000  0.5220200000000 1.0
C      1  0.4015220000000  0.5200520000000  0.5270250000000 1.0
C      1  0.5145660000000  0.4798740000000  0.4020800000000 1.0
C      1  0.4843460000000  0.6032880000000  0.4789140000000 1.0
C      1  0.6006720000000  0.5067110000000  0.5286100000000 1.0
C      1  0.4759210000000  0.5252810000000  0.4073580000000 1.0
C      1  0.5160070000000  0.5269050000000  0.5877260000000 1.0
C      1  0.4817350000000  0.4772270000000  0.5932140000000 1.0
C      1  0.5294830000000  0.4079540000000  0.4796720000000 1.0
C      1  0.4767830000000  0.4007450000000  0.5103400000000 1.0
C      1  0.5370150000000  0.5964500000000  0.5085800000000 1.0
C      1  0.3982780000000  0.4913370000000  0.5301100000000 1.0
C      1  0.5963500000000  0.4877030000000  0.4677880000000 1.0
C      1  0.4008290000000  0.5139240000000  0.4745260000000 1.0
C      1  0.4268320000000  0.5283640000000  0.5139340000000 1.0
C      1  0.5195750000000  0.5224190000000  0.4268620000000 1.0
C      1  0.5174510000000  0.4284030000000  0.5229700000000 1.0
C      1  0.5773410000000  0.4687440000000  0.5097750000000 1.0
C      1  0.4220970000000  0.4728740000000  0.4912400000000 1.0
C      1  0.5747840000000  0.5225070000000  0.4901210000000 1.0
C      1  0.4764170000000  0.4825340000000  0.4322340000000 1.0
C      1  0.5210530000000  0.4814320000000  0.5677390000000 1.0
C      1  0.4749830000000  0.5189470000000  0.5655810000000 1.0
C      1  0.4909560000000  0.5812660000000  0.5210730000000 1.0
C      1  0.5216170000000  0.5700690000000  0.4703410000000 1.0
C      1  0.4872420000000  0.4345150000000  0.4760510000000 1.0
C      1  0.4263110000000  0.5247820000000  0.4849290000000 1.0
C      1  0.5226930000000  0.5102670000000  0.5644360000000 1.0
C      1  0.5165730000000  0.4343200000000  0.4742560000000 1.0
C      1  0.5738100000000  0.4741530000000  0.4808260000000 1.0
C      1  0.4214750000000  0.4755240000000  0.5204070000000 1.0
C      1  0.5756630000000  0.5190180000000  0.5189720000000 1.0
C      1  0.4721310000000  0.4896050000000  0.5683590000000 1.0
C      1  0.5263820000000  0.4942190000000  0.4249850000000 1.0
C      1  0.4703500000000  0.5107810000000  0.4324110000000 1.0
C      1  0.4923440000000  0.5762190000000  0.4708570000000 1.0
C      1  0.5195970000000  0.5756720000000  0.5197610000000 1.0
C      1  0.4878290000000  0.4252160000000  0.5228250000000 1.0
END
