TITL C-862131-2149-457 -8.65858558502119e-08 125000 -123.991201186558 0 0 25 (D5h) n - 1
REM
REM in /home/nfs/bkarasulu/CARBON/AIRSS/Generating-Clusters/TERSOFF/Higher-Symm/FIRE-HFTN
REM
REM
REM
REM
REM
REM ./C.cell (b20cbc046b6831c77cfcea5457e17084)
REM AIRSS Version 0.9.1 bugfix July 2018 build 013d7b7c2542+ Fri, 06 Jul 2018 19:26:36 +0100
REM compiler GCC version 9.2.1 20190827 (Red Hat 9.2.1-1)
REM options -cpp -mtune=generic -march=x86-64 -g -O0 -fpre-include=/usr/include/finclude/math-vector-fortran.h
REM seed -154580066 1003848451 1110548454 940213608 -182553402 1697437977 -450074579 744426727 -909516525 2117003353 510045244 -1070419634 -478084060 -371906218 849658675 -968416336 2008468876 -263425661 -811876710 1423623944 -1401445247 -1495618534 1258305841 -863533817 -586038427 -386439460 -1404759982 -955355214 -1069277892 1112393794 1378133069 1569562982 -1854578340
REM
CELL 1.54180   50.00000   50.00000   50.00000   90.00000   90.00000   90.00000
LATT -1
SFAC C  
C      1  0.4521780000000  0.5366620000000  0.5266190000000 1.0
C      1  0.4521820000000  0.5366480000000  0.4733560000000 1.0
C      1  0.4521830000000  0.4859880000000  0.4569100000000 1.0
C      1  0.4521800000000  0.4546920000000  0.5000080000000 1.0
C      1  0.4521770000000  0.4860100000000  0.5430910000000 1.0
C      1  0.5510080000000  0.5366490000000  0.4733630000000 1.0
C      1  0.5510050000000  0.5366620000000  0.5266260000000 1.0
C      1  0.5510040000000  0.4860100000000  0.5430970000000 1.0
C      1  0.5510070000000  0.4546920000000  0.5000150000000 1.0
C      1  0.5510100000000  0.4859880000000  0.4569160000000 1.0
C      1  0.4750580000000  0.5213850000000  0.5155280000000 1.0
C      1  0.4750600000000  0.5213780000000  0.4844580000000 1.0
C      1  0.4750610000000  0.4918270000000  0.4748650000000 1.0
C      1  0.4750590000000  0.4735710000000  0.5000050000000 1.0
C      1  0.4750570000000  0.4918390000000  0.5251360000000 1.0
C      1  0.5281290000000  0.5213780000000  0.4844620000000 1.0
C      1  0.5281270000000  0.5213860000000  0.5155310000000 1.0
C      1  0.5281260000000  0.4918390000000  0.5251390000000 1.0
C      1  0.5281280000000  0.4735710000000  0.5000080000000 1.0
C      1  0.5281300000000  0.4918270000000  0.4748680000000 1.0
C      1  0.5015950000000  0.5327420000000  0.4761990000000 1.0
C      1  0.5015960000000  0.4874820000000  0.4615050000000 1.0
C      1  0.5015940000000  0.4595210000000  0.5000100000000 1.0
C      1  0.5015910000000  0.4875010000000  0.5385010000000 1.0
C      1  0.5015920000000  0.5327540000000  0.5237850000000 1.0
END
