TITL C-862505-1648-648 11.4366643483407 125000 -896.660187437053 0 0 158 (C3) n - 1
REM
REM in /home/nfs/bkarasulu/CARBON/AIRSS/Generating-Clusters/TERSOFF/Higher-Symm/FIRE-HFTN
REM
REM
REM
REM
REM
REM ./C.cell (b20cbc046b6831c77cfcea5457e17084)
REM AIRSS Version 0.9.1 bugfix July 2018 build 013d7b7c2542+ Fri, 06 Jul 2018 19:26:36 +0100
REM compiler GCC version 9.2.1 20190827 (Red Hat 9.2.1-1)
REM options -cpp -mtune=generic -march=x86-64 -g -O0 -fpre-include=/usr/include/finclude/math-vector-fortran.h
REM seed -1684552981 -1082937033 -748948546 -462297927 -1697375889 542188836 791206587 1031405334 -1769112289 -708779257 -2140313605 -1707855534 2072134821 521867743 -1644466739 232622428 1058173824 2073211354 -1292609830 732031885 -1367607159 94767091 -1030559923 1429978785 1041048669 2046679830 1028348523 -1418491603 376497116 -310914598 1296942282 765111618 -994312575
REM
CELL 1.54180   50.00000   50.00000   50.00000   90.00000   90.00000   90.00000
LATT -1
SFAC C  
C      1  0.5516250000000  0.4612830000000  0.5633860000000 1.0
C      1  0.5295380000000  0.4612830000000  0.4240030000000 1.0
C      1  0.4198730000000  0.4612830000000  0.5128230000000 1.0
C      1  0.5454040000000  0.4158950000000  0.4397790000000 1.0
C      1  0.4256020000000  0.4158950000000  0.4911950000000 1.0
C      1  0.5300310000000  0.4158950000000  0.5692390000000 1.0
C      1  0.4545300000000  0.5396040000000  0.5834840000000 1.0
C      1  0.5954910000000  0.5396040000000  0.4980420000000 1.0
C      1  0.4510160000000  0.5396040000000  0.4186870000000 1.0
C      1  0.4456140000000  0.4793360000000  0.5075580000000 1.0
C      1  0.5341960000000  0.4793360000000  0.5437260000000 1.0
C      1  0.5212270000000  0.4793360000000  0.4489280000000 1.0
C      1  0.4890270000000  0.5142310000000  0.5269730000000 1.0
C      1  0.5293020000000  0.5142310000000  0.4964210000000 1.0
C      1  0.4827070000000  0.5142310000000  0.4768180000000 1.0
C      1  0.4903470000000  0.4276270000000  0.4321110000000 1.0
C      1  0.4464900000000  0.4276270000000  0.5427090000000 1.0
C      1  0.5641990000000  0.4276270000000  0.5253910000000 1.0
C      1  0.5527340000000  0.6045190000000  0.5387620000000 1.0
C      1  0.5076590000000  0.6045190000000  0.4353550000000 1.0
C      1  0.4406430000000  0.6045190000000  0.5260950000000 1.0
C      1  0.4369820000000  0.4673420000000  0.4502820000000 1.0
C      1  0.4889090000000  0.4673410000000  0.5798390000000 1.0
C      1  0.5751450000000  0.4673420000000  0.4700910000000 1.0
C      1  0.4632570000000  0.4471970000000  0.4814890000000 1.0
C      1  0.5027970000000  0.4471970000000  0.5414810000000 1.0
C      1  0.5349820000000  0.4471970000000  0.4772420000000 1.0
C      1  0.4889150000000  0.3952130000000  0.5364170000000 1.0
C      1  0.5375370000000  0.3952130000000  0.4917970000000 1.0
C      1  0.4745840000000  0.3952130000000  0.4719980000000 1.0
C      1  0.4658970000000  0.5349200000000  0.4883200000000 1.0
C      1  0.5073930000000  0.5349200000000  0.5357790000000 1.0
C      1  0.5277460000000  0.5349200000000  0.4761130000000 1.0
C      1  0.4686950000000  0.4998550000000  0.5474270000000 1.0
C      1  0.5571830000000  0.4998550000000  0.5038030000000 1.0
C      1  0.4751590000000  0.4998550000000  0.4489820000000 1.0
C      1  0.4800490000000  0.4353060000000  0.5830300000000 1.0
C      1  0.5823390000000  0.4353060000000  0.4761680000000 1.0
C      1  0.4386490000000  0.4353060000000  0.4410140000000 1.0
C      1  0.5791340000000  0.5889980000000  0.5374880000000 1.0
C      1  0.4933550000000  0.5889980000000  0.4131300000000 1.0
C      1  0.4285470000000  0.5889980000000  0.5495950000000 1.0
C      1  0.4740840000000  0.5042950000000  0.4034090000000 1.0
C      1  0.4297650000000  0.5042950000000  0.5711450000000 1.0
C      1  0.5971880000000  0.5042950000000  0.5256580000000 1.0
C      1  0.5786360000000  0.4579320000000  0.5277500000000 1.0
C      1  0.4851710000000  0.4579320000000  0.4184290000000 1.0
C      1  0.4372290000000  0.4579320000000  0.5540330000000 1.0
C      1  0.6043220000000  0.4587550000000  0.5420610000000 1.0
C      1  0.4847220000000  0.4587550000000  0.3890290000000 1.0
C      1  0.4119920000000  0.4587550000000  0.5691220000000 1.0
C      1  0.5266280000000  0.4902400000000  0.6036170000000 1.0
C      1  0.5768780000000  0.4902400000000  0.4255370000000 1.0
C      1  0.3975310000000  0.4902400000000  0.4710590000000 1.0
C      1  0.4029370000000  0.5753540000000  0.5068660000000 1.0
C      1  0.5549340000000  0.5753540000000  0.5810310000000 1.0
C      1  0.5431650000000  0.5753540000000  0.4123150000000 1.0
C      1  0.4040350000000  0.4383770000000  0.4796550000000 1.0
C      1  0.5308200000000  0.4383770000000  0.5936860000000 1.0
C      1  0.5661820000000  0.4383770000000  0.4268710000000 1.0
C      1  0.5747740000000  0.4773480000000  0.5757250000000 1.0
C      1  0.5286500000000  0.4773480000000  0.3977870000000 1.0
C      1  0.3976120000000  0.4773480000000  0.5267000000000 1.0
C      1  0.4757780000000  0.5686870000000  0.5618890000000 1.0
C      1  0.5661650000000  0.5686870000000  0.4904380000000 1.0
C      1  0.4590930000000  0.5686870000000  0.4478860000000 1.0
C      1  0.5032530000000  0.5508480000000  0.4759970000000 1.0
C      1  0.4780430000000  0.5508480000000  0.5095890000000 1.0
C      1  0.5197400000000  0.5508480000000  0.5146260000000 1.0
C      1  0.4206290000000  0.5477980000000  0.5494810000000 1.0
C      1  0.5829940000000  0.5477980000000  0.5444020000000 1.0
C      1  0.4974130000000  0.5477980000000  0.4063290000000 1.0
C      1  0.4451890000000  0.4824730000000  0.5387660000000 1.0
C      1  0.5614350000000  0.4824730000000  0.5284900000000 1.0
C      1  0.4944130000000  0.4824730000000  0.4329560000000 1.0
C      1  0.4815500000000  0.4388450000000  0.5062470000000 1.0
C      1  0.5150920000000  0.4388450000000  0.5132600000000 1.0
C      1  0.5043940000000  0.4388450000000  0.4807050000000 1.0
C      1  0.4616850000000  0.4515110000000  0.3730510000000 1.0
C      1  0.4096730000000  0.4515110000000  0.5970610000000 1.0
C      1  0.6296780000000  0.4515110000000  0.5300990000000 1.0
C      1  0.5248360000000  0.5059140000000  0.4071460000000 1.0
C      1  0.4076250000000  0.5059140000000  0.5253240000000 1.0
C      1  0.5685760000000  0.5059140000000  0.5677430000000 1.0
C      1  0.5225760000000  0.5288940000000  0.5594280000000 1.0
C      1  0.5406350000000  0.5288940000000  0.4511400000000 1.0
C      1  0.4378260000000  0.5288940000000  0.4896440000000 1.0
C      1  0.5308640000000  0.5991890000000  0.5154860000000 1.0
C      1  0.4984360000000  0.5991890000000  0.4659330000000 1.0
C      1  0.4717360000000  0.5991890000000  0.5187930000000 1.0
C      1  0.5147490000000  0.5403180000000  0.5859840000000 1.0
C      1  0.5675470000000  0.5403180000000  0.4446400000000 1.0
C      1  0.4187400000000  0.5403180000000  0.4695880000000 1.0
C      1  0.5870010000000  0.5193550000000  0.5490190000000 1.0
C      1  0.4994080000000  0.5193550000000  0.4005510000000 1.0
C      1  0.4146270000000  0.5193550000000  0.5506420000000 1.0
C      1  0.4210960000000  0.5988340000000  0.5033750000000 1.0
C      1  0.5428320000000  0.5988340000000  0.5670510000000 1.0
C      1  0.5371090000000  0.5988340000000  0.4297860000000 1.0
C      1  0.4599200000000  0.4248000000000  0.4236520000000 1.0
C      1  0.4543780000000  0.4248000000000  0.5732900000000 1.0
C      1  0.5867390000000  0.4248000000000  0.5032700000000 1.0
C      1  0.4722200000000  0.5838760000000  0.4688200000000 1.0
C      1  0.4873440000000  0.5838760000000  0.5400540000000 1.0
C      1  0.5414720000000  0.5838760000000  0.4913380000000 1.0
C      1  0.5458120000000  0.4744040000000  0.4871710000000 1.0
C      1  0.4664410000000  0.4744040000000  0.4671450000000 1.0
C      1  0.4887840000000  0.4744040000000  0.5458960000000 1.0
C      1  0.4899760000000  0.4197510000000  0.4618700000000 1.0
C      1  0.4724470000000  0.4197510000000  0.5281510000000 1.0
C      1  0.5386130000000  0.4197510000000  0.5101910000000 1.0
C      1  0.4921810000000  0.5607290000000  0.5854090000000 1.0
C      1  0.5783330000000  0.5607290000000  0.4644720000000 1.0
C      1  0.4305220000000  0.5607290000000  0.4503310000000 1.0
C      1  0.4726430000000  0.5618930000000  0.4213790000000 1.0
C      1  0.4460470000000  0.5618930000000  0.5634070000000 1.0
C      1  0.5823460000000  0.5618930000000  0.5154260000000 1.0
C      1  0.5540220000000  0.4301740000000  0.4662190000000 1.0
C      1  0.4441900000000  0.4301740000000  0.4705110000000 1.0
C      1  0.5028240000000  0.4301740000000  0.5634820000000 1.0
C      1  0.5642000000000  0.5549730000000  0.4180180000000 1.0
C      1  0.3973590000000  0.5549730000000  0.4857980000000 1.0
C      1  0.5394780000000  0.5549730000000  0.5963960000000 1.0
C      1  0.5259060000000  0.5852660000000  0.4679100000000 1.0
C      1  0.4597140000000  0.5852660000000  0.4940150000000 1.0
C      1  0.5154170000000  0.5852660000000  0.5382870000000 1.0
C      1  0.4767750000000  0.4676050000000  0.5156000000000 1.0
C      1  0.5255790000000  0.4676050000000  0.5127190000000 1.0
C      1  0.4986820000000  0.4676050000000  0.4718930000000 1.0
C      1  0.4595190000000  0.5109390000000  0.5759360000000 1.0
C      1  0.5864600000000  0.5109390000000  0.4974940000000 1.0
C      1  0.4550570000000  0.5109390000000  0.4267810000000 1.0
C      1  0.5805000000000  0.5694360000000  0.5661400000000 1.0
C      1  0.5174860000000  0.5694360000000  0.3976200000000 1.0
C      1  0.4030510000000  0.5694360000000  0.5364520000000 1.0
C      1  0.5341850000000  0.3934830000000  0.4613590000000 1.0
C      1  0.4499010000000  0.3934830000000  0.4901200000000 1.0
C      1  0.5169500000000  0.3934830000000  0.5487330000000 1.0
C      1  0.4251750000000  0.4326340000000  0.5183100000000 1.0
C      1  0.5537260000000  0.4326340000000  0.5560500000000 1.0
C      1  0.5221350000000  0.4326340000000  0.4258510000000 1.0
C      1  0.6013890000000  0.4675830000000  0.5693140000000 1.0
C      1  0.5097910000000  0.4675830000000  0.3779430000000 1.0
C      1  0.3898570000000  0.4675830000000  0.5529550000000 1.0
C      1  0.4810040000000  0.4965360000000  0.5916290000000 1.0
C      1  0.5893080000000  0.4965360000000  0.4710410000000 1.0
C      1  0.4307240000000  0.4965360000000  0.4375410000000 1.0
C      1  0.4102030000000  0.5129480000000  0.4553450000000 1.0
C      1  0.5066830000000  0.5129480000000  0.6004990000000 1.0
C      1  0.5841500000000  0.5129480000000  0.4443680000000 1.0
C      1  0.5311420000000  0.5058580000000  0.4361590000000 1.0
C      1  0.4295980000000  0.5058580000000  0.5053560000000 1.0
C      1  0.5402960000000  0.5058580000000  0.5586970000000 1.0
C      1  0.5719570000000  0.4646720000000  0.4396090000000 1.0
C      1  0.4121780000000  0.4646720000000  0.4682830000000 1.0
C      1  0.5169000000000  0.4646720000000  0.5923190000000 1.0
C      1  0.5003450000000  0.6084500000000  0.5000710000000 1.0
C      1  0.5003450000000  0.5030860000000  0.5000710000000 1.0
END
