TITL C-862130-1496-79 0.090627112925976 125000 -89.5168214171087 0 0 19 (C1) n - 1
REM
REM in /home/nfs/bkarasulu/CARBON/AIRSS/Generating-Clusters/TERSOFF/Higher-Symm/FIRE-HFTN
REM
REM
REM
REM
REM
REM ./C.cell (b20cbc046b6831c77cfcea5457e17084)
REM AIRSS Version 0.9.1 bugfix July 2018 build 013d7b7c2542+ Fri, 06 Jul 2018 19:26:36 +0100
REM compiler GCC version 9.2.1 20190827 (Red Hat 9.2.1-1)
REM options -cpp -mtune=generic -march=x86-64 -g -O0 -fpre-include=/usr/include/finclude/math-vector-fortran.h
REM seed -1361222639 -1090320052 -2028536934 -1129352545 269500777 1779048404 -1673049787 405427611 -2061366124 609302123 -118171119 751672597 1110548638 -1151644949 175265442 575540489 685113050 1072016431 -1947805595 1163671383 -1243328917 397639573 1910572836 -85072176 1255350718 -280826845 -960610977 -371562446 -1206299986 -1294487830 1981224008 1948179415 702389050
REM
CELL 1.54180   50.00000   50.00000   50.00000   90.00000   90.00000   90.00000
LATT -1
SFAC C  
C      1  0.5068470000000  0.5142320000000  0.4678190000000 1.0
C      1  0.4900280000000  0.5269070000000  0.5118710000000 1.0
C      1  0.4675630000000  0.5260910000000  0.5387560000000 1.0
C      1  0.5405170000000  0.5225870000000  0.4628500000000 1.0
C      1  0.4516190000000  0.5031300000000  0.5462640000000 1.0
C      1  0.5611870000000  0.5205490000000  0.4830080000000 1.0
C      1  0.5376020000000  0.4957860000000  0.5212460000000 1.0
C      1  0.4592890000000  0.4705550000000  0.5073850000000 1.0
C      1  0.4418330000000  0.5186900000000  0.4562040000000 1.0
C      1  0.5265910000000  0.4365440000000  0.5182220000000 1.0
C      1  0.4697900000000  0.4893880000000  0.4878790000000 1.0
C      1  0.5149910000000  0.4852040000000  0.5063410000000 1.0
C      1  0.5159390000000  0.5475490000000  0.4618640000000 1.0
C      1  0.5019360000000  0.5293840000000  0.5447380000000 1.0
C      1  0.5564290000000  0.5152730000000  0.5110670000000 1.0
C      1  0.4548330000000  0.4765130000000  0.5353560000000 1.0
C      1  0.5112720000000  0.4564730000000  0.5038720000000 1.0
C      1  0.4555350000000  0.4941120000000  0.4629820000000 1.0
C      1  0.4954260000000  0.5039990000000  0.4934630000000 1.0
END
