TITL C-862134-6730-453 1.0080400528049 125000 -737.50304662248 0 0 130 (Ci) n - 1
REM
REM in /home/nfs/bkarasulu/CARBON/AIRSS/Generating-Clusters/TERSOFF/Higher-Symm/FIRE-HFTN
REM
REM
REM
REM
REM
REM ./C.cell (b20cbc046b6831c77cfcea5457e17084)
REM AIRSS Version 0.9.1 bugfix July 2018 build 013d7b7c2542+ Fri, 06 Jul 2018 19:26:36 +0100
REM compiler GCC version 9.2.1 20190827 (Red Hat 9.2.1-1)
REM options -cpp -mtune=generic -march=x86-64 -g -O0 -fpre-include=/usr/include/finclude/math-vector-fortran.h
REM seed -1166532962 -1538396401 -506217696 -1309726778 449163967 -159882798 655611154 -856092316 -175500566 1581418950 -183870483 -1104012221 1721689511 613613420 1968758270 -441448643 798629063 1453773691 -988109420 947515698 789295508 108578851 1490516720 159061075 1930377309 1464849873 1296030456 520682818 -1763182097 380367733 2145022958 722596191 -2131912281
REM
CELL 1.54180   50.00000   50.00000   50.00000   90.00000   90.00000   90.00000
LATT -1
SFAC C  
C      1  0.4182040000000  0.5564660000000  0.4973320000000 1.0
C      1  0.5817960000000  0.4435340000000  0.5026680000000 1.0
C      1  0.4846630000000  0.5753580000000  0.4779560000000 1.0
C      1  0.5153370000000  0.4246420000000  0.5220440000000 1.0
C      1  0.5570230000000  0.4572640000000  0.5729510000000 1.0
C      1  0.4429770000000  0.5427360000000  0.4270490000000 1.0
C      1  0.4827750000000  0.4213720000000  0.4605530000000 1.0
C      1  0.5172250000000  0.5786280000000  0.5394470000000 1.0
C      1  0.4739620000000  0.4266580000000  0.4324060000000 1.0
C      1  0.5260380000000  0.5733420000000  0.5675940000000 1.0
C      1  0.4159720000000  0.5535110000000  0.5292200000000 1.0
C      1  0.5840280000000  0.4464890000000  0.4707800000000 1.0
C      1  0.5781090000000  0.5431160000000  0.4980170000000 1.0
C      1  0.4218910000000  0.4568840000000  0.5019830000000 1.0
C      1  0.5258710000000  0.5140290000000  0.5265520000000 1.0
C      1  0.4741290000000  0.4859710000000  0.4734480000000 1.0
C      1  0.5560290000000  0.5416540000000  0.4782050000000 1.0
C      1  0.4439710000000  0.4583460000000  0.5217950000000 1.0
C      1  0.5152640000000  0.5888490000000  0.5896730000000 1.0
C      1  0.4847360000000  0.4111510000000  0.4103270000000 1.0
C      1  0.4149860000000  0.4781990000000  0.4826430000000 1.0
C      1  0.5850140000000  0.5218010000000  0.5173570000000 1.0
C      1  0.4257800000000  0.4482410000000  0.4409070000000 1.0
C      1  0.5742200000000  0.5517590000000  0.5590930000000 1.0
C      1  0.5074420000000  0.4709950000000  0.4385910000000 1.0
C      1  0.4925580000000  0.5290050000000  0.5614090000000 1.0
C      1  0.3987600000000  0.4931460000000  0.4386000000000 1.0
C      1  0.6012400000000  0.5068540000000  0.5614000000000 1.0
C      1  0.4136550000000  0.4730150000000  0.4536650000000 1.0
C      1  0.5863450000000  0.5269850000000  0.5463350000000 1.0
C      1  0.5259910000000  0.4813800000000  0.3848250000000 1.0
C      1  0.4740090000000  0.5186190000000  0.6151740000000 1.0
C      1  0.5813650000000  0.5921840000000  0.5286450000000 1.0
C      1  0.4186350000000  0.4078160000000  0.4713550000000 1.0
C      1  0.4811770000000  0.4874250000000  0.5036300000000 1.0
C      1  0.5188230000000  0.5125750000000  0.4963700000000 1.0
C      1  0.4375490000000  0.5379380000000  0.4598660000000 1.0
C      1  0.5624510000000  0.4620620000000  0.5401340000000 1.0
C      1  0.5047200000000  0.4200180000000  0.5507430000000 1.0
C      1  0.4952800000000  0.5799820000000  0.4492570000000 1.0
C      1  0.5199690000000  0.5479010000000  0.4173330000000 1.0
C      1  0.4800310000000  0.4520990000000  0.5826670000000 1.0
C      1  0.5273460000000  0.4646230000000  0.5630360000000 1.0
C      1  0.4726540000000  0.5353770000000  0.4369640000000 1.0
C      1  0.4088450000000  0.5308040000000  0.4736700000000 1.0
C      1  0.5911550000000  0.4691960000000  0.5263300000000 1.0
C      1  0.4375750000000  0.4906950000000  0.5752650000000 1.0
C      1  0.5624250000000  0.5093050000000  0.4247350000000 1.0
C      1  0.5280510000000  0.4053940000000  0.5011860000000 1.0
C      1  0.4719490000000  0.5946060000000  0.4988140000000 1.0
C      1  0.4857540000000  0.4869090000000  0.4251020000000 1.0
C      1  0.5142460000000  0.5130910000000  0.5748980000000 1.0
C      1  0.5373480000000  0.5268280000000  0.5863130000000 1.0
C      1  0.4626520000000  0.4731720000000  0.4136870000000 1.0
C      1  0.4907990000000  0.5826280000000  0.6038340000000 1.0
C      1  0.5092010000000  0.4173720000000  0.3961660000000 1.0
C      1  0.5382020000000  0.5674210000000  0.5209640000000 1.0
C      1  0.4617980000000  0.4325790000000  0.4790360000000 1.0
C      1  0.4722500000000  0.4619430000000  0.5140380000000 1.0
C      1  0.5277500000000  0.5380570000000  0.4859620000000 1.0
C      1  0.5051110000000  0.4445150000000  0.5678340000000 1.0
C      1  0.4948890000000  0.5554850000000  0.4321660000000 1.0
C      1  0.5706150000000  0.4859470000000  0.4875180000000 1.0
C      1  0.4293850000000  0.5140530000000  0.5124820000000 1.0
C      1  0.4878850000000  0.5924790000000  0.5310620000000 1.0
C      1  0.5121150000000  0.4075210000000  0.4689380000000 1.0
C      1  0.5484560000000  0.4866680000000  0.6168860000000 1.0
C      1  0.4515440000000  0.5133320000000  0.3831140000000 1.0
C      1  0.5216930000000  0.4932130000000  0.5539000000000 1.0
C      1  0.4783070000000  0.5067870000000  0.4461000000000 1.0
C      1  0.4549570000000  0.5219320000000  0.5035300000000 1.0
C      1  0.5450430000000  0.4780680000000  0.4964700000000 1.0
C      1  0.4453550000000  0.4874530000000  0.3950720000000 1.0
C      1  0.5546450000000  0.5125470000000  0.6049280000000 1.0
C      1  0.4533750000000  0.4487220000000  0.4273470000000 1.0
C      1  0.5466250000000  0.5512780000000  0.5726530000000 1.0
C      1  0.5401840000000  0.4236390000000  0.4549890000000 1.0
C      1  0.4598160000000  0.5763610000000  0.5450110000000 1.0
C      1  0.4290640000000  0.5752870000000  0.5453880000000 1.0
C      1  0.5709360000000  0.4247130000000  0.4546120000000 1.0
C      1  0.4933360000000  0.5525840000000  0.5161760000000 1.0
C      1  0.5066640000000  0.4474160000000  0.4838240000000 1.0
C      1  0.5587230000000  0.4816420000000  0.4389280000000 1.0
C      1  0.4412770000000  0.5183580000000  0.5610720000000 1.0
C      1  0.4134160000000  0.5943910000000  0.5606310000000 1.0
C      1  0.5865840000000  0.4056090000000  0.4393690000000 1.0
C      1  0.4415510000000  0.4474080000000  0.5488920000000 1.0
C      1  0.5584490000000  0.5525920000000  0.4511080000000 1.0
C      1  0.5576150000000  0.4596720000000  0.4188880000000 1.0
C      1  0.4423850000000  0.5403280000000  0.5811120000000 1.0
C      1  0.5057730000000  0.5356520000000  0.5357800000000 1.0
C      1  0.4942270000000  0.4643480000000  0.4642200000000 1.0
C      1  0.5866640000000  0.5775140000000  0.5528640000000 1.0
C      1  0.4133360000000  0.4224860000000  0.4471360000000 1.0
C      1  0.4495750000000  0.5390920000000  0.3968570000000 1.0
C      1  0.5504250000000  0.4609080000000  0.6031440000000 1.0
C      1  0.5451400000000  0.5345160000000  0.4312170000000 1.0
C      1  0.4548600000000  0.4654840000000  0.5687830000000 1.0
C      1  0.6005490000000  0.4779310000000  0.5552740000000 1.0
C      1  0.3994510000000  0.5220690000000  0.4447260000000 1.0
C      1  0.5785660000000  0.4750830000000  0.4618380000000 1.0
C      1  0.4214340000000  0.5249170000000  0.5381620000000 1.0
C      1  0.5291870000000  0.4882140000000  0.4506050000000 1.0
C      1  0.4708130000000  0.5117860000000  0.5493950000000 1.0
C      1  0.4753160000000  0.4835090000000  0.5551940000000 1.0
C      1  0.5246840000000  0.5164910000000  0.4448060000000 1.0
C      1  0.4411520000000  0.4141540000000  0.4879800000000 1.0
C      1  0.5588480000000  0.5858460000000  0.5120200000000 1.0
C      1  0.5889440000000  0.4940280000000  0.5076720000000 1.0
C      1  0.4110560000000  0.5059720000000  0.4923280000000 1.0
C      1  0.4537330000000  0.4616650000000  0.4750190000000 1.0
C      1  0.5462670000000  0.5383350000000  0.5249810000000 1.0
C      1  0.4766780000000  0.4150520000000  0.5351170000000 1.0
C      1  0.5233220000000  0.5849480000000  0.4648830000000 1.0
C      1  0.5461180000000  0.4620190000000  0.3924290000000 1.0
C      1  0.4538830000000  0.5379820000000  0.6075710000000 1.0
C      1  0.4649540000000  0.5591480000000  0.5200810000000 1.0
C      1  0.5350460000000  0.4408520000000  0.4799190000000 1.0
C      1  0.5873820000000  0.4614730000000  0.5747220000000 1.0
C      1  0.4126180000000  0.5385270000000  0.4252780000000 1.0
C      1  0.5526940000000  0.4312240000000  0.5040970000000 1.0
C      1  0.4473060000000  0.5687760000000  0.4959030000000 1.0
C      1  0.4898090000000  0.4378020000000  0.5096950000000 1.0
C      1  0.5101910000000  0.5621980000000  0.4903050000000 1.0
C      1  0.4757000000000  0.5117120000000  0.5188830000000 1.0
C      1  0.5243000000000  0.4882880000000  0.4811170000000 1.0
C      1  0.5407260000000  0.4670440000000  0.5224410000000 1.0
C      1  0.4592740000000  0.5329560000000  0.4775590000000 1.0
C      1  0.4514840000000  0.4202190000000  0.5481950000000 1.0
C      1  0.5485150000000  0.5797810000000  0.4518050000000 1.0
END
