TITL C-862504-1170-50 -0.000308836291085889 125000 -775.459041102945 0 0 136 (C1) n - 1
REM
REM in /home/nfs/bkarasulu/CARBON/AIRSS/Generating-Clusters/TERSOFF/Higher-Symm/FIRE-HFTN
REM
REM
REM
REM
REM
REM ./C.cell (b20cbc046b6831c77cfcea5457e17084)
REM AIRSS Version 0.9.1 bugfix July 2018 build 013d7b7c2542+ Fri, 06 Jul 2018 19:26:36 +0100
REM compiler GCC version 9.2.1 20190827 (Red Hat 9.2.1-1)
REM options -cpp -mtune=generic -march=x86-64 -g -O0 -fpre-include=/usr/include/finclude/math-vector-fortran.h
REM seed 2117616027 -858421746 798102309 -1111344730 1228865022 -187316870 -39322387 937739232 222357131 1366720948 424343939 1687532295 -1130351859 -1202492543 268333076 594997253 1983733888 -1039541034 -992058071 -256377562 1349067008 -622651492 477556100 -967798698 -9345308 712899287 -1580136800 345206686 -614667966 -724974541 -2011313059 649319971 2003002267
REM
CELL 1.54180   50.00000   50.00000   50.00000   90.00000   90.00000   90.00000
LATT -1
SFAC C  
C      1  0.4626870000000  0.5256930000000  0.4677760000000 1.0
C      1  0.5375650000000  0.5258590000000  0.5325330000000 1.0
C      1  0.4625630000000  0.4740960000000  0.4675970000000 1.0
C      1  0.5374260000000  0.4741210000000  0.5325220000000 1.0
C      1  0.5377320000000  0.5260990000000  0.4670200000000 1.0
C      1  0.4625380000000  0.5258930000000  0.5326440000000 1.0
C      1  0.5375890000000  0.4741490000000  0.4672390000000 1.0
C      1  0.4623970000000  0.4741120000000  0.5326520000000 1.0
C      1  0.5202010000000  0.5586330000000  0.6022230000000 1.0
C      1  0.4878390000000  0.5570170000000  0.4001620000000 1.0
C      1  0.5114210000000  0.4426730000000  0.6000490000000 1.0
C      1  0.4883660000000  0.4429430000000  0.4000990000000 1.0
C      1  0.4888050000000  0.5572780000000  0.6000560000000 1.0
C      1  0.5192280000000  0.5587350000000  0.3973730000000 1.0
C      1  0.4800350000000  0.4413950000000  0.6023210000000 1.0
C      1  0.5197950000000  0.4413640000000  0.3975700000000 1.0
C      1  0.5592170000000  0.5616250000000  0.5634520000000 1.0
C      1  0.4405800000000  0.5610790000000  0.4354000000000 1.0
C      1  0.5587740000000  0.4393460000000  0.5654830000000 1.0
C      1  0.4408890000000  0.4390040000000  0.4347920000000 1.0
C      1  0.4412030000000  0.5606630000000  0.5657100000000 1.0
C      1  0.5585870000000  0.5612200000000  0.4354220000000 1.0
C      1  0.4407490000000  0.4383540000000  0.5636620000000 1.0
C      1  0.5589050000000  0.4386980000000  0.4360520000000 1.0
C      1  0.5820540000000  0.5662090000000  0.5277440000000 1.0
C      1  0.4172830000000  0.5657950000000  0.4723210000000 1.0
C      1  0.5826690000000  0.4340090000000  0.5274960000000 1.0
C      1  0.4172540000000  0.4338200000000  0.4724920000000 1.0
C      1  0.4169940000000  0.5658680000000  0.5275500000000 1.0
C      1  0.5823630000000  0.5663070000000  0.4724320000000 1.0
C      1  0.4175920000000  0.4338990000000  0.5277680000000 1.0
C      1  0.5823430000000  0.4341000000000  0.4722250000000 1.0
C      1  0.5304400000000  0.5140290000000  0.3943630000000 1.0
C      1  0.4683100000000  0.5147660000000  0.6046170000000 1.0
C      1  0.5305420000000  0.4860910000000  0.3944320000000 1.0
C      1  0.4679630000000  0.4867600000000  0.6050600000000 1.0
C      1  0.4671210000000  0.5139590000000  0.3959470000000 1.0
C      1  0.5320340000000  0.5132490000000  0.6050780000000 1.0
C      1  0.4672780000000  0.4858630000000  0.3958650000000 1.0
C      1  0.5317060000000  0.4852460000000  0.6046420000000 1.0
C      1  0.5146840000000  0.4321920000000  0.4638930000000 1.0
C      1  0.4851670000000  0.4321140000000  0.5360220000000 1.0
C      1  0.5146150000000  0.5677940000000  0.4637530000000 1.0
C      1  0.4847310000000  0.5676110000000  0.5364370000000 1.0
C      1  0.4847020000000  0.4323710000000  0.4636690000000 1.0
C      1  0.5151490000000  0.4324500000000  0.5363710000000 1.0
C      1  0.4846320000000  0.5676570000000  0.4637980000000 1.0
C      1  0.5147130000000  0.5678150000000  0.5359780000000 1.0
C      1  0.4345180000000  0.4835360000000  0.4625390000000 1.0
C      1  0.5655230000000  0.4836750000000  0.5373790000000 1.0
C      1  0.4346460000000  0.5162550000000  0.4628010000000 1.0
C      1  0.5658770000000  0.5162680000000  0.5367470000000 1.0
C      1  0.5658650000000  0.4838710000000  0.4631400000000 1.0
C      1  0.4341760000000  0.4837210000000  0.5369560000000 1.0
C      1  0.5660200000000  0.5163520000000  0.4628660000000 1.0
C      1  0.4345290000000  0.5163300000000  0.5375950000000 1.0
C      1  0.5310920000000  0.5742290000000  0.5597830000000 1.0
C      1  0.4686720000000  0.5736310000000  0.4395200000000 1.0
C      1  0.5307980000000  0.4265600000000  0.5608430000000 1.0
C      1  0.4689610000000  0.4264240000000  0.4392400000000 1.0
C      1  0.4691800000000  0.5734670000000  0.5609860000000 1.0
C      1  0.5305600000000  0.5740170000000  0.4396330000000 1.0
C      1  0.4688850000000  0.4257420000000  0.5599120000000 1.0
C      1  0.5308580000000  0.4259180000000  0.4399360000000 1.0
C      1  0.5907660000000  0.4829270000000  0.5175950000000 1.0
C      1  0.4093210000000  0.4827290000000  0.4824370000000 1.0
C      1  0.5910890000000  0.5174940000000  0.5168320000000 1.0
C      1  0.4097440000000  0.5170730000000  0.4831280000000 1.0
C      1  0.4092190000000  0.4825580000000  0.5167880000000 1.0
C      1  0.5908770000000  0.4827670000000  0.4831850000000 1.0
C      1  0.4095110000000  0.5170070000000  0.5175690000000 1.0
C      1  0.5913450000000  0.5174540000000  0.4824720000000 1.0
C      1  0.4795840000000  0.5150150000000  0.4449020000000 1.0
C      1  0.5213660000000  0.5149810000000  0.5557780000000 1.0
C      1  0.4795740000000  0.4848320000000  0.4448550000000 1.0
C      1  0.5206530000000  0.4848920000000  0.5555360000000 1.0
C      1  0.5215090000000  0.5150970000000  0.4438040000000 1.0
C      1  0.4794300000000  0.5151100000000  0.5555480000000 1.0
C      1  0.5215010000000  0.4850870000000  0.4438690000000 1.0
C      1  0.4787180000000  0.4849940000000  0.5557980000000 1.0
C      1  0.5310390000000  0.5510050000000  0.5178270000000 1.0
C      1  0.4685050000000  0.5511040000000  0.4821950000000 1.0
C      1  0.5314270000000  0.4488280000000  0.5179410000000 1.0
C      1  0.4684420000000  0.4487630000000  0.4820910000000 1.0
C      1  0.4683610000000  0.5512530000000  0.5181520000000 1.0
C      1  0.5311860000000  0.5511860000000  0.4818070000000 1.0
C      1  0.4687410000000  0.4488990000000  0.5180250000000 1.0
C      1  0.5311250000000  0.4489600000000  0.4819210000000 1.0
C      1  0.4330380000000  0.5308680000000  0.5642030000000 1.0
C      1  0.5664920000000  0.5313460000000  0.4362440000000 1.0
C      1  0.4329110000000  0.4682270000000  0.5632090000000 1.0
C      1  0.5666390000000  0.4686100000000  0.4366350000000 1.0
C      1  0.5670140000000  0.5317620000000  0.5630240000000 1.0
C      1  0.4325720000000  0.5312900000000  0.4365180000000 1.0
C      1  0.5668980000000  0.4691330000000  0.5640070000000 1.0
C      1  0.4327040000000  0.4687510000000  0.4361460000000 1.0
C      1  0.5687430000000  0.5146340000000  0.4120550000000 1.0
C      1  0.4297010000000  0.5139370000000  0.5881070000000 1.0
C      1  0.5689000000000  0.4850660000000  0.4122460000000 1.0
C      1  0.4298100000000  0.4843930000000  0.5876620000000 1.0
C      1  0.4284800000000  0.5148960000000  0.4123760000000 1.0
C      1  0.5700960000000  0.5155990000000  0.5874770000000 1.0
C      1  0.4285860000000  0.4853770000000  0.4121940000000 1.0
C      1  0.5702230000000  0.4860550000000  0.5879160000000 1.0
C      1  0.5564700000000  0.5710140000000  0.5148700000000 1.0
C      1  0.4428540000000  0.5708640000000  0.4851300000000 1.0
C      1  0.5569780000000  0.4289370000000  0.5149760000000 1.0
C      1  0.4429460000000  0.4287850000000  0.4850000000000 1.0
C      1  0.4426960000000  0.5710080000000  0.5150540000000 1.0
C      1  0.5566360000000  0.5711750000000  0.4849770000000 1.0
C      1  0.4431910000000  0.4290350000000  0.5149160000000 1.0
C      1  0.5567400000000  0.4291820000000  0.4850740000000 1.0
C      1  0.3984430000000  0.5468050000000  0.4841480000000 1.0
C      1  0.6012870000000  0.5476850000000  0.5158610000000 1.0
C      1  0.3986120000000  0.4528450000000  0.4844900000000 1.0
C      1  0.6013550000000  0.4530080000000  0.5154990000000 1.0
C      1  0.6013190000000  0.5476070000000  0.4844780000000 1.0
C      1  0.3984240000000  0.5467180000000  0.5155660000000 1.0
C      1  0.6014940000000  0.4527640000000  0.4841050000000 1.0
C      1  0.3984780000000  0.4525930000000  0.5159070000000 1.0
C      1  0.5166550000000  0.4700580000000  0.4152150000000 1.0
C      1  0.4823130000000  0.4702180000000  0.5850020000000 1.0
C      1  0.5164960000000  0.5300500000000  0.4150980000000 1.0
C      1  0.4835190000000  0.5298920000000  0.5846190000000 1.0
C      1  0.4826200000000  0.4702690000000  0.4154600000000 1.0
C      1  0.5165620000000  0.4700970000000  0.5846110000000 1.0
C      1  0.4824350000000  0.5296220000000  0.4155240000000 1.0
C      1  0.5177540000000  0.5297800000000  0.5849590000000 1.0
C      1  0.4839110000000  0.4172330000000  0.4160380000000 1.0
C      1  0.5158050000000  0.4170660000000  0.5839280000000 1.0
C      1  0.4834090000000  0.5826850000000  0.4161590000000 1.0
C      1  0.5170770000000  0.5835820000000  0.5835940000000 1.0
C      1  0.5166640000000  0.4164630000000  0.4162350000000 1.0
C      1  0.4830060000000  0.4164670000000  0.5836770000000 1.0
C      1  0.5161520000000  0.5836060000000  0.4160940000000 1.0
C      1  0.4842750000000  0.5829070000000  0.5840220000000 1.0
END
