TITL C-862130-1496-386 87.6281752480086 125000 -979.881908170808 0 0 165 (D5) n - 1
REM
REM in /home/nfs/bkarasulu/CARBON/AIRSS/Generating-Clusters/TERSOFF/Higher-Symm/FIRE-HFTN
REM
REM
REM
REM
REM
REM ./C.cell (b20cbc046b6831c77cfcea5457e17084)
REM AIRSS Version 0.9.1 bugfix July 2018 build 013d7b7c2542+ Fri, 06 Jul 2018 19:26:36 +0100
REM compiler GCC version 9.2.1 20190827 (Red Hat 9.2.1-1)
REM options -cpp -mtune=generic -march=x86-64 -g -O0 -fpre-include=/usr/include/finclude/math-vector-fortran.h
REM seed 1089367728 -1291776390 -262334265 189669411 1399065084 681362972 917402896 1787066195 -357919679 1703553261 -1905645295 -1510477245 -1984431442 1892201771 -1851858765 1149615711 578010076 1154327380 579767306 1122906435 2061528534 1773935524 -985032305 752617871 -782082291 -1172859373 -1475377345 -883432951 -1719796850 -413893143 -1804201516 -590104066 711157794
REM
CELL 1.54180   50.00000   50.00000   50.00000   90.00000   90.00000   90.00000
LATT -1
SFAC C  
C      1  0.4339290000000  0.5612240000000  0.4387820000000 1.0
C      1  0.4339300000000  0.4606960000000  0.4228540000000 1.0
C      1  0.4339320000000  0.4144830000000  0.5135410000000 1.0
C      1  0.4339320000000  0.4864500000000  0.5855150000000 1.0
C      1  0.4339300000000  0.5771410000000  0.5393120000000 1.0
C      1  0.5660140000000  0.5612300000000  0.5612150000000 1.0
C      1  0.5660160000000  0.4607020000000  0.5771480000000 1.0
C      1  0.5660160000000  0.4144840000000  0.4864640000000 1.0
C      1  0.5660140000000  0.4864480000000  0.4144850000000 1.0
C      1  0.5660130000000  0.5771410000000  0.4606840000000 1.0
C      1  0.4712830000000  0.5456300000000  0.5524860000000 1.0
C      1  0.4712820000000  0.5640180000000  0.4728220000000 1.0
C      1  0.4712820000000  0.4939340000000  0.4307170000000 1.0
C      1  0.4712840000000  0.4322330000000  0.4843590000000 1.0
C      1  0.4712840000000  0.4641830000000  0.5596170000000 1.0
C      1  0.5286610000000  0.5456280000000  0.4475110000000 1.0
C      1  0.5286620000000  0.5640200000000  0.5271740000000 1.0
C      1  0.5286630000000  0.4939390000000  0.5692830000000 1.0
C      1  0.5286630000000  0.4322350000000  0.5156440000000 1.0
C      1  0.5286620000000  0.4641810000000  0.4403850000000 1.0
C      1  0.6187710000000  0.5406260000000  0.4863390000000 1.0
C      1  0.6187720000000  0.4995640000000  0.4571420000000 1.0
C      1  0.6187720000000  0.4591080000000  0.4871710000000 1.0
C      1  0.6187730000000  0.4751650000000  0.5349270000000 1.0
C      1  0.6187720000000  0.5255460000000  0.5344130000000 1.0
C      1  0.3811730000000  0.5406230000000  0.5136590000000 1.0
C      1  0.3811740000000  0.4995630000000  0.5428580000000 1.0
C      1  0.3811740000000  0.4591050000000  0.5128310000000 1.0
C      1  0.3811730000000  0.4751600000000  0.4650740000000 1.0
C      1  0.3811720000000  0.5255410000000  0.4655850000000 1.0
C      1  0.4825480000000  0.4548270000000  0.4410840000000 1.0
C      1  0.4825490000000  0.4300080000000  0.5247560000000 1.0
C      1  0.4825490000000  0.5019150000000  0.5742160000000 1.0
C      1  0.4825470000000  0.5711750000000  0.5211130000000 1.0
C      1  0.4825470000000  0.5420730000000  0.4388330000000 1.0
C      1  0.5173980000000  0.4548310000000  0.5589180000000 1.0
C      1  0.5173980000000  0.4300080000000  0.4752480000000 1.0
C      1  0.5173960000000  0.5019120000000  0.4257840000000 1.0
C      1  0.5173960000000  0.5711740000000  0.4788840000000 1.0
C      1  0.5173970000000  0.5420770000000  0.5611650000000 1.0
C      1  0.5502210000000  0.5060180000000  0.5249800000000 1.0
C      1  0.5502210000000  0.5256180000000  0.5019960000000 1.0
C      1  0.5502210000000  0.5098160000000  0.4762530000000 1.0
C      1  0.5502210000000  0.4804490000000  0.4833270000000 1.0
C      1  0.5502220000000  0.4781020000000  0.5134420000000 1.0
C      1  0.4497230000000  0.5060150000000  0.4750200000000 1.0
C      1  0.4497230000000  0.5256160000000  0.4980030000000 1.0
C      1  0.4497240000000  0.5098150000000  0.5237470000000 1.0
C      1  0.4497240000000  0.4804490000000  0.5166740000000 1.0
C      1  0.4497240000000  0.4781000000000  0.4865590000000 1.0
C      1  0.6164240000000  0.5687140000000  0.4917150000000 1.0
C      1  0.6164240000000  0.5133570000000  0.4320900000000 1.0
C      1  0.6164250000000  0.4395440000000  0.4663120000000 1.0
C      1  0.6164260000000  0.4492820000000  0.5470880000000 1.0
C      1  0.6164250000000  0.5291130000000  0.5627880000000 1.0
C      1  0.3835190000000  0.5687110000000  0.5082810000000 1.0
C      1  0.3835210000000  0.5133570000000  0.5679090000000 1.0
C      1  0.3835210000000  0.4395420000000  0.5336910000000 1.0
C      1  0.3835200000000  0.4492760000000  0.4529150000000 1.0
C      1  0.3835190000000  0.5291060000000  0.4372110000000 1.0
C      1  0.4336140000000  0.5316760000000  0.4327430000000 1.0
C      1  0.4336160000000  0.4458220000000  0.4490900000000 1.0
C      1  0.4336170000000  0.4348390000000  0.5357940000000 1.0
C      1  0.4336160000000  0.5139050000000  0.5730330000000 1.0
C      1  0.4336150000000  0.5737540000000  0.5093440000000 1.0
C      1  0.5663300000000  0.5316820000000  0.5672550000000 1.0
C      1  0.5663310000000  0.4458260000000  0.5509130000000 1.0
C      1  0.5663300000000  0.4348390000000  0.4642090000000 1.0
C      1  0.5663280000000  0.5139030000000  0.4269660000000 1.0
C      1  0.5663280000000  0.5737550000000  0.4906520000000 1.0
C      1  0.5946950000000  0.4989680000000  0.4745820000000 1.0
C      1  0.5946960000000  0.4755100000000  0.4931270000000 1.0
C      1  0.5946960000000  0.4858980000000  0.5211690000000 1.0
C      1  0.5946950000000  0.5157770000000  0.5199540000000 1.0
C      1  0.5946950000000  0.5238550000000  0.4911620000000 1.0
C      1  0.4052500000000  0.4989670000000  0.5254180000000 1.0
C      1  0.4052500000000  0.4755070000000  0.5068740000000 1.0
C      1  0.4052500000000  0.4858940000000  0.4788320000000 1.0
C      1  0.4052490000000  0.5157730000000  0.4800450000000 1.0
C      1  0.4052500000000  0.5238520000000  0.5088370000000 1.0
C      1  0.5462730000000  0.5546540000000  0.5044920000000 1.0
C      1  0.5462730000000  0.5211620000000  0.4494100000000 1.0
C      1  0.5462740000000  0.4584260000000  0.4642410000000 1.0
C      1  0.5462750000000  0.4531450000000  0.5284890000000 1.0
C      1  0.5462740000000  0.5126170000000  0.5533660000000 1.0
C      1  0.4536700000000  0.5546520000000  0.4955050000000 1.0
C      1  0.4536710000000  0.5211630000000  0.5505890000000 1.0
C      1  0.4536720000000  0.4584270000000  0.5357620000000 1.0
C      1  0.4536720000000  0.4531420000000  0.4715130000000 1.0
C      1  0.4536700000000  0.5126120000000  0.4466330000000 1.0
C      1  0.5906130000000  0.5754090000000  0.4456410000000 1.0
C      1  0.5906140000000  0.4716060000000  0.4114850000000 1.0
C      1  0.5906160000000  0.4070450000000  0.4996520000000 1.0
C      1  0.5906160000000  0.4709460000000  0.5882980000000 1.0
C      1  0.5906140000000  0.5750010000000  0.5549180000000 1.0
C      1  0.4093300000000  0.5754090000000  0.5543550000000 1.0
C      1  0.4093320000000  0.4716080000000  0.5885170000000 1.0
C      1  0.4093320000000  0.4070420000000  0.5003530000000 1.0
C      1  0.4093300000000  0.4709390000000  0.4117030000000 1.0
C      1  0.4093280000000  0.5749950000000  0.4450780000000 1.0
C      1  0.4573920000000  0.5708210000000  0.5547290000000 1.0
C      1  0.4573910000000  0.5739350000000  0.4495570000000 1.0
C      1  0.4573920000000  0.4748720000000  0.4140960000000 1.0
C      1  0.4573940000000  0.4105340000000  0.4973520000000 1.0
C      1  0.4573940000000  0.4698340000000  0.5842680000000 1.0
C      1  0.5425500000000  0.5708200000000  0.4452670000000 1.0
C      1  0.5425520000000  0.5739390000000  0.5504390000000 1.0
C      1  0.5425540000000  0.4748780000000  0.5859050000000 1.0
C      1  0.5425540000000  0.4105360000000  0.5026530000000 1.0
C      1  0.5425520000000  0.4698310000000  0.4157330000000 1.0
C      1  0.5942670000000  0.5906780000000  0.5308590000000 1.0
C      1  0.5942660000000  0.5573710000000  0.4232970000000 1.0
C      1  0.5942680000000  0.4447820000000  0.4217340000000 1.0
C      1  0.5942700000000  0.4085040000000  0.5283310000000 1.0
C      1  0.5942690000000  0.4986730000000  0.5957740000000 1.0
C      1  0.4056750000000  0.5906730000000  0.4691360000000 1.0
C      1  0.4056770000000  0.5573730000000  0.5767000000000 1.0
C      1  0.4056790000000  0.4447830000000  0.5782680000000 1.0
C      1  0.4056780000000  0.4084990000000  0.4716740000000 1.0
C      1  0.4056760000000  0.4986650000000  0.4042270000000 1.0
C      1  0.4073210000000  0.4329970000000  0.4560020000000 1.0
C      1  0.4073220000000  0.4374480000000  0.5501270000000 1.0
C      1  0.4073210000000  0.5283420000000  0.5749800000000 1.0
C      1  0.4073190000000  0.5800660000000  0.4962150000000 1.0
C      1  0.4073190000000  0.5211400000000  0.4226820000000 1.0
C      1  0.5926260000000  0.4330020000000  0.5440020000000 1.0
C      1  0.5926250000000  0.4374480000000  0.4498760000000 1.0
C      1  0.5926230000000  0.5283410000000  0.4250190000000 1.0
C      1  0.5926240000000  0.5800690000000  0.5037810000000 1.0
C      1  0.5926250000000  0.5211470000000  0.5773170000000 1.0
C      1  0.5126760000000  0.3862150000000  0.4506010000000 1.0
C      1  0.5126770000000  0.4178570000000  0.5929510000000 1.0
C      1  0.5126750000000  0.5630180000000  0.6068460000000 1.0
C      1  0.5126720000000  0.6210900000000  0.4730830000000 1.0
C      1  0.5126730000000  0.5118200000000  0.3765190000000 1.0
C      1  0.4872730000000  0.3862170000000  0.5494050000000 1.0
C      1  0.4872710000000  0.4178520000000  0.4070540000000 1.0
C      1  0.4872680000000  0.5630120000000  0.3931510000000 1.0
C      1  0.4872690000000  0.6210910000000  0.5269100000000 1.0
C      1  0.4872720000000  0.5118260000000  0.6234810000000 1.0
C      1  0.3559830000000  0.4750230000000  0.5077340000000 1.0
C      1  0.3559830000000  0.4996340000000  0.5261430000000 1.0
C      1  0.3559820000000  0.5247470000000  0.5084260000000 1.0
C      1  0.3559820000000  0.5156580000000  0.4790670000000 1.0
C      1  0.3559820000000  0.4849270000000  0.4786390000000 1.0
C      1  0.6439630000000  0.4750270000000  0.4922680000000 1.0
C      1  0.6439620000000  0.4996370000000  0.4738570000000 1.0
C      1  0.6439620000000  0.5247510000000  0.4915730000000 1.0
C      1  0.6439630000000  0.5156630000000  0.5209330000000 1.0
C      1  0.6439630000000  0.4849320000000  0.5213620000000 1.0
C      1  0.4924120000000  0.5183420000000  0.5956800000000 1.0
C      1  0.4924100000000  0.5966650000000  0.5121230000000 1.0
C      1  0.4924100000000  0.5414000000000  0.4118120000000 1.0
C      1  0.4924120000000  0.4289220000000  0.4333740000000 1.0
C      1  0.4924130000000  0.4146710000000  0.5470110000000 1.0
C      1  0.5075320000000  0.5183370000000  0.4043190000000 1.0
C      1  0.5075320000000  0.5966650000000  0.4878720000000 1.0
C      1  0.5075340000000  0.5414050000000  0.5881860000000 1.0
C      1  0.5075350000000  0.4289250000000  0.5666300000000 1.0
C      1  0.5075340000000  0.4146680000000  0.4529940000000 1.0
C      1  0.4999730000000  0.4394570000000  0.5000020000000 1.0
C      1  0.4999710000000  0.5489800000000  0.4644120000000 1.0
C      1  0.4999720000000  0.5489820000000  0.5355850000000 1.0
C      1  0.4999720000000  0.4812890000000  0.4424200000000 1.0
C      1  0.4999730000000  0.4812930000000  0.5575810000000 1.0
END
