TITL C-862131-2149-18 112.755170889247 125000 -957.98304389869 0 0 171 (C1) n - 1
REM
REM in /home/nfs/bkarasulu/CARBON/AIRSS/Generating-Clusters/TERSOFF/Higher-Symm/FIRE-HFTN
REM
REM
REM
REM
REM
REM ./C.cell (b20cbc046b6831c77cfcea5457e17084)
REM AIRSS Version 0.9.1 bugfix July 2018 build 013d7b7c2542+ Fri, 06 Jul 2018 19:26:36 +0100
REM compiler GCC version 9.2.1 20190827 (Red Hat 9.2.1-1)
REM options -cpp -mtune=generic -march=x86-64 -g -O0 -fpre-include=/usr/include/finclude/math-vector-fortran.h
REM seed 2110431305 1641678462 -1661080539 -229452540 476288041 -1350908184 298639372 1384350697 270762669 -294973750 1551387683 1399996704 1550990922 443711537 -1796238745 474563501 -265830468 -727554570 553722560 -2132111016 1201233945 -220750973 1337860999 -1014595542 -1985494759 -793716115 -1737851740 -762113412 -525740427 -258898163 -94003481 -1652571918 -1513635538
REM
CELL 1.54180   50.00000   50.00000   50.00000   90.00000   90.00000   90.00000
LATT -1
SFAC C  
C      1  0.4485290000000  0.5417420000000  0.4943480000000 1.0
C      1  0.5482960000000  0.5403340000000  0.4913820000000 1.0
C      1  0.5292190000000  0.5110940000000  0.6095500000000 1.0
C      1  0.4713740000000  0.5101630000000  0.6102780000000 1.0
C      1  0.4776570000000  0.5476860000000  0.4217040000000 1.0
C      1  0.5277070000000  0.5487700000000  0.4223280000000 1.0
C      1  0.5927520000000  0.4356390000000  0.5243690000000 1.0
C      1  0.4070370000000  0.4361760000000  0.5246940000000 1.0
C      1  0.4788820000000  0.5027250000000  0.4097840000000 1.0
C      1  0.5298440000000  0.5014790000000  0.4125720000000 1.0
C      1  0.5930570000000  0.4830440000000  0.5428350000000 1.0
C      1  0.4066880000000  0.4825230000000  0.5455150000000 1.0
C      1  0.4228300000000  0.5499470000000  0.4845720000000 1.0
C      1  0.5747940000000  0.5491460000000  0.4839740000000 1.0
C      1  0.5687290000000  0.4990310000000  0.5524090000000 1.0
C      1  0.4301810000000  0.4995660000000  0.5549380000000 1.0
C      1  0.5669290000000  0.5047230000000  0.5820580000000 1.0
C      1  0.4331070000000  0.5048940000000  0.5845390000000 1.0
C      1  0.5804630000000  0.5465620000000  0.4424480000000 1.0
C      1  0.4255890000000  0.5407040000000  0.4437080000000 1.0
C      1  0.5718710000000  0.4163040000000  0.5226540000000 1.0
C      1  0.4282170000000  0.4171400000000  0.5237560000000 1.0
C      1  0.5849550000000  0.4628280000000  0.5217710000000 1.0
C      1  0.4136570000000  0.4637400000000  0.5226650000000 1.0
C      1  0.4356970000000  0.4091810000000  0.4959520000000 1.0
C      1  0.5649140000000  0.4102280000000  0.4940550000000 1.0
C      1  0.4333040000000  0.5366000000000  0.5906020000000 1.0
C      1  0.5677120000000  0.5363080000000  0.5874430000000 1.0
C      1  0.4270010000000  0.5628110000000  0.5336840000000 1.0
C      1  0.5718760000000  0.5609450000000  0.5293230000000 1.0
C      1  0.5270860000000  0.4659800000000  0.6025530000000 1.0
C      1  0.4739180000000  0.4656770000000  0.6035140000000 1.0
C      1  0.3994000000000  0.5140530000000  0.5303120000000 1.0
C      1  0.5993710000000  0.5128720000000  0.5260800000000 1.0
C      1  0.4773410000000  0.4678790000000  0.4956360000000 1.0
C      1  0.5192910000000  0.4665640000000  0.4970270000000 1.0
C      1  0.4474250000000  0.5157280000000  0.5066920000000 1.0
C      1  0.5479190000000  0.5139280000000  0.5037770000000 1.0
C      1  0.5662560000000  0.4951170000000  0.4930780000000 1.0
C      1  0.4296900000000  0.4977170000000  0.4934530000000 1.0
C      1  0.5396760000000  0.4225710000000  0.4846760000000 1.0
C      1  0.4579200000000  0.4243210000000  0.4836530000000 1.0
C      1  0.5935110000000  0.5414760000000  0.5705920000000 1.0
C      1  0.4067870000000  0.5419970000000  0.5750850000000 1.0
C      1  0.5849960000000  0.4185910000000  0.4728820000000 1.0
C      1  0.4153110000000  0.4121180000000  0.4741870000000 1.0
C      1  0.5615800000000  0.5717430000000  0.4511530000000 1.0
C      1  0.4435430000000  0.5668990000000  0.4522670000000 1.0
C      1  0.5244280000000  0.6021490000000  0.4606900000000 1.0
C      1  0.4757220000000  0.5989390000000  0.4609690000000 1.0
C      1  0.5603680000000  0.4695890000000  0.5064530000000 1.0
C      1  0.4368060000000  0.4717990000000  0.5058440000000 1.0
C      1  0.4677350000000  0.4377610000000  0.4115180000000 1.0
C      1  0.5319050000000  0.4416820000000  0.4135180000000 1.0
C      1  0.5286320000000  0.5137160000000  0.5675590000000 1.0
C      1  0.4708240000000  0.5136180000000  0.5684330000000 1.0
C      1  0.4068670000000  0.5298330000000  0.4681010000000 1.0
C      1  0.5952390000000  0.5310970000000  0.4700000000000 1.0
C      1  0.4749200000000  0.5678400000000  0.5726940000000 1.0
C      1  0.5267680000000  0.5677180000000  0.5709020000000 1.0
C      1  0.5286990000000  0.4033640000000  0.5471700000000 1.0
C      1  0.4707120000000  0.4032300000000  0.5483710000000 1.0
C      1  0.4580200000000  0.4187840000000  0.4323050000000 1.0
C      1  0.5419390000000  0.4217400000000  0.4336210000000 1.0
C      1  0.5542060000000  0.5986210000000  0.4720300000000 1.0
C      1  0.4458940000000  0.5963620000000  0.4728990000000 1.0
C      1  0.4613890000000  0.4757670000000  0.4399530000000 1.0
C      1  0.5461270000000  0.4781030000000  0.4434240000000 1.0
C      1  0.5307490000000  0.5607640000000  0.5015790000000 1.0
C      1  0.4667590000000  0.5613500000000  0.5037820000000 1.0
C      1  0.4785440000000  0.5274290000000  0.4473640000000 1.0
C      1  0.5296340000000  0.5285600000000  0.4493570000000 1.0
C      1  0.4290690000000  0.5040530000000  0.4639140000000 1.0
C      1  0.5810850000000  0.5067240000000  0.4555840000000 1.0
C      1  0.4786100000000  0.3833730000000  0.4630220000000 1.0
C      1  0.5205250000000  0.3830350000000  0.4620660000000 1.0
C      1  0.5317280000000  0.4795430000000  0.5552770000000 1.0
C      1  0.4671950000000  0.4798890000000  0.5550900000000 1.0
C      1  0.5287790000000  0.5882480000000  0.5475520000000 1.0
C      1  0.4720330000000  0.5885840000000  0.5492300000000 1.0
C      1  0.5292640000000  0.5725020000000  0.4453420000000 1.0
C      1  0.4748600000000  0.5699500000000  0.4454740000000 1.0
C      1  0.4050840000000  0.5410710000000  0.5452150000000 1.0
C      1  0.5938940000000  0.5400890000000  0.5406840000000 1.0
C      1  0.5430730000000  0.5432370000000  0.5678920000000 1.0
C      1  0.4576640000000  0.5436830000000  0.5704140000000 1.0
C      1  0.4171770000000  0.4809540000000  0.4467190000000 1.0
C      1  0.5966250000000  0.4868490000000  0.4377150000000 1.0
C      1  0.4018350000000  0.5112870000000  0.4990510000000 1.0
C      1  0.5929100000000  0.5089200000000  0.4958090000000 1.0
C      1  0.5502750000000  0.4489410000000  0.5601540000000 1.0
C      1  0.4498450000000  0.4489800000000  0.5615350000000 1.0
C      1  0.4583470000000  0.5043360000000  0.4506670000000 1.0
C      1  0.5506150000000  0.5053750000000  0.4531850000000 1.0
C      1  0.5468070000000  0.4745180000000  0.4127680000000 1.0
C      1  0.4544840000000  0.4685590000000  0.4102030000000 1.0
C      1  0.5519440000000  0.5153510000000  0.5326900000000 1.0
C      1  0.4452780000000  0.5165120000000  0.5352660000000 1.0
C      1  0.4178390000000  0.4331750000000  0.4535900000000 1.0
C      1  0.5803130000000  0.4427260000000  0.4559080000000 1.0
C      1  0.5427720000000  0.4517550000000  0.4856000000000 1.0
C      1  0.4528520000000  0.4536290000000  0.4836420000000 1.0
C      1  0.5445220000000  0.5362820000000  0.6092630000000 1.0
C      1  0.4568790000000  0.5355910000000  0.6116000000000 1.0
C      1  0.4415340000000  0.4579340000000  0.4564850000000 1.0
C      1  0.5547410000000  0.4564050000000  0.4598790000000 1.0
C      1  0.4491080000000  0.4219370000000  0.5447380000000 1.0
C      1  0.5503950000000  0.4218810000000  0.5432080000000 1.0
C      1  0.5442070000000  0.5271890000000  0.4100080000000 1.0
C      1  0.4605990000000  0.5258430000000  0.4094570000000 1.0
C      1  0.5269530000000  0.4457390000000  0.5817910000000 1.0
C      1  0.4736590000000  0.4456090000000  0.5825830000000 1.0
C      1  0.4520870000000  0.4876540000000  0.6037010000000 1.0
C      1  0.5481920000000  0.4885120000000  0.6020370000000 1.0
C      1  0.4671940000000  0.4823220000000  0.5227250000000 1.0
C      1  0.5303000000000  0.4806130000000  0.5233830000000 1.0
C      1  0.5519290000000  0.5417290000000  0.5410190000000 1.0
C      1  0.4470300000000  0.5426490000000  0.5441130000000 1.0
C      1  0.5579820000000  0.6001180000000  0.5014630000000 1.0
C      1  0.4421190000000  0.6000210000000  0.5025440000000 1.0
C      1  0.6014650000000  0.4592460000000  0.4453380000000 1.0
C      1  0.3980550000000  0.4564490000000  0.4494640000000 1.0
C      1  0.5769160000000  0.4944000000000  0.4156610000000 1.0
C      1  0.4277150000000  0.4907210000000  0.4198510000000 1.0
C      1  0.5264180000000  0.4129320000000  0.4586940000000 1.0
C      1  0.4723930000000  0.4131100000000  0.4587560000000 1.0
C      1  0.5465840000000  0.5800340000000  0.5212880000000 1.0
C      1  0.4527300000000  0.5807560000000  0.5240400000000 1.0
C      1  0.5720760000000  0.5262920000000  0.4176720000000 1.0
C      1  0.4343840000000  0.5211930000000  0.4205360000000 1.0
C      1  0.5791670000000  0.4599520000000  0.5636650000000 1.0
C      1  0.4210770000000  0.4600780000000  0.5659280000000 1.0
C      1  0.4986190000000  0.5576600000000  0.5010710000000 1.0
C      1  0.5014140000000  0.5640820000000  0.5866030000000 1.0
C      1  0.5036480000000  0.5371400000000  0.3791620000000 1.0
C      1  0.4980800000000  0.6234960000000  0.4172630000000 1.0
C      1  0.4995730000000  0.4118450000000  0.5448310000000 1.0
C      1  0.4998410000000  0.3777890000000  0.4888270000000 1.0
C      1  0.4996550000000  0.6101560000000  0.5101590000000 1.0
C      1  0.4995760000000  0.4941770000000  0.5326800000000 1.0
C      1  0.5013850000000  0.4961560000000  0.6378880000000 1.0
C      1  0.5022790000000  0.5611970000000  0.4594250000000 1.0
C      1  0.5034550000000  0.5311120000000  0.4649880000000 1.0
C      1  0.4998920000000  0.5263640000000  0.6364990000000 1.0
C      1  0.4989680000000  0.3711340000000  0.4415500000000 1.0
C      1  0.4951170000000  0.5097680000000  0.3717010000000 1.0
C      1  0.4994290000000  0.4549510000000  0.4366080000000 1.0
C      1  0.5019150000000  0.6501740000000  0.4067110000000 1.0
C      1  0.5003230000000  0.5979530000000  0.4829500000000 1.0
C      1  0.5081320000000  0.4847310000000  0.3808010000000 1.0
C      1  0.4993700000000  0.4277380000000  0.4520200000000 1.0
C      1  0.4972790000000  0.4419670000000  0.5336180000000 1.0
C      1  0.5001490000000  0.5945900000000  0.5360410000000 1.0
C      1  0.5014340000000  0.5182460000000  0.5149640000000 1.0
C      1  0.5006420000000  0.4769200000000  0.6130150000000 1.0
C      1  0.4986550000000  0.4226310000000  0.4936740000000 1.0
C      1  0.5020620000000  0.4806080000000  0.4491590000000 1.0
C      1  0.5002540000000  0.4321140000000  0.5743020000000 1.0
C      1  0.4987740000000  0.6165930000000  0.4453640000000 1.0
C      1  0.4997490000000  0.4834950000000  0.5676400000000 1.0
C      1  0.5028130000000  0.5483320000000  0.4065510000000 1.0
C      1  0.5016860000000  0.5124080000000  0.4867390000000 1.0
C      1  0.4974760000000  0.4658360000000  0.4022070000000 1.0
C      1  0.4977610000000  0.4479690000000  0.5057470000000 1.0
C      1  0.5006480000000  0.4348710000000  0.3997700000000 1.0
C      1  0.4997090000000  0.5638760000000  0.5296880000000 1.0
C      1  0.5034100000000  0.5006280000000  0.4267010000000 1.0
C      1  0.5001190000000  0.5047480000000  0.5967960000000 1.0
C      1  0.5002130000000  0.4848910000000  0.4784330000000 1.0
C      1  0.4999500000000  0.3991170000000  0.5107290000000 1.0
C      1  0.5032930000000  0.5440990000000  0.6109830000000 1.0
END
