TITL C-862129-6180-109 -0.0451742714735081 125000 -1105.97492025722 0 0 195 (D3) n - 1
REM
REM in /home/nfs/bkarasulu/CARBON/AIRSS/Generating-Clusters/TERSOFF/Higher-Symm/FIRE-HFTN
REM
REM
REM
REM
REM
REM ./C.cell (b20cbc046b6831c77cfcea5457e17084)
REM AIRSS Version 0.9.1 bugfix July 2018 build 013d7b7c2542+ Fri, 06 Jul 2018 19:26:36 +0100
REM compiler GCC version 9.2.1 20190827 (Red Hat 9.2.1-1)
REM options -cpp -mtune=generic -march=x86-64 -g -O0 -fpre-include=/usr/include/finclude/math-vector-fortran.h
REM seed -219735786 -1621090083 -1945867493 1445161239 2089623535 178062125 -1977026524 89761543 769505467 1694327363 2023768644 444104014 1278632499 -319139186 1701719920 -1814941974 -1508160262 -1093089264 1881868124 -119282021 126126444 -1087961535 -1424645574 41733130 -1288630279 1024178104 1851705012 277317008 496226466 1240106568 1783801840 1226441878 -971139640
REM
CELL 1.54180   50.00000   50.00000   50.00000   90.00000   90.00000   90.00000
LATT -1
SFAC C  
C      1  0.5682230000000  0.4676370000000  0.4723010000000 1.0
C      1  0.5682230000000  0.5401700000000  0.4858220000000 1.0
C      1  0.5682230000000  0.4921930000000  0.5418770000000 1.0
C      1  0.4316540000000  0.5323630000000  0.4723010000000 1.0
C      1  0.4316540000000  0.4598300000000  0.4858230000000 1.0
C      1  0.4316540000000  0.5078070000000  0.5418770000000 1.0
C      1  0.4382790000000  0.4407090000000  0.5667770000000 1.0
C      1  0.4382790000000  0.4718150000000  0.4152640000000 1.0
C      1  0.4382790000000  0.5874770000000  0.5179590000000 1.0
C      1  0.5615980000000  0.5592910000000  0.5667770000000 1.0
C      1  0.5615980000000  0.5281850000000  0.4152640000000 1.0
C      1  0.5615980000000  0.4125230000000  0.5179590000000 1.0
C      1  0.4606800000000  0.4580280000000  0.4036150000000 1.0
C      1  0.4606800000000  0.6044580000000  0.5118440000000 1.0
C      1  0.4606800000000  0.4375140000000  0.5845410000000 1.0
C      1  0.5391970000000  0.5419720000000  0.4036150000000 1.0
C      1  0.5391970000000  0.3955420000000  0.5118440000000 1.0
C      1  0.5391980000000  0.5624860000000  0.5845410000000 1.0
C      1  0.6138150000000  0.4854520000000  0.4633460000000 1.0
C      1  0.6138150000000  0.5390170000000  0.5057280000000 1.0
C      1  0.6138150000000  0.4755310000000  0.5309260000000 1.0
C      1  0.3860620000000  0.5145480000000  0.4633460000000 1.0
C      1  0.3860620000000  0.4609830000000  0.5057280000000 1.0
C      1  0.3860620000000  0.5244690000000  0.5309260000000 1.0
C      1  0.5203980000000  0.5263180000000  0.3675240000000 1.0
C      1  0.5203980000000  0.6015690000000  0.5890300000000 1.0
C      1  0.5203980000000  0.3721140000000  0.5434460000000 1.0
C      1  0.4794800000000  0.4736820000000  0.3675240000000 1.0
C      1  0.4794800000000  0.3984310000000  0.5890300000000 1.0
C      1  0.4794800000000  0.6278860000000  0.5434460000000 1.0
C      1  0.5704310000000  0.4315230000000  0.4347210000000 1.0
C      1  0.5704310000000  0.5907720000000  0.4733370000000 1.0
C      1  0.5704310000000  0.4777050000000  0.5919420000000 1.0
C      1  0.4294470000000  0.5684770000000  0.4347210000000 1.0
C      1  0.4294470000000  0.4092280000000  0.4733370000000 1.0
C      1  0.4294470000000  0.5222950000000  0.5919420000000 1.0
C      1  0.4921290000000  0.4226050000000  0.4411420000000 1.0
C      1  0.4921290000000  0.5896700000000  0.4624030000000 1.0
C      1  0.4921290000000  0.4877250000000  0.5964550000000 1.0
C      1  0.5077490000000  0.5773950000000  0.4411420000000 1.0
C      1  0.5077490000000  0.4103300000000  0.4624030000000 1.0
C      1  0.5077490000000  0.5122750000000  0.5964550000000 1.0
C      1  0.5033520000000  0.4226660000000  0.4133140000000 1.0
C      1  0.5033520000000  0.6137400000000  0.4763700000000 1.0
C      1  0.5033520000000  0.4635950000000  0.6103170000000 1.0
C      1  0.4965260000000  0.5773340000000  0.4133140000000 1.0
C      1  0.4965260000000  0.3862600000000  0.4763700000000 1.0
C      1  0.4965260000000  0.5364050000000  0.6103170000000 1.0
C      1  0.4809450000000  0.4395080000000  0.5218010000000 1.0
C      1  0.4809450000000  0.5113650000000  0.4367120000000 1.0
C      1  0.4809450000000  0.5491270000000  0.5414870000000 1.0
C      1  0.5189330000000  0.5604920000000  0.5218010000000 1.0
C      1  0.5189320000000  0.4886350000000  0.4367120000000 1.0
C      1  0.5189330000000  0.4508730000000  0.5414870000000 1.0
C      1  0.5559410000000  0.5413310000000  0.5167980000000 1.0
C      1  0.5559410000000  0.4647870000000  0.5273940000000 1.0
C      1  0.5559410000000  0.4938830000000  0.4558070000000 1.0
C      1  0.4439360000000  0.4586690000000  0.5167980000000 1.0
C      1  0.4439360000000  0.5352130000000  0.5273940000000 1.0
C      1  0.4439360000000  0.5061170000000  0.4558070000000 1.0
C      1  0.4939250000000  0.5390500000000  0.3630190000000 1.0
C      1  0.4939260000000  0.5991040000000  0.6023080000000 1.0
C      1  0.4939250000000  0.3618460000000  0.5346730000000 1.0
C      1  0.5059520000000  0.4609500000000  0.3630190000000 1.0
C      1  0.5059520000000  0.4008960000000  0.6023090000000 1.0
C      1  0.5059520000000  0.6381540000000  0.5346730000000 1.0
C      1  0.4192630000000  0.4882880000000  0.4844500000000 1.0
C      1  0.4192630000000  0.5193230000000  0.4976330000000 1.0
C      1  0.4192630000000  0.4923890000000  0.5179180000000 1.0
C      1  0.5806150000000  0.5117120000000  0.4844500000000 1.0
C      1  0.5806150000000  0.4806770000000  0.4976330000000 1.0
C      1  0.5806150000000  0.5076110000000  0.5179180000000 1.0
C      1  0.5959130000000  0.4448790000000  0.4403350000000 1.0
C      1  0.5959130000000  0.5792320000000  0.4820960000000 1.0
C      1  0.5959130000000  0.4758890000000  0.5775690000000 1.0
C      1  0.4039640000000  0.5551210000000  0.4403350000000 1.0
C      1  0.4039640000000  0.4207680000000  0.4820960000000 1.0
C      1  0.4039640000000  0.5241110000000  0.5775690000000 1.0
C      1  0.5279160000000  0.4195600000000  0.5935360000000 1.0
C      1  0.5279160000000  0.4592160000000  0.3835690000000 1.0
C      1  0.5279160000000  0.6212250000000  0.5228960000000 1.0
C      1  0.4719620000000  0.5804400000000  0.5935360000000 1.0
C      1  0.4719620000000  0.5407840000000  0.3835690000000 1.0
C      1  0.4719620000000  0.3787750000000  0.5228960000000 1.0
C      1  0.4540140000000  0.5520830000000  0.5559290000000 1.0
C      1  0.4540140000000  0.4255230000000  0.5171410000000 1.0
C      1  0.4540140000000  0.5223950000000  0.4269300000000 1.0
C      1  0.5458640000000  0.4479170000000  0.5559290000000 1.0
C      1  0.5458640000000  0.5744770000000  0.5171410000000 1.0
C      1  0.5458640000000  0.4776050000000  0.4269300000000 1.0
C      1  0.3917310000000  0.4781880000000  0.5547700000000 1.0
C      1  0.3917310000000  0.4634740000000  0.4537250000000 1.0
C      1  0.3917310000000  0.5583380000000  0.4915050000000 1.0
C      1  0.6081460000000  0.5218120000000  0.5547700000000 1.0
C      1  0.6081460000000  0.5365260000000  0.4537250000000 1.0
C      1  0.6081460000000  0.4416620000000  0.4915050000000 1.0
C      1  0.5342770000000  0.5161020000000  0.5124550000000 1.0
C      1  0.5342770000000  0.4811620000000  0.5077170000000 1.0
C      1  0.5342770000000  0.5027360000000  0.4798270000000 1.0
C      1  0.4656010000000  0.4838980000000  0.5124560000000 1.0
C      1  0.4656010000000  0.5188380000000  0.5077170000000 1.0
C      1  0.4656010000000  0.4972640000000  0.4798270000000 1.0
C      1  0.4520620000000  0.4017650000000  0.5422500000000 1.0
C      1  0.4520620000000  0.5125280000000  0.3938010000000 1.0
C      1  0.4520620000000  0.5857070000000  0.5639490000000 1.0
C      1  0.5478160000000  0.5982350000000  0.5422500000000 1.0
C      1  0.5478160000000  0.4874720000000  0.3938010000000 1.0
C      1  0.5478160000000  0.4142930000000  0.5639490000000 1.0
C      1  0.4008390000000  0.5721520000000  0.5433120000000 1.0
C      1  0.4008390000000  0.4264140000000  0.5408300000000 1.0
C      1  0.4008390000000  0.5014330000000  0.4158580000000 1.0
C      1  0.5990380000000  0.4278480000000  0.5433120000000 1.0
C      1  0.5990380000000  0.5735860000000  0.5408290000000 1.0
C      1  0.5990380000000  0.4985670000000  0.4158580000000 1.0
C      1  0.4760630000000  0.4061310000000  0.5612630000000 1.0
C      1  0.4760630000000  0.4938790000000  0.3880760000000 1.0
C      1  0.4760630000000  0.5999900000000  0.5506610000000 1.0
C      1  0.5238150000000  0.5938690000000  0.5612630000000 1.0
C      1  0.5238150000000  0.5061210000000  0.3880760000000 1.0
C      1  0.5238150000000  0.4000100000000  0.5506610000000 1.0
C      1  0.4261310000000  0.5885190000000  0.5439600000000 1.0
C      1  0.4261310000000  0.4176710000000  0.5546800000000 1.0
C      1  0.4261310000000  0.4938110000000  0.4013610000000 1.0
C      1  0.5737470000000  0.4114810000000  0.5439600000000 1.0
C      1  0.5737470000000  0.5823290000000  0.5546790000000 1.0
C      1  0.5737460000000  0.5061890000000  0.4013610000000 1.0
C      1  0.5479020000000  0.5919770000000  0.4926540000000 1.0
C      1  0.5479020000000  0.4603730000000  0.5833280000000 1.0
C      1  0.5479020000000  0.4476500000000  0.4240180000000 1.0
C      1  0.4519750000000  0.4080230000000  0.4926540000000 1.0
C      1  0.4519750000000  0.5396270000000  0.5833280000000 1.0
C      1  0.4519750000000  0.5523500000000  0.4240180000000 1.0
C      1  0.5509350000000  0.5113190000000  0.5628050000000 1.0
C      1  0.5509350000000  0.4399500000000  0.4784000000000 1.0
C      1  0.5509350000000  0.5487310000000  0.4587950000000 1.0
C      1  0.4489430000000  0.4886810000000  0.5628050000000 1.0
C      1  0.4489430000000  0.5600500000000  0.4784000000000 1.0
C      1  0.4489430000000  0.4512690000000  0.4587950000000 1.0
C      1  0.4789560000000  0.5682040000000  0.4786170000000 1.0
C      1  0.4789560000000  0.4844170000000  0.5697580000000 1.0
C      1  0.4789560000000  0.4473800000000  0.4516250000000 1.0
C      1  0.5209220000000  0.4317960000000  0.4786170000000 1.0
C      1  0.5209220000000  0.5155840000000  0.5697580000000 1.0
C      1  0.5209220000000  0.5526200000000  0.4516250000000 1.0
C      1  0.4951590000000  0.4645520000000  0.5523560000000 1.0
C      1  0.4951590000000  0.4723820000000  0.4431240000000 1.0
C      1  0.4951590000000  0.5630650000000  0.5045210000000 1.0
C      1  0.5047190000000  0.5354480000000  0.5523560000000 1.0
C      1  0.5047190000000  0.5276180000000  0.4431240000000 1.0
C      1  0.5047190000000  0.4369350000000  0.5045210000000 1.0
C      1  0.4876020000000  0.4439030000000  0.5765910000000 1.0
C      1  0.4876020000000  0.4617180000000  0.4131230000000 1.0
C      1  0.4876020000000  0.5943780000000  0.5102860000000 1.0
C      1  0.5122760000000  0.5560970000000  0.5765910000000 1.0
C      1  0.5122750000000  0.5382820000000  0.4131230000000 1.0
C      1  0.5122750000000  0.4056220000000  0.5102860000000 1.0
C      1  0.4912210000000  0.4867560000000  0.5296910000000 1.0
C      1  0.4912210000000  0.4809090000000  0.4736850000000 1.0
C      1  0.4912210000000  0.5323350000000  0.4966240000000 1.0
C      1  0.5086570000000  0.5132440000000  0.5296910000000 1.0
C      1  0.5086570000000  0.5190910000000  0.4736850000000 1.0
C      1  0.5086570000000  0.4676650000000  0.4966240000000 1.0
C      1  0.5279440000000  0.4487770000000  0.6017120000000 1.0
C      1  0.5279440000000  0.4375260000000  0.4047840000000 1.0
C      1  0.5279440000000  0.6136960000000  0.4935040000000 1.0
C      1  0.4719330000000  0.5512230000000  0.6017120000000 1.0
C      1  0.4719330000000  0.5624740000000  0.4047840000000 1.0
C      1  0.4719330000000  0.3863040000000  0.4935040000000 1.0
C      1  0.4377420000000  0.5800250000000  0.4596570000000 1.0
C      1  0.4377420000000  0.4949260000000  0.5894750000000 1.0
C      1  0.4377420000000  0.4250490000000  0.4508680000000 1.0
C      1  0.5621350000000  0.4199750000000  0.4596570000000 1.0
C      1  0.5621350000000  0.5050740000000  0.5894750000000 1.0
C      1  0.5621350000000  0.5749510000000  0.4508680000000 1.0
C      1  0.5606530000000  0.5244120000000  0.4437840000000 1.0
C      1  0.5606540000000  0.5364790000000  0.5492500000000 1.0
C      1  0.5606530000000  0.4391090000000  0.5069670000000 1.0
C      1  0.4392240000000  0.4755880000000  0.4437840000000 1.0
C      1  0.4392240000000  0.4635210000000  0.5492500000000 1.0
C      1  0.4392240000000  0.5608910000000  0.5069670000000 1.0
C      1  0.6060870000000  0.4487370000000  0.5216240000000 1.0
C      1  0.6060870000000  0.5069040000000  0.4447930000000 1.0
C      1  0.6060870000000  0.5443580000000  0.5335830000000 1.0
C      1  0.3937900000000  0.5512630000000  0.5216240000000 1.0
C      1  0.3937900000000  0.4930960000000  0.4447930000000 1.0
C      1  0.3937900000000  0.4556420000000  0.5335830000000 1.0
C      1  0.5991250000000  0.5492570000000  0.4817770000000 1.0
C      1  0.5991250000000  0.4911530000000  0.5517690000000 1.0
C      1  0.5991250000000  0.4595900000000  0.4664530000000 1.0
C      1  0.4007520000000  0.4507430000000  0.4817780000000 1.0
C      1  0.4007520000000  0.5088470000000  0.5517690000000 1.0
C      1  0.4007520000000  0.5404100000000  0.4664530000000 1.0
C      1  0.4999390000000  0.5856900000000  0.5494730000000 1.0
C      1  0.4999390000000  0.4143100000000  0.5494730000000 1.0
C      1  0.4999390000000  0.5000000000000  0.4010540000000 1.0
END
