TITL C-862127-1500-758 -0.00609472333411344 125000 -480.194287508934 0 0 83 (C1) n - 1
REM
REM in /home/nfs/bkarasulu/CARBON/AIRSS/Generating-Clusters/TERSOFF/Higher-Symm/FIRE-HFTN
REM
REM
REM
REM
REM
REM ./C.cell (b20cbc046b6831c77cfcea5457e17084)
REM AIRSS Version 0.9.1 bugfix July 2018 build 013d7b7c2542+ Fri, 06 Jul 2018 19:26:36 +0100
REM compiler GCC version 9.2.1 20190827 (Red Hat 9.2.1-1)
REM options -cpp -mtune=generic -march=x86-64 -g -O0 -fpre-include=/usr/include/finclude/math-vector-fortran.h
REM seed -1262211359 439604110 623713618 -1961132223 -1820449911 -605786626 -142380011 -832141496 179952274 1032684795 -240870040 -1565675685 276769602 1749206808 838295143 1212292539 1003616790 -1592056020 -470813435 210956333 1476577582 -120348744 -577887080 1489002178 -2075129338 1936270826 1675596879 -538326850 1177990904 -400978602 -1132380078 -303649088 -441517315
REM
CELL 1.54180   50.00000   50.00000   50.00000   90.00000   90.00000   90.00000
LATT -1
SFAC C  
C      1  0.4891880000000  0.5416930000000  0.5599850000000 1.0
C      1  0.4539400000000  0.5443590000000  0.4593720000000 1.0
C      1  0.5582780000000  0.5440120000000  0.4803330000000 1.0
C      1  0.4760110000000  0.5253770000000  0.5846080000000 1.0
C      1  0.4385310000000  0.5330780000000  0.4328550000000 1.0
C      1  0.5887940000000  0.5326550000000  0.4801160000000 1.0
C      1  0.4409150000000  0.4605200000000  0.5207310000000 1.0
C      1  0.5096390000000  0.4611260000000  0.4399490000000 1.0
C      1  0.5469910000000  0.4618910000000  0.5390830000000 1.0
C      1  0.5115960000000  0.5013330000000  0.5896800000000 1.0
C      1  0.4357060000000  0.4951740000000  0.4561820000000 1.0
C      1  0.5690900000000  0.4948510000000  0.4666020000000 1.0
C      1  0.5028390000000  0.5153340000000  0.4659860000000 1.0
C      1  0.5268100000000  0.5151770000000  0.5198690000000 1.0
C      1  0.4692170000000  0.5154800000000  0.5132810000000 1.0
C      1  0.4570970000000  0.5668440000000  0.5100290000000 1.0
C      1  0.5140460000000  0.5671230000000  0.4583920000000 1.0
C      1  0.5289830000000  0.5667620000000  0.5325840000000 1.0
C      1  0.4528000000000  0.4706080000000  0.4958210000000 1.0
C      1  0.5262490000000  0.4705760000000  0.4618500000000 1.0
C      1  0.5194830000000  0.4709860000000  0.5424450000000 1.0
C      1  0.5529890000000  0.5499130000000  0.5408590000000 1.0
C      1  0.4383800000000  0.5486060000000  0.5265900000000 1.0
C      1  0.5093480000000  0.5499690000000  0.4331840000000 1.0
C      1  0.5110930000000  0.5000500000000  0.5403100000000 1.0
C      1  0.4592350000000  0.5000840000000  0.4905840000000 1.0
C      1  0.5275320000000  0.4997930000000  0.4697750000000 1.0
C      1  0.4986250000000  0.4536100000000  0.5327210000000 1.0
C      1  0.4718120000000  0.4532110000000  0.4828260000000 1.0
C      1  0.5286300000000  0.4531970000000  0.4848110000000 1.0
C      1  0.4573050000000  0.4388900000000  0.5352830000000 1.0
C      1  0.4910110000000  0.4376860000000  0.4459460000000 1.0
C      1  0.5513180000000  0.4381470000000  0.5203240000000 1.0
C      1  0.4879590000000  0.5823250000000  0.4676130000000 1.0
C      1  0.5345650000000  0.5821800000000  0.5057610000000 1.0
C      1  0.4775490000000  0.5814550000000  0.5287390000000 1.0
C      1  0.5469150000000  0.5263200000000  0.5579870000000 1.0
C      1  0.4263320000000  0.5258640000000  0.5111130000000 1.0
C      1  0.5269080000000  0.5258100000000  0.4310680000000 1.0
C      1  0.4613880000000  0.4870000000000  0.5536470000000 1.0
C      1  0.4667780000000  0.4888990000000  0.4385320000000 1.0
C      1  0.5691360000000  0.4890300000000  0.5023230000000 1.0
C      1  0.4656050000000  0.4552010000000  0.4512620000000 1.0
C      1  0.5589320000000  0.4552640000000  0.4952480000000 1.0
C      1  0.4745980000000  0.4586260000000  0.5535900000000 1.0
C      1  0.4344670000000  0.4826010000000  0.5385500000000 1.0
C      1  0.4968910000000  0.4831470000000  0.4261330000000 1.0
C      1  0.5655070000000  0.4836960000000  0.5344770000000 1.0
C      1  0.4538170000000  0.5410860000000  0.5526200000000 1.0
C      1  0.4790190000000  0.5440500000000  0.4332360000000 1.0
C      1  0.5684140000000  0.5437090000000  0.5150790000000 1.0
C      1  0.5762280000000  0.4702180000000  0.4519890000000 1.0
C      1  0.5101970000000  0.4716130000000  0.5903620000000 1.0
C      1  0.4195000000000  0.4705380000000  0.4575170000000 1.0
C      1  0.4748680000000  0.4194840000000  0.5193770000000 1.0
C      1  0.4961910000000  0.4189460000000  0.4699720000000 1.0
C      1  0.5280900000000  0.4191140000000  0.5132530000000 1.0
C      1  0.5400610000000  0.5011070000000  0.4981470000000 1.0
C      1  0.4803410000000  0.5016430000000  0.5357390000000 1.0
C      1  0.4772410000000  0.5016630000000  0.4654200000000 1.0
C      1  0.4875560000000  0.4552450000000  0.5804600000000 1.0
C      1  0.4361930000000  0.4474500000000  0.4505280000000 1.0
C      1  0.5743380000000  0.4472930000000  0.4702370000000 1.0
C      1  0.5669050000000  0.5048400000000  0.5547510000000 1.0
C      1  0.4172350000000  0.5038480000000  0.5282120000000 1.0
C      1  0.5146650000000  0.5039830000000  0.4151900000000 1.0
C      1  0.4629610000000  0.5684370000000  0.4773620000000 1.0
C      1  0.5388830000000  0.5684990000000  0.4791660000000 1.0
C      1  0.4989840000000  0.5671970000000  0.5444130000000 1.0
C      1  0.4758620000000  0.5428620000000  0.5086960000000 1.0
C      1  0.5039430000000  0.5429550000000  0.4741620000000 1.0
C      1  0.5199110000000  0.5428100000000  0.5160810000000 1.0
C      1  0.5491920000000  0.5187770000000  0.4562330000000 1.0
C      1  0.5159670000000  0.5179540000000  0.5647080000000 1.0
C      1  0.4367960000000  0.5192970000000  0.4788100000000 1.0
C      1  0.5935020000000  0.5094390000000  0.4974580000000 1.0
C      1  0.4608390000000  0.5010560000000  0.5797850000000 1.0
C      1  0.4509330000000  0.5098030000000  0.4199220000000 1.0
C      1  0.5226910000000  0.4225290000000  0.4827760000000 1.0
C      1  0.5037930000000  0.4228390000000  0.5299750000000 1.0
C      1  0.4725950000000  0.4225770000000  0.4898600000000 1.0
C      1  0.4999410000000  0.5478150000000  0.4996550000000 1.0
C      1  0.4997110000000  0.4579040000000  0.5001780000000 1.0
END
