TITL C-862506-1665-150 -0.000118898015963225 125000 -882.023539815307 0 0 144 (C6h) n - 1
REM
REM in /home/nfs/bkarasulu/CARBON/AIRSS/Generating-Clusters/TERSOFF/Higher-Symm/FIRE-HFTN
REM
REM
REM
REM
REM
REM ./C.cell (b20cbc046b6831c77cfcea5457e17084)
REM AIRSS Version 0.9.1 bugfix July 2018 build 013d7b7c2542+ Fri, 06 Jul 2018 19:26:36 +0100
REM compiler GCC version 9.2.1 20190827 (Red Hat 9.2.1-1)
REM options -cpp -mtune=generic -march=x86-64 -g -O0 -fpre-include=/usr/include/finclude/math-vector-fortran.h
REM seed 625759022 1932808851 -1218955379 -7965932 159563539 -736648308 1031867071 805578089 656185006 -1366372353 -171725447 -82099987 252885104 -429436668 429525771 1714313853 -791965048 -348288179 -1083620629 -368173668 -618594037 1069349419 -2058582949 -884222364 -237983900 1994610788 1675154137 -2084126597 -2123136130 239944407 1127333868 -2136362841 389482995
REM
CELL 1.54180   50.00000   50.00000   50.00000   90.00000   90.00000   90.00000
LATT -1
SFAC C  
C      1  0.4107490000000  0.5296050000000  0.5538420000000 1.0
C      1  0.4087460000000  0.5296050000000  0.4496280000000 1.0
C      1  0.4979970000000  0.5296050000000  0.3957850000000 1.0
C      1  0.5892510000000  0.5296050000000  0.4461580000000 1.0
C      1  0.5912540000000  0.5296050000000  0.5503720000000 1.0
C      1  0.5020030000000  0.5296050000000  0.6042150000000 1.0
C      1  0.4107490000000  0.4703950000000  0.5538420000000 1.0
C      1  0.4087460000000  0.4703950000000  0.4496280000000 1.0
C      1  0.4979970000000  0.4703950000000  0.3957850000000 1.0
C      1  0.5892510000000  0.4703950000000  0.4461580000000 1.0
C      1  0.5912540000000  0.4703950000000  0.5503720000000 1.0
C      1  0.5020030000000  0.4703950000000  0.6042150000000 1.0
C      1  0.4607770000000  0.5877930000000  0.5352350000000 1.0
C      1  0.4498740000000  0.5877930000000  0.4836490000000 1.0
C      1  0.4890970000000  0.5877930000000  0.4484140000000 1.0
C      1  0.5392230000000  0.5877930000000  0.4647650000000 1.0
C      1  0.5501260000000  0.5877930000000  0.5163510000000 1.0
C      1  0.5109030000000  0.5877930000000  0.5515860000000 1.0
C      1  0.4607770000000  0.4122070000000  0.5352350000000 1.0
C      1  0.4498740000000  0.4122070000000  0.4836490000000 1.0
C      1  0.4890970000000  0.4122070000000  0.4484140000000 1.0
C      1  0.5392230000000  0.4122070000000  0.4647650000000 1.0
C      1  0.5501260000000  0.4122070000000  0.5163510000000 1.0
C      1  0.5109030000000  0.4122070000000  0.5515860000000 1.0
C      1  0.3963800000000  0.5157390000000  0.4736210000000 1.0
C      1  0.4710340000000  0.5157390000000  0.3970730000000 1.0
C      1  0.5746550000000  0.5157390000000  0.4234520000000 1.0
C      1  0.6036200000000  0.5157390000000  0.5263790000000 1.0
C      1  0.5289660000000  0.5157390000000  0.6029270000000 1.0
C      1  0.4253450000000  0.5157390000000  0.5765480000000 1.0
C      1  0.3963800000000  0.4842610000000  0.4736210000000 1.0
C      1  0.4710340000000  0.4842610000000  0.3970730000000 1.0
C      1  0.5746550000000  0.4842610000000  0.4234520000000 1.0
C      1  0.6036200000000  0.4842610000000  0.5263790000000 1.0
C      1  0.5289660000000  0.4842610000000  0.6029270000000 1.0
C      1  0.4253450000000  0.4842610000000  0.5765480000000 1.0
C      1  0.4244810000000  0.4857270000000  0.4285860000000 1.0
C      1  0.5240860000000  0.4857270000000  0.3988920000000 1.0
C      1  0.5996060000000  0.4857270000000  0.4703050000000 1.0
C      1  0.5755190000000  0.4857270000000  0.5714140000000 1.0
C      1  0.4759140000000  0.4857270000000  0.6011080000000 1.0
C      1  0.4003940000000  0.4857270000000  0.5296950000000 1.0
C      1  0.4244810000000  0.5142730000000  0.4285860000000 1.0
C      1  0.5240860000000  0.5142730000000  0.3988920000000 1.0
C      1  0.5996060000000  0.5142730000000  0.4703050000000 1.0
C      1  0.5755190000000  0.5142730000000  0.5714140000000 1.0
C      1  0.4759140000000  0.5142730000000  0.6011080000000 1.0
C      1  0.4003940000000  0.5142730000000  0.5296950000000 1.0
C      1  0.4674530000000  0.5556610000000  0.5821970000000 1.0
C      1  0.4125420000000  0.5556610000000  0.5129120000000 1.0
C      1  0.4450890000000  0.5556610000000  0.4307150000000 1.0
C      1  0.5325470000000  0.5556610000000  0.4178030000000 1.0
C      1  0.5874580000000  0.5556610000000  0.4870880000000 1.0
C      1  0.5549110000000  0.5556610000000  0.5692850000000 1.0
C      1  0.4674530000000  0.4443390000000  0.5821970000000 1.0
C      1  0.4125420000000  0.4443390000000  0.5129120000000 1.0
C      1  0.4450890000000  0.4443390000000  0.4307150000000 1.0
C      1  0.5325470000000  0.4443390000000  0.4178030000000 1.0
C      1  0.5874580000000  0.4443390000000  0.4870880000000 1.0
C      1  0.5549110000000  0.4443390000000  0.5692850000000 1.0
C      1  0.4764380000000  0.5436290000000  0.5162010000000 1.0
C      1  0.4741890000000  0.5436290000000  0.4876950000000 1.0
C      1  0.4977510000000  0.5436290000000  0.4714950000000 1.0
C      1  0.5235620000000  0.5436290000000  0.4837990000000 1.0
C      1  0.5258110000000  0.5436290000000  0.5123050000000 1.0
C      1  0.5022490000000  0.5436290000000  0.5285050000000 1.0
C      1  0.4764380000000  0.4563710000000  0.5162010000000 1.0
C      1  0.4741890000000  0.4563710000000  0.4876950000000 1.0
C      1  0.4977510000000  0.4563710000000  0.4714950000000 1.0
C      1  0.5235620000000  0.4563710000000  0.4837990000000 1.0
C      1  0.5258110000000  0.4563710000000  0.5123050000000 1.0
C      1  0.5022490000000  0.4563710000000  0.5285050000000 1.0
C      1  0.4952240000000  0.5299090000000  0.4465800000000 1.0
C      1  0.5438750000000  0.5299090000000  0.4691540000000 1.0
C      1  0.5486510000000  0.5299090000000  0.5225730000000 1.0
C      1  0.5047760000000  0.5299090000000  0.5534200000000 1.0
C      1  0.4561250000000  0.5299090000000  0.5308460000000 1.0
C      1  0.4513490000000  0.5299090000000  0.4774270000000 1.0
C      1  0.4952240000000  0.4700910000000  0.4465800000000 1.0
C      1  0.5438750000000  0.4700910000000  0.4691540000000 1.0
C      1  0.5486510000000  0.4700910000000  0.5225730000000 1.0
C      1  0.5047760000000  0.4700910000000  0.5534200000000 1.0
C      1  0.4561250000000  0.4700910000000  0.5308460000000 1.0
C      1  0.4513490000000  0.4700910000000  0.4774270000000 1.0
C      1  0.4430580000000  0.4290830000000  0.5516460000000 1.0
C      1  0.4268020000000  0.4290830000000  0.4765100000000 1.0
C      1  0.4837440000000  0.4290830000000  0.4248640000000 1.0
C      1  0.5569420000000  0.4290830000000  0.4483540000000 1.0
C      1  0.5731980000000  0.4290830000000  0.5234900000000 1.0
C      1  0.5162560000000  0.4290830000000  0.5751360000000 1.0
C      1  0.4430580000000  0.5709170000000  0.5516460000000 1.0
C      1  0.4268020000000  0.5709170000000  0.4765100000000 1.0
C      1  0.4837440000000  0.5709170000000  0.4248640000000 1.0
C      1  0.5569420000000  0.5709170000000  0.4483540000000 1.0
C      1  0.5731980000000  0.5709170000000  0.5234900000000 1.0
C      1  0.5162560000000  0.5709170000000  0.5751360000000 1.0
C      1  0.5038810000000  0.5561780000000  0.4098770000000 1.0
C      1  0.5799900000000  0.5561780000000  0.4582990000000 1.0
C      1  0.5761090000000  0.5561780000000  0.5484230000000 1.0
C      1  0.4961190000000  0.5561780000000  0.5901230000000 1.0
C      1  0.4200100000000  0.5561780000000  0.5417010000000 1.0
C      1  0.4238910000000  0.5561780000000  0.4515770000000 1.0
C      1  0.5038810000000  0.4438220000000  0.4098770000000 1.0
C      1  0.5799900000000  0.4438220000000  0.4582990000000 1.0
C      1  0.5761090000000  0.4438220000000  0.5484230000000 1.0
C      1  0.4961190000000  0.4438220000000  0.5901230000000 1.0
C      1  0.4200100000000  0.4438220000000  0.5417010000000 1.0
C      1  0.4238910000000  0.4438220000000  0.4515770000000 1.0
C      1  0.5667280000000  0.5146130000000  0.5064110000000 1.0
C      1  0.5278120000000  0.5146130000000  0.5609930000000 1.0
C      1  0.4610840000000  0.5146130000000  0.5545820000000 1.0
C      1  0.4332720000000  0.5146130000000  0.4935890000000 1.0
C      1  0.4721880000000  0.5146130000000  0.4390070000000 1.0
C      1  0.5389160000000  0.5146130000000  0.4454180000000 1.0
C      1  0.5667280000000  0.4853870000000  0.5064110000000 1.0
C      1  0.5278120000000  0.4853870000000  0.5609930000000 1.0
C      1  0.4610840000000  0.4853870000000  0.5545820000000 1.0
C      1  0.4332720000000  0.4853870000000  0.4935890000000 1.0
C      1  0.4721880000000  0.4853870000000  0.4390070000000 1.0
C      1  0.5389160000000  0.4853870000000  0.4454180000000 1.0
C      1  0.4555740000000  0.4722280000000  0.5820590000000 1.0
C      1  0.4067220000000  0.4722280000000  0.5025550000000 1.0
C      1  0.4511480000000  0.4722280000000  0.4204960000000 1.0
C      1  0.5444260000000  0.4722280000000  0.4179410000000 1.0
C      1  0.5932780000000  0.4722280000000  0.4974450000000 1.0
C      1  0.5488520000000  0.4722280000000  0.5795040000000 1.0
C      1  0.4555740000000  0.5277720000000  0.5820590000000 1.0
C      1  0.4067220000000  0.5277720000000  0.5025550000000 1.0
C      1  0.4511480000000  0.5277720000000  0.4204960000000 1.0
C      1  0.5444260000000  0.5277720000000  0.4179410000000 1.0
C      1  0.5932780000000  0.5277720000000  0.4974450000000 1.0
C      1  0.5488520000000  0.5277720000000  0.5795040000000 1.0
C      1  0.4504100000000  0.3998940000000  0.5104950000000 1.0
C      1  0.4661160000000  0.3998940000000  0.4623010000000 1.0
C      1  0.5157060000000  0.3998940000000  0.4518060000000 1.0
C      1  0.5495900000000  0.3998940000000  0.4895050000000 1.0
C      1  0.5338840000000  0.3998940000000  0.5376990000000 1.0
C      1  0.4842940000000  0.3998940000000  0.5481940000000 1.0
C      1  0.4504100000000  0.6001060000000  0.5104950000000 1.0
C      1  0.4661160000000  0.6001060000000  0.4623010000000 1.0
C      1  0.5157060000000  0.6001060000000  0.4518060000000 1.0
C      1  0.5495900000000  0.6001060000000  0.4895050000000 1.0
C      1  0.5338840000000  0.6001060000000  0.5376990000000 1.0
C      1  0.4842940000000  0.6001060000000  0.5481940000000 1.0
END
