TITL C-862133-5440-958 38.0778853668046 125000 -891.406328996114 0 0 152 (C1) n - 1
REM
REM in /home/nfs/bkarasulu/CARBON/AIRSS/Generating-Clusters/TERSOFF/Higher-Symm/FIRE-HFTN
REM
REM
REM
REM
REM
REM ./C.cell (b20cbc046b6831c77cfcea5457e17084)
REM AIRSS Version 0.9.1 bugfix July 2018 build 013d7b7c2542+ Fri, 06 Jul 2018 19:26:36 +0100
REM compiler GCC version 9.2.1 20190827 (Red Hat 9.2.1-1)
REM options -cpp -mtune=generic -march=x86-64 -g -O0 -fpre-include=/usr/include/finclude/math-vector-fortran.h
REM seed -1773354400 1879561466 778443922 1542466656 -1060746785 684599080 -1020427539 -571024965 2112905269 -1820482351 1413433964 428307441 -1169958387 -1195729192 -1316022583 1876523356 1941308605 -2103368938 2103803860 1996702129 1573227583 -344368081 539318141 -1253868263 1531704857 2057270879 -1250009672 211511464 1895912729 1549904392 1401369843 -599580696 -2088293474
REM
CELL 1.54180   50.00000   50.00000   50.00000   90.00000   90.00000   90.00000
LATT -1
SFAC C  
C      1  0.5024060000000  0.4567560000000  0.4398640000000 1.0
C      1  0.4344000000000  0.5382100000000  0.4476160000000 1.0
C      1  0.5446050000000  0.4385410000000  0.4231600000000 1.0
C      1  0.5336110000000  0.5212180000000  0.4835480000000 1.0
C      1  0.5056250000000  0.5675230000000  0.5286170000000 1.0
C      1  0.5288890000000  0.5669990000000  0.5457170000000 1.0
C      1  0.4761120000000  0.5066560000000  0.4278230000000 1.0
C      1  0.5148360000000  0.5108180000000  0.5453130000000 1.0
C      1  0.4068450000000  0.4580130000000  0.4669620000000 1.0
C      1  0.4374510000000  0.4365210000000  0.5493000000000 1.0
C      1  0.6114680000000  0.5230600000000  0.5622120000000 1.0
C      1  0.5360350000000  0.5635690000000  0.4562770000000 1.0
C      1  0.5268940000000  0.5723580000000  0.5744260000000 1.0
C      1  0.5564950000000  0.4525330000000  0.4483940000000 1.0
C      1  0.5799280000000  0.4418230000000  0.4632780000000 1.0
C      1  0.4217020000000  0.4794630000000  0.5722210000000 1.0
C      1  0.4264890000000  0.5809370000000  0.4969300000000 1.0
C      1  0.5047170000000  0.4264440000000  0.5071860000000 1.0
C      1  0.4663920000000  0.5934220000000  0.4342250000000 1.0
C      1  0.4996050000000  0.4052070000000  0.5561520000000 1.0
C      1  0.3887770000000  0.4745500000000  0.4839880000000 1.0
C      1  0.4032850000000  0.4685460000000  0.5516440000000 1.0
C      1  0.5375960000000  0.4927100000000  0.4792710000000 1.0
C      1  0.3958580000000  0.4817990000000  0.5125190000000 1.0
C      1  0.4797440000000  0.3786700000000  0.4496060000000 1.0
C      1  0.5054440000000  0.4012480000000  0.4876690000000 1.0
C      1  0.5752310000000  0.5283360000000  0.5090460000000 1.0
C      1  0.5228590000000  0.6118530000000  0.4458390000000 1.0
C      1  0.6058280000000  0.5211210000000  0.4711930000000 1.0
C      1  0.4718050000000  0.4902520000000  0.4042600000000 1.0
C      1  0.3975450000000  0.5285730000000  0.5019740000000 1.0
C      1  0.5717910000000  0.4500920000000  0.5529520000000 1.0
C      1  0.5581980000000  0.4805480000000  0.4959770000000 1.0
C      1  0.5135820000000  0.6197820000000  0.4721310000000 1.0
C      1  0.5836340000000  0.5618690000000  0.4562320000000 1.0
C      1  0.4836450000000  0.5798920000000  0.4115950000000 1.0
C      1  0.5096970000000  0.4215500000000  0.5822770000000 1.0
C      1  0.4281920000000  0.5077060000000  0.5678430000000 1.0
C      1  0.4861230000000  0.4454090000000  0.4194190000000 1.0
C      1  0.4650020000000  0.5566340000000  0.4033200000000 1.0
C      1  0.5878070000000  0.5813730000000  0.5351140000000 1.0
C      1  0.5951530000000  0.4932010000000  0.5218430000000 1.0
C      1  0.5686170000000  0.5402400000000  0.5874220000000 1.0
C      1  0.5303720000000  0.3947490000000  0.4737470000000 1.0
C      1  0.5191170000000  0.5136660000000  0.4002570000000 1.0
C      1  0.5501560000000  0.5642280000000  0.5923720000000 1.0
C      1  0.5464100000000  0.4115780000000  0.5326550000000 1.0
C      1  0.4702090000000  0.5952380000000  0.5092370000000 1.0
C      1  0.4096320000000  0.5093380000000  0.5210260000000 1.0
C      1  0.5144870000000  0.4442830000000  0.5594550000000 1.0
C      1  0.5280750000000  0.4703190000000  0.5621190000000 1.0
C      1  0.4984140000000  0.5891420000000  0.5106770000000 1.0
C      1  0.5525270000000  0.4640400000000  0.5183360000000 1.0
C      1  0.5933980000000  0.5839300000000  0.5073430000000 1.0
C      1  0.4361310000000  0.5660610000000  0.4067140000000 1.0
C      1  0.4350430000000  0.4559720000000  0.4205470000000 1.0
C      1  0.5451880000000  0.4826130000000  0.4518140000000 1.0
C      1  0.4716170000000  0.3977980000000  0.5516610000000 1.0
C      1  0.4998650000000  0.5780490000000  0.5850440000000 1.0
C      1  0.4785080000000  0.4935180000000  0.6145010000000 1.0
C      1  0.4959340000000  0.4171050000000  0.4182020000000 1.0
C      1  0.5256570000000  0.4147410000000  0.4261020000000 1.0
C      1  0.6162630000000  0.5069680000000  0.5373010000000 1.0
C      1  0.5366610000000  0.4650950000000  0.4042080000000 1.0
C      1  0.6013820000000  0.4926170000000  0.4696890000000 1.0
C      1  0.4942420000000  0.6014400000000  0.5506170000000 1.0
C      1  0.5952060000000  0.5370500000000  0.4489650000000 1.0
C      1  0.4911530000000  0.5157910000000  0.6266650000000 1.0
C      1  0.4541030000000  0.4722480000000  0.4686360000000 1.0
C      1  0.5887360000000  0.4496690000000  0.4907410000000 1.0
C      1  0.5261170000000  0.5381740000000  0.4458960000000 1.0
C      1  0.4215740000000  0.5478250000000  0.4237620000000 1.0
C      1  0.4520000000000  0.4140430000000  0.5367210000000 1.0
C      1  0.4564870000000  0.5143850000000  0.5631140000000 1.0
C      1  0.6000100000000  0.4773760000000  0.4951250000000 1.0
C      1  0.6114300000000  0.5620220000000  0.4992320000000 1.0
C      1  0.4745540000000  0.5791130000000  0.5623450000000 1.0
C      1  0.4111900000000  0.5229160000000  0.5479290000000 1.0
C      1  0.4745960000000  0.4459960000000  0.6081530000000 1.0
C      1  0.4474930000000  0.5515750000000  0.5458730000000 1.0
C      1  0.4916480000000  0.5105060000000  0.5264340000000 1.0
C      1  0.4546350000000  0.5914950000000  0.5350150000000 1.0
C      1  0.4438900000000  0.4577520000000  0.5706550000000 1.0
C      1  0.4393780000000  0.4999400000000  0.5141410000000 1.0
C      1  0.5184160000000  0.6048940000000  0.4965870000000 1.0
C      1  0.5037410000000  0.4396930000000  0.4626380000000 1.0
C      1  0.5543740000000  0.5393790000000  0.4916600000000 1.0
C      1  0.4450860000000  0.5045180000000  0.4818760000000 1.0
C      1  0.4772480000000  0.5368660000000  0.4257720000000 1.0
C      1  0.4777310000000  0.4299060000000  0.4693580000000 1.0
C      1  0.5128820000000  0.4950490000000  0.5724030000000 1.0
C      1  0.4231920000000  0.5182720000000  0.4645220000000 1.0
C      1  0.4934750000000  0.5102870000000  0.4743960000000 1.0
C      1  0.3789820000000  0.4981690000000  0.4700310000000 1.0
C      1  0.5540670000000  0.4732850000000  0.5474930000000 1.0
C      1  0.5894220000000  0.4292640000000  0.5118210000000 1.0
C      1  0.4401600000000  0.5932240000000  0.4189560000000 1.0
C      1  0.4385800000000  0.4695760000000  0.5150170000000 1.0
C      1  0.4775210000000  0.3953400000000  0.4253900000000 1.0
C      1  0.4632740000000  0.5085270000000  0.5346060000000 1.0
C      1  0.4697080000000  0.4608000000000  0.5829140000000 1.0
C      1  0.5177970000000  0.4224470000000  0.5340670000000 1.0
C      1  0.5694460000000  0.5872280000000  0.4906740000000 1.0
C      1  0.5290080000000  0.5103250000000  0.5940400000000 1.0
C      1  0.4839050000000  0.4883840000000  0.5843700000000 1.0
C      1  0.4534710000000  0.5876730000000  0.4852860000000 1.0
C      1  0.5104880000000  0.5375470000000  0.4204590000000 1.0
C      1  0.5890600000000  0.5425380000000  0.5662930000000 1.0
C      1  0.5159710000000  0.4473300000000  0.4873750000000 1.0
C      1  0.4959710000000  0.4980920000000  0.3880530000000 1.0
C      1  0.4209360000000  0.4708300000000  0.4429260000000 1.0
C      1  0.4128900000000  0.4290400000000  0.4722110000000 1.0
C      1  0.5234520000000  0.4736240000000  0.4321530000000 1.0
C      1  0.5275480000000  0.5845420000000  0.4375770000000 1.0
C      1  0.4630020000000  0.5462150000000  0.4541060000000 1.0
C      1  0.5826720000000  0.5235940000000  0.4269230000000 1.0
C      1  0.5867340000000  0.4826760000000  0.4456550000000 1.0
C      1  0.4732060000000  0.4323210000000  0.4999710000000 1.0
C      1  0.5167120000000  0.4755180000000  0.4918210000000 1.0
C      1  0.4247070000000  0.5816260000000  0.5274360000000 1.0
C      1  0.5599890000000  0.5644320000000  0.4741130000000 1.0
C      1  0.5710460000000  0.4280640000000  0.5343560000000 1.0
C      1  0.5571110000000  0.5143060000000  0.5914820000000 1.0
C      1  0.5645280000000  0.4998440000000  0.4297120000000 1.0
C      1  0.4686180000000  0.5249250000000  0.4773660000000 1.0
C      1  0.5495310000000  0.5493260000000  0.5383400000000 1.0
C      1  0.4686080000000  0.5470030000000  0.6017310000000 1.0
C      1  0.4802690000000  0.3888190000000  0.4774580000000 1.0
C      1  0.4642300000000  0.5451410000000  0.5715350000000 1.0
C      1  0.5452680000000  0.4962850000000  0.4044200000000 1.0
C      1  0.4332590000000  0.4258940000000  0.4517830000000 1.0
C      1  0.4423860000000  0.4055680000000  0.5097250000000 1.0
C      1  0.4172590000000  0.5543460000000  0.5450720000000 1.0
C      1  0.5661500000000  0.5015410000000  0.5314530000000 1.0
C      1  0.5333800000000  0.3934240000000  0.4447050000000 1.0
C      1  0.4165090000000  0.4169670000000  0.4990840000000 1.0
C      1  0.4202880000000  0.4538100000000  0.5321100000000 1.0
C      1  0.4557630000000  0.4577400000000  0.4956880000000 1.0
C      1  0.4643730000000  0.5763800000000  0.4595910000000 1.0
C      1  0.5424400000000  0.5211190000000  0.5365670000000 1.0
C      1  0.4942420000000  0.4253860000000  0.6061980000000 1.0
C      1  0.5109250000000  0.5703380000000  0.4166590000000 1.0
C      1  0.3959530000000  0.5212150000000  0.4743050000000 1.0
C      1  0.5154300000000  0.5246890000000  0.6153730000000 1.0
C      1  0.6025980000000  0.5338380000000  0.4976130000000 1.0
C      1  0.4927880000000  0.4964690000000  0.4494420000000 1.0
C      1  0.5768070000000  0.5569030000000  0.5448440000000 1.0
C      1  0.4901910000000  0.5647030000000  0.6093730000000 1.0
C      1  0.4630830000000  0.4618440000000  0.4100330000000 1.0
C      1  0.4753090000000  0.4675360000000  0.6285470000000 1.0
C      1  0.4565450000000  0.4426440000000  0.4540720000000 1.0
C      1  0.4568870000000  0.3845100000000  0.4950350000000 1.0
END
