TITL C-862500-986-1395 0.00754726828918005 125000 -554.224376226145 0 0 98 (C3) n - 1
REM
REM in /home/nfs/bkarasulu/CARBON/AIRSS/Generating-Clusters/TERSOFF/Higher-Symm/FIRE-HFTN
REM
REM
REM
REM
REM
REM ./C.cell (b20cbc046b6831c77cfcea5457e17084)
REM AIRSS Version 0.9.1 bugfix July 2018 build 013d7b7c2542+ Fri, 06 Jul 2018 19:26:36 +0100
REM compiler GCC version 9.2.1 20190827 (Red Hat 9.2.1-1)
REM options -cpp -mtune=generic -march=x86-64 -g -O0 -fpre-include=/usr/include/finclude/math-vector-fortran.h
REM seed 1164545113 64630794 429476645 -80679726 -1563643716 -1588212795 554298387 -203961912 2029077304 -1308808692 -1640204592 688857027 1418818317 -541156563 -1149926427 304303701 -1657144030 -1459798742 812703157 660386800 -1130004974 -1080632324 -148641149 -989254370 1607446595 55200709 -469010952 -1419111826 -2090063849 -576830709 -1182365326 757296288 -1081345408
REM
CELL 1.54180   50.00000   50.00000   50.00000   90.00000   90.00000   90.00000
LATT -1
SFAC C  
C      1  0.4255240000000  0.4550890000000  0.5353400000000 1.0
C      1  0.5686080000000  0.4550890000000  0.5471110000000 1.0
C      1  0.5072600000000  0.4550890000000  0.4173120000000 1.0
C      1  0.5466320000000  0.5188270000000  0.4352480000000 1.0
C      1  0.4213720000000  0.5188270000000  0.4922750000000 1.0
C      1  0.5333880000000  0.5188260000000  0.5722400000000 1.0
C      1  0.5417480000000  0.4644020000000  0.5513100000000 1.0
C      1  0.5243260000000  0.4644020000000  0.4384740000000 1.0
C      1  0.4353180000000  0.4644020000000  0.5099790000000 1.0
C      1  0.5879370000000  0.4868580000000  0.5134090000000 1.0
C      1  0.4684080000000  0.4868580000000  0.4174230000000 1.0
C      1  0.4450470000000  0.4868580000000  0.5689310000000 1.0
C      1  0.4540340000000  0.4869150000000  0.5119730000000 1.0
C      1  0.5341160000000  0.4869150000000  0.5341040000000 1.0
C      1  0.5132410000000  0.4869150000000  0.4536860000000 1.0
C      1  0.4570410000000  0.5685270000000  0.5088370000000 1.0
C      1  0.5298970000000  0.5685270000000  0.5330680000000 1.0
C      1  0.5144540000000  0.5685270000000  0.4578580000000 1.0
C      1  0.4619400000000  0.4039310000000  0.4823100000000 1.0
C      1  0.5044740000000  0.4039310000000  0.5420890000000 1.0
C      1  0.5349770000000  0.4039310000000  0.4753640000000 1.0
C      1  0.4971330000000  0.4395410000000  0.4660370000000 1.0
C      1  0.4727850000000  0.4395410000000  0.5197470000000 1.0
C      1  0.5314740000000  0.4395410000000  0.5139790000000 1.0
C      1  0.5134160000000  0.5394050000000  0.5818110000000 1.0
C      1  0.5649070000000  0.5394050000000  0.4477590000000 1.0
C      1  0.4230690000000  0.5394050000000  0.4701930000000 1.0
C      1  0.4942810000000  0.4535970000000  0.5669360000000 1.0
C      1  0.5615920000000  0.4535970000000  0.4717680000000 1.0
C      1  0.4455190000000  0.4535970000000  0.4610590000000 1.0
C      1  0.5593430000000  0.4429790000000  0.4998970000000 1.0
C      1  0.4710040000000  0.4429790000000  0.4489420000000 1.0
C      1  0.4710450000000  0.4429790000000  0.5509240000000 1.0
C      1  0.4318590000000  0.4737490000000  0.4469650000000 1.0
C      1  0.4889050000000  0.4737490000000  0.5858130000000 1.0
C      1  0.5806280000000  0.4737490000000  0.4669860000000 1.0
C      1  0.5214700000000  0.4462020000000  0.5611470000000 1.0
C      1  0.5429840000000  0.4462020000000  0.4511160000000 1.0
C      1  0.4369370000000  0.4462020000000  0.4874990000000 1.0
C      1  0.5022910000000  0.5832550000000  0.5305740000000 1.0
C      1  0.5260960000000  0.5832550000000  0.4830120000000 1.0
C      1  0.4730040000000  0.5832550000000  0.4861770000000 1.0
C      1  0.5830070000000  0.5063790000000  0.5618720000000 1.0
C      1  0.5128430000000  0.5063790000000  0.3974610000000 1.0
C      1  0.4055410000000  0.5063790000000  0.5404300000000 1.0
C      1  0.4657010000000  0.4135790000000  0.4549560000000 1.0
C      1  0.4789040000000  0.4135790000000  0.5525090000000 1.0
C      1  0.5567860000000  0.4135790000000  0.4922980000000 1.0
C      1  0.4658470000000  0.5544510000000  0.4439450000000 1.0
C      1  0.4692960000000  0.5544510000000  0.5578880000000 1.0
C      1  0.5662490000000  0.5544510000000  0.4979300000000 1.0
C      1  0.4122430000000  0.5335130000000  0.4441150000000 1.0
C      1  0.4962450000000  0.5335130000000  0.6042250000000 1.0
C      1  0.5929040000000  0.5335130000000  0.4514230000000 1.0
C      1  0.5449730000000  0.5818670000000  0.5553190000000 1.0
C      1  0.5261850000000  0.5818680000000  0.4336760000000 1.0
C      1  0.4302340000000  0.5818670000000  0.5107680000000 1.0
C      1  0.5785830000000  0.4582660000000  0.5201290000000 1.0
C      1  0.4789050000000  0.4582660000000  0.4221640000000 1.0
C      1  0.4439040000000  0.4582660000000  0.5574700000000 1.0
C      1  0.6002970000000  0.5175740000000  0.4740830000000 1.0
C      1  0.4281710000000  0.5175740000000  0.4263820000000 1.0
C      1  0.4729240000000  0.5175740000000  0.5992980000000 1.0
C      1  0.4530180000000  0.5427410000000  0.4678960000000 1.0
C      1  0.4964530000000  0.5427410000000  0.5570230000000 1.0
C      1  0.5519210000000  0.5427410000000  0.4748440000000 1.0
C      1  0.5249780000000  0.5136970000000  0.4550600000000 1.0
C      1  0.4493560000000  0.5136970000000  0.5011220000000 1.0
C      1  0.5270580000000  0.5136970000000  0.5435820000000 1.0
C      1  0.4986380000000  0.5205320000000  0.5359160000000 1.0
C      1  0.5325500000000  0.5205320000000  0.4835050000000 1.0
C      1  0.4702040000000  0.5205320000000  0.4803420000000 1.0
C      1  0.4778130000000  0.5019860000000  0.5474580000000 1.0
C      1  0.5529580000000  0.5019860000000  0.4957680000000 1.0
C      1  0.4706210000000  0.5019860000000  0.4565370000000 1.0
C      1  0.4459940000000  0.4962770000000  0.4359160000000 1.0
C      1  0.4722690000000  0.4962770000000  0.5790960000000 1.0
C      1  0.5831290000000  0.4962770000000  0.4847510000000 1.0
C      1  0.4872220000000  0.5101140000000  0.4121040000000 1.0
C      1  0.4310330000000  0.5101140000000  0.5552970000000 1.0
C      1  0.5831370000000  0.5101140000000  0.5323620000000 1.0
C      1  0.4475310000000  0.5347610000000  0.5475370000000 1.0
C      1  0.5681670000000  0.5347610000000  0.5219540000000 1.0
C      1  0.4856940000000  0.5347610000000  0.4302720000000 1.0
C      1  0.5412710000000  0.5379130000000  0.5325930000000 1.0
C      1  0.5083550000000  0.5379130000000  0.4482450000000 1.0
C      1  0.4517650000000  0.5379130000000  0.5189250000000 1.0
C      1  0.4750950000000  0.5724500000000  0.5340610000000 1.0
C      1  0.5427140000000  0.5724500000000  0.5048210000000 1.0
C      1  0.4835830000000  0.5724500000000  0.4608810000000 1.0
C      1  0.5615670000000  0.5160080000000  0.5800410000000 1.0
C      1  0.5392980000000  0.5160090000000  0.4069440000000 1.0
C      1  0.4005260000000  0.5160090000000  0.5127780000000 1.0
C      1  0.5173620000000  0.4136740000000  0.5173090000000 1.0
C      1  0.5070730000000  0.4136740000000  0.4765930000000 1.0
C      1  0.4769560000000  0.4136740000000  0.5058610000000 1.0
C      1  0.5004640000000  0.5195220000000  0.4999210000000 1.0
C      1  0.5004640000000  0.4881110000000  0.4999210000000 1.0
END
