TITL C-862501-1041-78 17.1638151258601 125000 -285.165922681741 0 0 64 (C2) n - 1
REM
REM in /home/nfs/bkarasulu/CARBON/AIRSS/Generating-Clusters/TERSOFF/Higher-Symm/FIRE-HFTN
REM
REM
REM
REM
REM
REM ./C.cell (b20cbc046b6831c77cfcea5457e17084)
REM AIRSS Version 0.9.1 bugfix July 2018 build 013d7b7c2542+ Fri, 06 Jul 2018 19:26:36 +0100
REM compiler GCC version 9.2.1 20190827 (Red Hat 9.2.1-1)
REM options -cpp -mtune=generic -march=x86-64 -g -O0 -fpre-include=/usr/include/finclude/math-vector-fortran.h
REM seed 1662502015 -1079817466 -1095345318 743615860 -1048855876 1632768167 -2013071831 1166470130 -1579537413 -1995070442 -1282183243 911408807 748085391 -1984873843 927720920 1709924781 1477013636 379631926 -1642523072 1739393586 99137993 -1859684738 1445712324 1758938965 1443890890 -1277792434 289649765 -1558331563 1813912400 -1159985101 -776595266 417122213 -587193940
REM
CELL 1.54180   50.00000   50.00000   50.00000   90.00000   90.00000   90.00000
LATT -1
SFAC C  
C      1  0.4219790000000  0.4981820000000  0.4629110000000 1.0
C      1  0.4619390000000  0.4266240000000  0.4958280000000 1.0
C      1  0.4937950000000  0.4605050000000  0.4298920000000 1.0
C      1  0.5719250000000  0.4929730000000  0.5396620000000 1.0
C      1  0.4264580000000  0.5069290000000  0.5396620000000 1.0
C      1  0.5764040000000  0.5017190000000  0.4629110000000 1.0
C      1  0.5344870000000  0.4193930000000  0.5080820000000 1.0
C      1  0.4638960000000  0.5805090000000  0.5080820000000 1.0
C      1  0.5364440000000  0.5732770000000  0.4958280000000 1.0
C      1  0.5022460000000  0.4604280000000  0.5757350000000 1.0
C      1  0.4961370000000  0.5394740000000  0.5757350000000 1.0
C      1  0.5045870000000  0.5393960000000  0.4298920000000 1.0
C      1  0.5353230000000  0.4378020000000  0.4516090000000 1.0
C      1  0.4561710000000  0.5170490000000  0.4372250000000 1.0
C      1  0.4323750000000  0.4620050000000  0.5288000000000 1.0
C      1  0.4719790000000  0.4374040000000  0.5434750000000 1.0
C      1  0.5264040000000  0.5624970000000  0.5434750000000 1.0
C      1  0.4630590000000  0.5621000000000  0.4516090000000 1.0
C      1  0.5393240000000  0.5207960000000  0.5650160000000 1.0
C      1  0.4590590000000  0.4791060000000  0.5650160000000 1.0
C      1  0.5422110000000  0.4828530000000  0.4372250000000 1.0
C      1  0.5678260000000  0.4618960000000  0.4731330000000 1.0
C      1  0.4305570000000  0.5380060000000  0.4731330000000 1.0
C      1  0.5660070000000  0.5378960000000  0.5288000000000 1.0
C      1  0.4770240000000  0.5034760000000  0.4564100000000 1.0
C      1  0.4472620000000  0.4778090000000  0.5070910000000 1.0
C      1  0.5149090000000  0.4466010000000  0.4705900000000 1.0
C      1  0.5205320000000  0.5029800000000  0.5479300000000 1.0
C      1  0.4778500000000  0.4969220000000  0.5479300000000 1.0
C      1  0.5213590000000  0.4964260000000  0.4564100000000 1.0
C      1  0.5486740000000  0.4715430000000  0.4956120000000 1.0
C      1  0.4497090000000  0.5283590000000  0.4956120000000 1.0
C      1  0.5511200000000  0.5220930000000  0.5070910000000 1.0
C      1  0.4931730000000  0.4502110000000  0.5241440000000 1.0
C      1  0.5052100000000  0.5496910000000  0.5241440000000 1.0
C      1  0.4834740000000  0.5533010000000  0.4705900000000 1.0
C      1  0.5498700000000  0.5029320000000  0.4774730000000 1.0
C      1  0.4753260000000  0.5526880000000  0.5037870000000 1.0
C      1  0.5030390000000  0.4732410000000  0.5485720000000 1.0
C      1  0.4533590000000  0.5062720000000  0.5240020000000 1.0
C      1  0.5450240000000  0.4936290000000  0.5240020000000 1.0
C      1  0.4485130000000  0.4969690000000  0.4774730000000 1.0
C      1  0.5281440000000  0.5440130000000  0.5001570000000 1.0
C      1  0.4702390000000  0.4558890000000  0.5001570000000 1.0
C      1  0.5230570000000  0.4472140000000  0.5037870000000 1.0
C      1  0.4957320000000  0.4728850000000  0.4586450000000 1.0
C      1  0.5026510000000  0.5270170000000  0.4586450000000 1.0
C      1  0.4953440000000  0.5266610000000  0.5485720000000 1.0
C      1  0.5560810000000  0.4579150000000  0.4461710000000 1.0
C      1  0.4423010000000  0.5419870000000  0.4461710000000 1.0
C      1  0.4489790000000  0.4543310000000  0.5521470000000 1.0
C      1  0.5494040000000  0.5455700000000  0.5521470000000 1.0
C      1  0.5042260000000  0.5235120000000  0.4915160000000 1.0
C      1  0.5167300000000  0.4961700000000  0.5067080000000 1.0
C      1  0.4816530000000  0.5037320000000  0.5067080000000 1.0
C      1  0.4941570000000  0.4763900000000  0.4915160000000 1.0
C      1  0.4670410000000  0.5349230000000  0.5332290000000 1.0
C      1  0.5369370000000  0.5337690000000  0.4675340000000 1.0
C      1  0.4614460000000  0.4661330000000  0.4675340000000 1.0
C      1  0.5313410000000  0.4649780000000  0.5332290000000 1.0
C      1  0.4490820000000  0.5508640000000  0.5506830000000 1.0
C      1  0.5529580000000  0.5511970000000  0.4505350000000 1.0
C      1  0.5493010000000  0.4490380000000  0.5506830000000 1.0
C      1  0.4454250000000  0.4487050000000  0.4505350000000 1.0
END
