TITL C-862501-1041-602 16046.6646652714 125000 -263.02452602592 0 0 49 (C1) n - 1
REM
REM in /home/nfs/bkarasulu/CARBON/AIRSS/Generating-Clusters/TERSOFF/Higher-Symm/FIRE-HFTN
REM
REM
REM
REM
REM
REM ./C.cell (b20cbc046b6831c77cfcea5457e17084)
REM AIRSS Version 0.9.1 bugfix July 2018 build 013d7b7c2542+ Fri, 06 Jul 2018 19:26:36 +0100
REM compiler GCC version 9.2.1 20190827 (Red Hat 9.2.1-1)
REM options -cpp -mtune=generic -march=x86-64 -g -O0 -fpre-include=/usr/include/finclude/math-vector-fortran.h
REM seed 1148080543 -1605248046 163538188 562555818 -1861406546 1506494075 1883970042 684016873 -584774058 540422068 1023845742 -1723605886 -1032546973 1584382753 1975687469 380881612 -772917107 -286664869 1451237142 1308871305 1606998893 -707562576 -2125560547 1654639738 391256040 -760807270 -1328183033 1873542746 447469031 1019946022 706972646 -235025375 416211806
REM
CELL 1.54180   50.00000   50.00000   50.00000   90.00000   90.00000   90.00000
LATT -1
SFAC C  
C      1  0.5156390000000  0.4783760000000  0.5054120000000 1.0
C      1  0.4837900000000  0.4787870000000  0.5057200000000 1.0
C      1  0.4709860000000  0.4729090000000  0.4510670000000 1.0
C      1  0.5272260000000  0.4721840000000  0.4505220000000 1.0
C      1  0.4850630000000  0.5381280000000  0.4939340000000 1.0
C      1  0.5156680000000  0.5377340000000  0.4936370000000 1.0
C      1  0.4702030000000  0.4687460000000  0.5329130000000 1.0
C      1  0.5294870000000  0.4679820000000  0.5323380000000 1.0
C      1  0.4844370000000  0.5230240000000  0.4441730000000 1.0
C      1  0.5149400000000  0.5226310000000  0.4438770000000 1.0
C      1  0.5706770000000  0.4841810000000  0.5119840000000 1.0
C      1  0.4290580000000  0.4860070000000  0.5133560000000 1.0
C      1  0.4473180000000  0.5525070000000  0.4610400000000 1.0
C      1  0.5535990000000  0.5525020000000  0.4611320000000 1.0
C      1  0.4634190000000  0.4638180000000  0.4832620000000 1.0
C      1  0.5351790000000  0.4628930000000  0.4825660000000 1.0
C      1  0.5476090000000  0.5199840000000  0.5398860000000 1.0
C      1  0.4535770000000  0.5211960000000  0.5407980000000 1.0
C      1  0.5006770000000  0.5037760000000  0.5714170000000 1.0
C      1  0.5013910000000  0.5464370000000  0.5882790000000 1.0
C      1  0.5637550000000  0.4687990000000  0.4881260000000 1.0
C      1  0.4351180000000  0.4704570000000  0.4893730000000 1.0
C      1  0.4699540000000  0.4329950000000  0.4788460000000 1.0
C      1  0.5277670000000  0.4322500000000  0.4782850000000 1.0
C      1  0.5532930000000  0.5085420000000  0.5130910000000 1.0
C      1  0.4470820000000  0.5099110000000  0.5141210000000 1.0
C      1  0.5257370000000  0.5389320000000  0.5438240000000 1.0
C      1  0.4760020000000  0.5395730000000  0.5443060000000 1.0
C      1  0.4798060000000  0.5530360000000  0.5192260000000 1.0
C      1  0.5217960000000  0.5524950000000  0.5188190000000 1.0
C      1  0.5009250000000  0.5008580000000  0.6008760000000 1.0
C      1  0.5013860000000  0.5284210000000  0.6117710000000 1.0
C      1  0.4717620000000  0.5088890000000  0.4943800000000 1.0
C      1  0.5282170000000  0.5081620000000  0.4938330000000 1.0
C      1  0.5272160000000  0.5025830000000  0.4632840000000 1.0
C      1  0.4720270000000  0.5032950000000  0.4638190000000 1.0
C      1  0.5242980000000  0.5104940000000  0.4174690000000 1.0
C      1  0.4742590000000  0.5111390000000  0.4179540000000 1.0
C      1  0.4744990000000  0.5538670000000  0.4708920000000 1.0
C      1  0.5261850000000  0.5532010000000  0.4703910000000 1.0
C      1  0.4413990000000  0.4710990000000  0.5353550000000 1.0
C      1  0.5583840000000  0.4695910000000  0.5342210000000 1.0
C      1  0.5139980000000  0.4568030000000  0.5536220000000 1.0
C      1  0.4858090000000  0.4571660000000  0.5538960000000 1.0
C      1  0.5141250000000  0.4823490000000  0.4228940000000 1.0
C      1  0.4838070000000  0.4827400000000  0.4231880000000 1.0
C      1  0.5131870000000  0.4426690000000  0.4530980000000 1.0
C      1  0.4843070000000  0.4430420000000  0.4533770000000 1.0
C      1  0.5009450000000  0.5327470000000  0.5605220000000 1.0
END
