TITL C-862131-2149-251 13.7034294988862 125000 -474.49540151889 0 0 93 (C1) n - 1
REM
REM in /home/nfs/bkarasulu/CARBON/AIRSS/Generating-Clusters/TERSOFF/Higher-Symm/FIRE-HFTN
REM
REM
REM
REM
REM
REM ./C.cell (b20cbc046b6831c77cfcea5457e17084)
REM AIRSS Version 0.9.1 bugfix July 2018 build 013d7b7c2542+ Fri, 06 Jul 2018 19:26:36 +0100
REM compiler GCC version 9.2.1 20190827 (Red Hat 9.2.1-1)
REM options -cpp -mtune=generic -march=x86-64 -g -O0 -fpre-include=/usr/include/finclude/math-vector-fortran.h
REM seed 1667236542 -793106429 40463398 -1062476161 834411292 -2014740907 2025628276 234535779 -1347854668 128575605 1004817852 1316632917 -1337460398 -1672993322 -291696444 1661536265 1284434791 -1317700456 945524060 -82593272 -1671008277 -1836396776 -1926817461 401868406 -268664328 1026195786 1755901079 -213845511 1515394949 -813170495 1970315841 271899275 -1019771608
REM
CELL 1.54180   50.00000   50.00000   50.00000   90.00000   90.00000   90.00000
LATT -1
SFAC C  
C      1  0.4719400000000  0.4592670000000  0.5458560000000 1.0
C      1  0.5225600000000  0.5439000000000  0.5400090000000 1.0
C      1  0.5206190000000  0.4541120000000  0.5414660000000 1.0
C      1  0.4734830000000  0.5404760000000  0.5448770000000 1.0
C      1  0.4593560000000  0.4617290000000  0.4301000000000 1.0
C      1  0.5414990000000  0.5403700000000  0.4294360000000 1.0
C      1  0.5419510000000  0.4650560000000  0.4207920000000 1.0
C      1  0.4576270000000  0.5402830000000  0.4287720000000 1.0
C      1  0.4564980000000  0.5669950000000  0.4403290000000 1.0
C      1  0.5413110000000  0.4366760000000  0.4272980000000 1.0
C      1  0.5455500000000  0.5666980000000  0.4410760000000 1.0
C      1  0.4559620000000  0.4351070000000  0.4412630000000 1.0
C      1  0.5266770000000  0.5521880000000  0.4867510000000 1.0
C      1  0.4779900000000  0.4477210000000  0.4861590000000 1.0
C      1  0.4762080000000  0.5505630000000  0.4848770000000 1.0
C      1  0.5265440000000  0.4473360000000  0.4751010000000 1.0
C      1  0.5673000000000  0.5422380000000  0.5224840000000 1.0
C      1  0.4310480000000  0.4515710000000  0.5212640000000 1.0
C      1  0.4293920000000  0.5463360000000  0.5210370000000 1.0
C      1  0.5670620000000  0.4546910000000  0.5262730000000 1.0
C      1  0.5407430000000  0.4807210000000  0.4962200000000 1.0
C      1  0.4585480000000  0.5151400000000  0.4988050000000 1.0
C      1  0.4586070000000  0.4830170000000  0.4980050000000 1.0
C      1  0.5404840000000  0.5136250000000  0.4958200000000 1.0
C      1  0.4750160000000  0.4133280000000  0.5432790000000 1.0
C      1  0.5173790000000  0.5851980000000  0.5451220000000 1.0
C      1  0.5159880000000  0.4139390000000  0.5524790000000 1.0
C      1  0.4755550000000  0.5840840000000  0.5414770000000 1.0
C      1  0.5378170000000  0.5721420000000  0.4683490000000 1.0
C      1  0.4647380000000  0.4287910000000  0.4680680000000 1.0
C      1  0.4666860000000  0.5716880000000  0.4669450000000 1.0
C      1  0.5308180000000  0.4287460000000  0.4529220000000 1.0
C      1  0.4715920000000  0.5822360000000  0.5134250000000 1.0
C      1  0.5269430000000  0.4157740000000  0.5255680000000 1.0
C      1  0.5257530000000  0.5814470000000  0.5177130000000 1.0
C      1  0.4732520000000  0.4138300000000  0.5148390000000 1.0
C      1  0.5664330000000  0.4725130000000  0.5508700000000 1.0
C      1  0.4311160000000  0.5260700000000  0.5458850000000 1.0
C      1  0.4319770000000  0.4721660000000  0.5459710000000 1.0
C      1  0.5663160000000  0.5263170000000  0.5486250000000 1.0
C      1  0.4451520000000  0.5699090000000  0.5054890000000 1.0
C      1  0.5556680000000  0.4260440000000  0.5222420000000 1.0
C      1  0.5540790000000  0.5697150000000  0.5133170000000 1.0
C      1  0.4471220000000  0.4274630000000  0.5061710000000 1.0
C      1  0.4782020000000  0.5209900000000  0.5221590000000 1.0
C      1  0.5193720000000  0.4747570000000  0.5185780000000 1.0
C      1  0.5199140000000  0.5223990000000  0.5176440000000 1.0
C      1  0.4776590000000  0.4775110000000  0.5222110000000 1.0
C      1  0.4813260000000  0.5254790000000  0.4428910000000 1.0
C      1  0.5198160000000  0.4778420000000  0.4390300000000 1.0
C      1  0.5150010000000  0.5283070000000  0.4418700000000 1.0
C      1  0.4861740000000  0.4739110000000  0.4413520000000 1.0
C      1  0.5612400000000  0.4846740000000  0.4395750000000 1.0
C      1  0.4402560000000  0.5169720000000  0.4448250000000 1.0
C      1  0.4396840000000  0.4842050000000  0.4428760000000 1.0
C      1  0.5615640000000  0.5173760000000  0.4409790000000 1.0
C      1  0.5201680000000  0.4601710000000  0.5729660000000 1.0
C      1  0.4724720000000  0.5315510000000  0.5734850000000 1.0
C      1  0.4708590000000  0.4698060000000  0.5738250000000 1.0
C      1  0.5222910000000  0.5386440000000  0.5716940000000 1.0
C      1  0.5371900000000  0.4863410000000  0.4637620000000 1.0
C      1  0.4656490000000  0.5138080000000  0.4675330000000 1.0
C      1  0.4663710000000  0.4825980000000  0.4658560000000 1.0
C      1  0.5355050000000  0.5177910000000  0.4643290000000 1.0
C      1  0.5682450000000  0.5217890000000  0.5017620000000 1.0
C      1  0.4307080000000  0.4743150000000  0.5021260000000 1.0
C      1  0.4305450000000  0.5230930000000  0.5027350000000 1.0
C      1  0.5682040000000  0.4721580000000  0.5031620000000 1.0
C      1  0.5026270000000  0.5787500000000  0.4463950000000 1.0
C      1  0.4960600000000  0.4051700000000  0.4530760000000 1.0
C      1  0.4102540000000  0.4987890000000  0.5490360000000 1.0
C      1  0.5894230000000  0.4995840000000  0.5549020000000 1.0
C      1  0.4520880000000  0.4995950000000  0.5471230000000 1.0
C      1  0.5477610000000  0.4992950000000  0.5502070000000 1.0
C      1  0.5018390000000  0.5357320000000  0.4821550000000 1.0
C      1  0.5018880000000  0.4638190000000  0.4793990000000 1.0
C      1  0.4966140000000  0.4744920000000  0.5871250000000 1.0
C      1  0.4981570000000  0.5260470000000  0.5865760000000 1.0
C      1  0.5021190000000  0.5940930000000  0.4711380000000 1.0
C      1  0.5108250000000  0.4012970000000  0.4776370000000 1.0
C      1  0.4999820000000  0.5825820000000  0.4980390000000 1.0
C      1  0.5042530000000  0.4136650000000  0.5033080000000 1.0
C      1  0.4923520000000  0.4348840000000  0.5542620000000 1.0
C      1  0.4953070000000  0.5644620000000  0.5525060000000 1.0
C      1  0.4138240000000  0.4986540000000  0.5049990000000 1.0
C      1  0.5845790000000  0.4970780000000  0.5038680000000 1.0
C      1  0.4976450000000  0.5031440000000  0.3938020000000 1.0
C      1  0.5010270000000  0.4990900000000  0.5265790000000 1.0
C      1  0.4992450000000  0.5020460000000  0.4228350000000 1.0
C      1  0.5022170000000  0.4997190000000  0.4825290000000 1.0
C      1  0.5193670000000  0.4992620000000  0.5526830000000 1.0
C      1  0.5076460000000  0.4998740000000  0.5784920000000 1.0
C      1  0.4744300000000  0.4956090000000  0.3782440000000 1.0
END
