TITL C-862502-1143-1397 -0.0169754753537184 125000 -855.465448322346 0 0 155 (C1) n - 1
REM
REM in /home/nfs/bkarasulu/CARBON/AIRSS/Generating-Clusters/TERSOFF/Higher-Symm/FIRE-HFTN
REM
REM
REM
REM
REM
REM ./C.cell (b20cbc046b6831c77cfcea5457e17084)
REM AIRSS Version 0.9.1 bugfix July 2018 build 013d7b7c2542+ Fri, 06 Jul 2018 19:26:36 +0100
REM compiler GCC version 9.2.1 20190827 (Red Hat 9.2.1-1)
REM options -cpp -mtune=generic -march=x86-64 -g -O0 -fpre-include=/usr/include/finclude/math-vector-fortran.h
REM seed 1848490348 1082040997 -923654080 1808124592 1597963259 1162516521 -133250656 693421807 -1088684362 439958354 1264698313 -1225483042 -326188434 -869031917 1508776814 -2141511733 -799638327 -908753484 -105602164 1311821101 991594527 592826671 272305932 -1315955844 -1152543108 -1826264571 -1185557005 -46545966 742941486 -249464453 -1400130643 1432074462 -1077450393
REM
CELL 1.54180   50.00000   50.00000   50.00000   90.00000   90.00000   90.00000
LATT -1
SFAC C  
C      1  0.5799440000000  0.4350310000000  0.5327270000000 1.0
C      1  0.4353750000000  0.5313650000000  0.5752160000000 1.0
C      1  0.5321490000000  0.5784280000000  0.4338980000000 1.0
C      1  0.4177670000000  0.5607500000000  0.5267760000000 1.0
C      1  0.5814630000000  0.5628180000000  0.4636330000000 1.0
C      1  0.4187630000000  0.4355450000000  0.4706740000000 1.0
C      1  0.5650160000000  0.4648530000000  0.5820670000000 1.0
C      1  0.4337860000000  0.4655700000000  0.4218470000000 1.0
C      1  0.5605920000000  0.5270700000000  0.4177640000000 1.0
C      1  0.4652680000000  0.4192610000000  0.4355990000000 1.0
C      1  0.5298790000000  0.4192960000000  0.5593690000000 1.0
C      1  0.4643250000000  0.5810080000000  0.5630860000000 1.0
C      1  0.4824110000000  0.5525590000000  0.4984540000000 1.0
C      1  0.5543010000000  0.4972070000000  0.4825740000000 1.0
C      1  0.4975810000000  0.4825010000000  0.5523010000000 1.0
C      1  0.5224190000000  0.4417470000000  0.4893970000000 1.0
C      1  0.4828780000000  0.4500850000000  0.5003660000000 1.0
C      1  0.5233340000000  0.5577000000000  0.5059820000000 1.0
C      1  0.4343480000000  0.5130610000000  0.4848980000000 1.0
C      1  0.5589990000000  0.5056210000000  0.5233570000000 1.0
C      1  0.4392210000000  0.4844690000000  0.5151780000000 1.0
C      1  0.5064850000000  0.5229750000000  0.5583850000000 1.0
C      1  0.4897010000000  0.5192190000000  0.4427610000000 1.0
C      1  0.5099990000000  0.4833010000000  0.4358820000000 1.0
C      1  0.5947870000000  0.4851000000000  0.5813490000000 1.0
C      1  0.4830250000000  0.5800450000000  0.5938340000000 1.0
C      1  0.5811080000000  0.5930430000000  0.4832560000000 1.0
C      1  0.4087880000000  0.5127040000000  0.5768300000000 1.0
C      1  0.5851330000000  0.5021660000000  0.4198130000000 1.0
C      1  0.4062840000000  0.4827240000000  0.4195750000000 1.0
C      1  0.5061030000000  0.4204730000000  0.5820510000000 1.0
C      1  0.4824170000000  0.4178290000000  0.4071540000000 1.0
C      1  0.5093820000000  0.5778880000000  0.4078170000000 1.0
C      1  0.4221240000000  0.4127250000000  0.4937620000000 1.0
C      1  0.5801630000000  0.4074670000000  0.5115250000000 1.0
C      1  0.4211890000000  0.5827110000000  0.5020080000000 1.0
C      1  0.4884040000000  0.5364580000000  0.5785500000000 1.0
C      1  0.5378080000000  0.5784740000000  0.4884260000000 1.0
C      1  0.5800020000000  0.4889560000000  0.5380070000000 1.0
C      1  0.5124300000000  0.4655030000000  0.5743320000000 1.0
C      1  0.4867030000000  0.4646830000000  0.4198420000000 1.0
C      1  0.5073580000000  0.5333720000000  0.4222080000000 1.0
C      1  0.4672150000000  0.4253280000000  0.4875300000000 1.0
C      1  0.5360500000000  0.4210610000000  0.5071550000000 1.0
C      1  0.4650950000000  0.5743620000000  0.5110950000000 1.0
C      1  0.4212160000000  0.5074060000000  0.5309210000000 1.0
C      1  0.5759450000000  0.5097180000000  0.4643830000000 1.0
C      1  0.4182770000000  0.4884960000000  0.4659620000000 1.0
C      1  0.5938050000000  0.5289890000000  0.5343940000000 1.0
C      1  0.5272510000000  0.5337550000000  0.5942830000000 1.0
C      1  0.5341630000000  0.5934900000000  0.5284700000000 1.0
C      1  0.4054460000000  0.4686800000000  0.5347530000000 1.0
C      1  0.5923010000000  0.4655770000000  0.4695120000000 1.0
C      1  0.4027010000000  0.5269800000000  0.4599150000000 1.0
C      1  0.4680050000000  0.4638760000000  0.5891750000000 1.0
C      1  0.5253770000000  0.4606400000000  0.4040720000000 1.0
C      1  0.4634020000000  0.5362620000000  0.4098960000000 1.0
C      1  0.4635600000000  0.4053100000000  0.5306720000000 1.0
C      1  0.5356570000000  0.4096140000000  0.4654800000000 1.0
C      1  0.4690600000000  0.5912370000000  0.4660030000000 1.0
C      1  0.5115410000000  0.4819920000000  0.5209190000000 1.0
C      1  0.4815620000000  0.5192160000000  0.5122540000000 1.0
C      1  0.5208940000000  0.5106300000000  0.4823100000000 1.0
C      1  0.5023180000000  0.5315060000000  0.5311890000000 1.0
C      1  0.4983860000000  0.5272050000000  0.4690790000000 1.0
C      1  0.5038780000000  0.4715470000000  0.4639730000000 1.0
C      1  0.5282630000000  0.4682820000000  0.4982870000000 1.0
C      1  0.4801530000000  0.4813520000000  0.4824550000000 1.0
C      1  0.5326640000000  0.5305460000000  0.5022010000000 1.0
C      1  0.4613380000000  0.5081410000000  0.4716720000000 1.0
C      1  0.5317560000000  0.5015890000000  0.5325720000000 1.0
C      1  0.4665730000000  0.4915340000000  0.5254590000000 1.0
C      1  0.5234550000000  0.5899940000000  0.4646130000000 1.0
C      1  0.5913910000000  0.4651510000000  0.5238610000000 1.0
C      1  0.4644340000000  0.5211600000000  0.5872690000000 1.0
C      1  0.4782660000000  0.4098140000000  0.4651620000000 1.0
C      1  0.5207190000000  0.4102250000000  0.5305440000000 1.0
C      1  0.4762420000000  0.5915930000000  0.5327300000000 1.0
C      1  0.4099550000000  0.5309540000000  0.5159500000000 1.0
C      1  0.5921970000000  0.5323910000000  0.4752690000000 1.0
C      1  0.4086220000000  0.4647920000000  0.4805280000000 1.0
C      1  0.5339220000000  0.4762290000000  0.5924540000000 1.0
C      1  0.4624290000000  0.4778970000000  0.4104250000000 1.0
C      1  0.5297530000000  0.5174620000000  0.4105540000000 1.0
C      1  0.6008170000000  0.5046610000000  0.5551930000000 1.0
C      1  0.5021790000000  0.5540210000000  0.6004970000000 1.0
C      1  0.5552560000000  0.5992560000000  0.5038130000000 1.0
C      1  0.4006960000000  0.4951330000000  0.5519320000000 1.0
C      1  0.5914260000000  0.4890070000000  0.4486450000000 1.0
C      1  0.3980480000000  0.4998560000000  0.4444250000000 1.0
C      1  0.4938470000000  0.4480600000000  0.5893820000000 1.0
C      1  0.4989030000000  0.4436390000000  0.3992620000000 1.0
C      1  0.4915750000000  0.5515330000000  0.4029420000000 1.0
C      1  0.4503110000000  0.4083050000000  0.5043100000000 1.0
C      1  0.5546420000000  0.4010510000000  0.4920830000000 1.0
C      1  0.4497190000000  0.5890650000000  0.4901360000000 1.0
C      1  0.5573380000000  0.4425840000000  0.5142050000000 1.0
C      1  0.4427580000000  0.5133720000000  0.5521780000000 1.0
C      1  0.5149960000000  0.5552170000000  0.4426860000000 1.0
C      1  0.4456340000000  0.5529310000000  0.5187100000000 1.0
C      1  0.5594380000000  0.5571300000000  0.4839410000000 1.0
C      1  0.4456830000000  0.4450630000000  0.4810110000000 1.0
C      1  0.5588160000000  0.4846770000000  0.5597600000000 1.0
C      1  0.4395960000000  0.4841340000000  0.4450680000000 1.0
C      1  0.5540540000000  0.5153860000000  0.4447310000000 1.0
C      1  0.4837440000000  0.4432770000000  0.4404900000000 1.0
C      1  0.5190480000000  0.4464490000000  0.5517060000000 1.0
C      1  0.4847950000000  0.5589260000000  0.5576260000000 1.0
C      1  0.5633130000000  0.5310910000000  0.5055990000000 1.0
C      1  0.5315730000000  0.5056110000000  0.5628200000000 1.0
C      1  0.5061960000000  0.5623170000000  0.5315920000000 1.0
C      1  0.4490640000000  0.4721610000000  0.4892250000000 1.0
C      1  0.5582270000000  0.4714860000000  0.4989320000000 1.0
C      1  0.4510070000000  0.5265570000000  0.5083930000000 1.0
C      1  0.4682480000000  0.4925870000000  0.5556400000000 1.0
C      1  0.5281650000000  0.5042970000000  0.4505410000000 1.0
C      1  0.4610500000000  0.5077160000000  0.4405740000000 1.0
C      1  0.5021280000000  0.4502130000000  0.5256910000000 1.0
C      1  0.5068450000000  0.4404470000000  0.4629520000000 1.0
C      1  0.4986760000000  0.5569600000000  0.4720500000000 1.0
C      1  0.5699340000000  0.5481110000000  0.5432610000000 1.0
C      1  0.5478700000000  0.5431150000000  0.5719250000000 1.0
C      1  0.5428920000000  0.5716620000000  0.5495770000000 1.0
C      1  0.4315190000000  0.4528300000000  0.5416070000000 1.0
C      1  0.5783100000000  0.4399510000000  0.4644660000000 1.0
C      1  0.4197610000000  0.5491990000000  0.4472710000000 1.0
C      1  0.4446240000000  0.4517720000000  0.5750170000000 1.0
C      1  0.5475850000000  0.4494500000000  0.4224320000000 1.0
C      1  0.4491670000000  0.5518530000000  0.4356470000000 1.0
C      1  0.4498880000000  0.4232460000000  0.5529340000000 1.0
C      1  0.5509550000000  0.4362270000000  0.4513930000000 1.0
C      1  0.4626760000000  0.5787550000000  0.4400060000000 1.0
C      1  0.3937760000000  0.4717550000000  0.5057740000000 1.0
C      1  0.4677950000000  0.5051530000000  0.3976200000000 1.0
C      1  0.5049910000000  0.3969160000000  0.4713930000000 1.0
C      1  0.6050530000000  0.5250160000000  0.5034710000000 1.0
C      1  0.3936360000000  0.5241910000000  0.4910650000000 1.0
C      1  0.6044880000000  0.4723040000000  0.4972270000000 1.0
C      1  0.5210230000000  0.4921600000000  0.3955820000000 1.0
C      1  0.4704610000000  0.4938180000000  0.6010030000000 1.0
C      1  0.5233150000000  0.5033800000000  0.6050090000000 1.0
C      1  0.4969820000000  0.6034560000000  0.4719130000000 1.0
C      1  0.5038400000000  0.6046920000000  0.5244390000000 1.0
C      1  0.4949020000000  0.3953300000000  0.5246950000000 1.0
C      1  0.4959420000000  0.4980800000000  0.6171410000000 1.0
C      1  0.5005680000000  0.3818610000000  0.4976900000000 1.0
C      1  0.3793160000000  0.4980170000000  0.4989710000000 1.0
C      1  0.4942010000000  0.4997940000000  0.3822910000000 1.0
C      1  0.4996910000000  0.6181560000000  0.4977990000000 1.0
C      1  0.6188520000000  0.4984130000000  0.4995390000000 1.0
C      1  0.4356100000000  0.4363220000000  0.4387670000000 1.0
C      1  0.5616490000000  0.5592060000000  0.4342050000000 1.0
C      1  0.4350200000000  0.5607480000000  0.5585870000000 1.0
C      1  0.5620110000000  0.4354690000000  0.5614740000000 1.0
C      1  0.4985990000000  0.4979700000000  0.4991740000000 1.0
END
