TITL C-862127-1500-904 -0.00131010527868851 125000 -689.902206019748 0 0 130 (C5) n - 1
REM
REM in /home/nfs/bkarasulu/CARBON/AIRSS/Generating-Clusters/TERSOFF/Higher-Symm/FIRE-HFTN
REM
REM
REM
REM
REM
REM ./C.cell (b20cbc046b6831c77cfcea5457e17084)
REM AIRSS Version 0.9.1 bugfix July 2018 build 013d7b7c2542+ Fri, 06 Jul 2018 19:26:36 +0100
REM compiler GCC version 9.2.1 20190827 (Red Hat 9.2.1-1)
REM options -cpp -mtune=generic -march=x86-64 -g -O0 -fpre-include=/usr/include/finclude/math-vector-fortran.h
REM seed -826481519 195577191 -775700554 -416979332 898172900 -2021007422 735333167 -398337235 1316417730 -1315491915 -1537622980 -1359270608 2069011306 -1978290810 526337888 1093739188 139987451 -1692680888 -180775939 -2106871050 -1151472831 -1638519509 -161216121 1773044363 1340273032 1556414329 -1883312157 402549157 -1486209064 835826906 778052641 -2093705332 -1004638648
REM
CELL 1.54180   50.00000   50.00000   50.00000   90.00000   90.00000   90.00000
LATT -1
SFAC C  
C      1  0.4456400000000  0.5568920000000  0.4475520000000 1.0
C      1  0.5330830000000  0.5568920000000  0.4320940000000 1.0
C      1  0.5748060000000  0.5568920000000  0.5104800000000 1.0
C      1  0.5131500000000  0.5568920000000  0.5743830000000 1.0
C      1  0.4333210000000  0.5568920000000  0.5354920000000 1.0
C      1  0.5512200000000  0.5336680000000  0.4846890000000 1.0
C      1  0.5303900000000  0.5336680000000  0.5439820000000 1.0
C      1  0.4675620000000  0.5336680000000  0.5424940000000 1.0
C      1  0.4495620000000  0.5336680000000  0.4822810000000 1.0
C      1  0.5012660000000  0.5336680000000  0.4465550000000 1.0
C      1  0.5848140000000  0.5122160000000  0.5326740000000 1.0
C      1  0.4951340000000  0.5122150000000  0.5907590000000 1.0
C      1  0.4121790000000  0.5122160000000  0.5234180000000 1.0
C      1  0.4505900000000  0.5122160000000  0.4237140000000 1.0
C      1  0.5572840000000  0.5122160000000  0.4294340000000 1.0
C      1  0.4394740000000  0.5008820000000  0.5136270000000 1.0
C      1  0.4683370000000  0.5008820000000  0.4466470000000 1.0
C      1  0.5409570000000  0.5008820000000  0.4534000000000 1.0
C      1  0.5569760000000  0.5008810000000  0.5245520000000 1.0
C      1  0.4942560000000  0.5008810000000  0.5617750000000 1.0
C      1  0.4796330000000  0.4859400000000  0.4058620000000 1.0
C      1  0.5832370000000  0.4859390000000  0.4515400000000 1.0
C      1  0.5718100000000  0.4859390000000  0.5641880000000 1.0
C      1  0.4611440000000  0.4859390000000  0.5881300000000 1.0
C      1  0.4041760000000  0.4859390000000  0.4902800000000 1.0
C      1  0.5652960000000  0.5732260000000  0.4848140000000 1.0
C      1  0.5346210000000  0.5732260000000  0.5574080000000 1.0
C      1  0.4561010000000  0.5732260000000  0.5506660000000 1.0
C      1  0.4382480000000  0.5732260000000  0.4739060000000 1.0
C      1  0.5057340000000  0.5732260000000  0.4332070000000 1.0
C      1  0.4756180000000  0.4093770000000  0.5180120000000 1.0
C      1  0.4753350000000  0.4093770000000  0.4823770000000 1.0
C      1  0.5091380000000  0.4093770000000  0.4710960000000 1.0
C      1  0.5303120000000  0.4093770000000  0.4997590000000 1.0
C      1  0.5095960000000  0.4093770000000  0.5287540000000 1.0
C      1  0.4713550000000  0.5781180000000  0.5033780000000 1.0
C      1  0.4879360000000  0.5781180000000  0.4738010000000 1.0
C      1  0.5211890000000  0.5781180000000  0.4804310000000 1.0
C      1  0.5251600000000  0.5781180000000  0.5141040000000 1.0
C      1  0.4943610000000  0.5781180000000  0.5282870000000 1.0
C      1  0.5329280000000  0.5294480000000  0.4192920000000 1.0
C      1  0.5869330000000  0.5294470000000  0.5063770000000 1.0
C      1  0.5207990000000  0.5294470000000  0.5846490000000 1.0
C      1  0.4259210000000  0.5294480000000  0.5459390000000 1.0
C      1  0.4334180000000  0.5294480000000  0.4437430000000 1.0
C      1  0.5743040000000  0.5297540000000  0.4498490000000 1.0
C      1  0.5706570000000  0.5297540000000  0.5551690000000 1.0
C      1  0.4693650000000  0.5297540000000  0.5842480000000 1.0
C      1  0.4104090000000  0.5297540000000  0.4968980000000 1.0
C      1  0.4752650000000  0.5297540000000  0.4138360000000 1.0
C      1  0.5644680000000  0.4379490000000  0.4648580000000 1.0
C      1  0.5533440000000  0.4379490000000  0.5504530000000 1.0
C      1  0.4685000000000  0.4379490000000  0.5663240000000 1.0
C      1  0.4271880000000  0.4379490000000  0.4905370000000 1.0
C      1  0.4864990000000  0.4379490000000  0.4278270000000 1.0
C      1  0.5060440000000  0.4993620000000  0.4773780000000 1.0
C      1  0.5233830000000  0.4993620000000  0.4987580000000 1.0
C      1  0.5084070000000  0.4993620000000  0.5218540000000 1.0
C      1  0.4818130000000  0.4993620000000  0.5147490000000 1.0
C      1  0.4803530000000  0.4993620000000  0.4872610000000 1.0
C      1  0.5514480000000  0.4845720000000  0.4161820000000 1.0
C      1  0.5956140000000  0.4845710000000  0.5230290000000 1.0
C      1  0.5076450000000  0.4845710000000  0.5980500000000 1.0
C      1  0.4091110000000  0.4845710000000  0.5375700000000 1.0
C      1  0.4361830000000  0.4845720000000  0.4251690000000 1.0
C      1  0.5079800000000  0.4631870000000  0.4275830000000 1.0
C      1  0.5713380000000  0.4631870000000  0.4852110000000 1.0
C      1  0.5361090000000  0.4631870000000  0.5632770000000 1.0
C      1  0.4509780000000  0.4631870000000  0.5538960000000 1.0
C      1  0.4335930000000  0.4631870000000  0.4700320000000 1.0
C      1  0.5627340000000  0.4613920000000  0.4364270000000 1.0
C      1  0.5798480000000  0.4613920000000  0.5400180000000 1.0
C      1  0.4866140000000  0.4613920000000  0.5883060000000 1.0
C      1  0.4118790000000  0.4613920000000  0.5145580000000 1.0
C      1  0.4589240000000  0.4613920000000  0.4206910000000 1.0
C      1  0.4850000000000  0.5487790000000  0.4656310000000 1.0
C      1  0.5280520000000  0.5487790000000  0.4751130000000 1.0
C      1  0.5323370000000  0.5487790000000  0.5189880000000 1.0
C      1  0.4919340000000  0.5487790000000  0.5366220000000 1.0
C      1  0.4626780000000  0.5487790000000  0.5036460000000 1.0
C      1  0.5174350000000  0.5085920000000  0.5460360000000 1.0
C      1  0.4616050000000  0.5085920000000  0.5308080000000 1.0
C      1  0.4588350000000  0.5085920000000  0.4730040000000 1.0
C      1  0.5129540000000  0.5085920000000  0.4525080000000 1.0
C      1  0.5491710000000  0.5085920000000  0.4976440000000 1.0
C      1  0.5637230000000  0.5591600000000  0.5448390000000 1.0
C      1  0.4770470000000  0.5591600000000  0.5744600000000 1.0
C      1  0.4220920000000  0.5591610000000  0.5011800000000 1.0
C      1  0.4748030000000  0.5591610000000  0.4262700000000 1.0
C      1  0.5623360000000  0.5591610000000  0.4532520000000 1.0
C      1  0.5915080000000  0.4839380000000  0.4926280000000 1.0
C      1  0.5352880000000  0.4839380000000  0.5847510000000 1.0
C      1  0.4303020000000  0.4839380000000  0.5597510000000 1.0
C      1  0.4216360000000  0.4839390000000  0.4521770000000 1.0
C      1  0.5212660000000  0.4839390000000  0.4106930000000 1.0
C      1  0.4616100000000  0.4123920000000  0.5469310000000 1.0
C      1  0.4435030000000  0.4123920000000  0.4779910000000 1.0
C      1  0.5034720000000  0.4123920000000  0.4394670000000 1.0
C      1  0.5586430000000  0.4123920000000  0.4845960000000 1.0
C      1  0.5327710000000  0.4123920000000  0.5510130000000 1.0
C      1  0.5409040000000  0.4758420000000  0.5341980000000 1.0
C      1  0.4801160000000  0.4758420000000  0.5494700000000 1.0
C      1  0.4468070000000  0.4758430000000  0.4963760000000 1.0
C      1  0.4870090000000  0.4758430000000  0.4482900000000 1.0
C      1  0.5451640000000  0.4758430000000  0.4716650000000 1.0
C      1  0.5663890000000  0.4500050000000  0.5123300000000 1.0
C      1  0.5087890000000  0.4500050000000  0.5669500000000 1.0
C      1  0.4390420000000  0.4500050000000  0.5290470000000 1.0
C      1  0.4535370000000  0.4500050000000  0.4510020000000 1.0
C      1  0.5322420000000  0.4500050000000  0.4406700000000 1.0
C      1  0.5500770000000  0.5127610000000  0.5755150000000 1.0
C      1  0.4436560000000  0.5127620000000  0.5709620000000 1.0
C      1  0.4151000000000  0.5127620000000  0.4683420000000 1.0
C      1  0.5038730000000  0.5127620000000  0.4094730000000 1.0
C      1  0.5872930000000  0.5127620000000  0.4757090000000 1.0
C      1  0.4576820000000  0.4358260000000  0.5098010000000 1.0
C      1  0.4776020000000  0.4358260000000  0.4627810000000 1.0
C      1  0.5284750000000  0.4358260000000  0.4671970000000 1.0
C      1  0.5399970000000  0.4358260000000  0.5169450000000 1.0
C      1  0.4962440000000  0.4358260000000  0.5432760000000 1.0
C      1  0.5219810000000  0.4603970000000  0.5143080000000 1.0
C      1  0.4931850000000  0.4603970000000  0.5253270000000 1.0
C      1  0.4738070000000  0.4603970000000  0.5013450000000 1.0
C      1  0.4906270000000  0.4603970000000  0.4755040000000 1.0
C      1  0.5204000000000  0.4603970000000  0.4835160000000 1.0
C      1  0.4671610000000  0.5963250000000  0.5343640000000 1.0
C      1  0.4571710000000  0.5963250000000  0.4793870000000 1.0
C      1  0.5063690000000  0.5963250000000  0.4528970000000 1.0
C      1  0.5467660000000  0.5963250000000  0.4915020000000 1.0
C      1  0.5225340000000  0.5963250000000  0.5418510000000 1.0
END
