TITL C-862128-1543-131 9.96617620864409e-08 125000 -189.828189161136 0 0 37 (C3h) n - 1
REM
REM in /home/nfs/bkarasulu/CARBON/AIRSS/Generating-Clusters/TERSOFF/Higher-Symm/FIRE-HFTN
REM
REM
REM
REM
REM
REM ./C.cell (b20cbc046b6831c77cfcea5457e17084)
REM AIRSS Version 0.9.1 bugfix July 2018 build 013d7b7c2542+ Fri, 06 Jul 2018 19:26:36 +0100
REM compiler GCC version 9.2.1 20190827 (Red Hat 9.2.1-1)
REM options -cpp -mtune=generic -march=x86-64 -g -O0 -fpre-include=/usr/include/finclude/math-vector-fortran.h
REM seed 903694978 132210624 245231279 -1201942528 698454544 -1284802252 -353604484 1900007216 466366594 -1678399496 382728897 -40854019 -450910383 -535643505 -799075574 725332444 235437699 868136233 359098255 1945314254 680761486 -1063432168 1021654678 -909070961 1541701503 1968666063 889875026 1826629188 1416543646 1758538433 -232423428 961930057 1375101407
REM
CELL 1.54180   50.00000   50.00000   50.00000   90.00000   90.00000   90.00000
LATT -1
SFAC C  
C      1  0.5455990000000  0.4701100000000  0.5073770000000 1.0
C      1  0.4814260000000  0.4701100000000  0.4569330000000 1.0
C      1  0.4698270000000  0.4701100000000  0.5377310000000 1.0
C      1  0.5455990000000  0.5311730000000  0.5073770000000 1.0
C      1  0.4814260000000  0.5311730000000  0.4569330000000 1.0
C      1  0.4698270000000  0.5311730000000  0.5377310000000 1.0
C      1  0.5184940000000  0.4762490000000  0.5199370000000 1.0
C      1  0.5058560000000  0.4762490000000  0.4741270000000 1.0
C      1  0.4725020000000  0.4762490000000  0.5079770000000 1.0
C      1  0.5184940000000  0.5250340000000  0.5199370000000 1.0
C      1  0.5058560000000  0.5250340000000  0.4741270000000 1.0
C      1  0.4725020000000  0.5250340000000  0.5079770000000 1.0
C      1  0.4786080000000  0.4460770000000  0.4965650000000 1.0
C      1  0.5055580000000  0.4460770000000  0.5203550000000 1.0
C      1  0.5126860000000  0.4460770000000  0.4851210000000 1.0
C      1  0.4786080000000  0.5552060000000  0.4965650000000 1.0
C      1  0.5055580000000  0.5552060000000  0.5203550000000 1.0
C      1  0.5126860000000  0.5552060000000  0.4851210000000 1.0
C      1  0.4550000000000  0.4863250000000  0.5563050000000 1.0
C      1  0.5690990000000  0.4863250000000  0.5109300000000 1.0
C      1  0.4727530000000  0.4863250000000  0.4348060000000 1.0
C      1  0.4550000000000  0.5149580000000  0.5563050000000 1.0
C      1  0.5690990000000  0.5149580000000  0.5109300000000 1.0
C      1  0.4727530000000  0.5149580000000  0.4348060000000 1.0
C      1  0.4471400000000  0.4864800000000  0.4964930000000 1.0
C      1  0.5212300000000  0.4864800000000  0.5476430000000 1.0
C      1  0.5284820000000  0.4864800000000  0.4579040000000 1.0
C      1  0.4471400000000  0.5148020000000  0.4964930000000 1.0
C      1  0.5212300000000  0.5148020000000  0.5476430000000 1.0
C      1  0.5284820000000  0.5148020000000  0.4579040000000 1.0
C      1  0.5433900000000  0.4484190000000  0.4880280000000 1.0
C      1  0.4657740000000  0.4484190000000  0.4685210000000 1.0
C      1  0.4876880000000  0.4484190000000  0.5454920000000 1.0
C      1  0.5433900000000  0.5528640000000  0.4880280000000 1.0
C      1  0.4657740000000  0.5528640000000  0.4685210000000 1.0
C      1  0.4876880000000  0.5528640000000  0.5454920000000 1.0
C      1  0.4989510000000  0.5006410000000  0.5006800000000 1.0
END
