TITL C-862134-6730-672 -6.42388152786604e-06 125000 -290.504688946469 0 0 61 (C5) n - 1
REM
REM in /home/nfs/bkarasulu/CARBON/AIRSS/Generating-Clusters/TERSOFF/Higher-Symm/FIRE-HFTN
REM
REM
REM
REM
REM
REM ./C.cell (b20cbc046b6831c77cfcea5457e17084)
REM AIRSS Version 0.9.1 bugfix July 2018 build 013d7b7c2542+ Fri, 06 Jul 2018 19:26:36 +0100
REM compiler GCC version 9.2.1 20190827 (Red Hat 9.2.1-1)
REM options -cpp -mtune=generic -march=x86-64 -g -O0 -fpre-include=/usr/include/finclude/math-vector-fortran.h
REM seed 2097609186 1633295645 -1662095955 -499906313 -1830806204 -1300750443 1347447554 1588049707 1805628963 1040144836 631233785 1510999481 -57859950 1995501063 2026021314 -2087560719 1084630505 -381974748 -242400904 2053470079 1985294271 -1798670116 528242485 -1025273405 -1337385070 382637586 980921131 1181225249 -2146056702 2080027828 946060996 849439618 -723211850
REM
CELL 1.54180   50.00000   50.00000   50.00000   90.00000   90.00000   90.00000
LATT -1
SFAC C  
C      1  0.4418760000000  0.4885240000000  0.5475400000000 1.0
C      1  0.4362270000000  0.4885260000000  0.4596830000000 1.0
C      1  0.5180390000000  0.4885260000000  0.4271610000000 1.0
C      1  0.5742500000000  0.4885250000000  0.4949180000000 1.0
C      1  0.5271790000000  0.4885230000000  0.5693170000000 1.0
C      1  0.4447720000000  0.5175890000000  0.5460280000000 1.0
C      1  0.4385610000000  0.5175900000000  0.4619710000000 1.0
C      1  0.5165850000000  0.5175910000000  0.4300870000000 1.0
C      1  0.5710180000000  0.5175890000000  0.4944400000000 1.0
C      1  0.5266360000000  0.5175880000000  0.5660960000000 1.0
C      1  0.5214820000000  0.4697200000000  0.5450930000000 1.0
C      1  0.4631540000000  0.4697200000000  0.5346370000000 1.0
C      1  0.4550740000000  0.4697220000000  0.4759320000000 1.0
C      1  0.5084090000000  0.4697220000000  0.4501070000000 1.0
C      1  0.5494520000000  0.4697210000000  0.4928510000000 1.0
C      1  0.5175160000000  0.5280330000000  0.5388410000000 1.0
C      1  0.4678750000000  0.5280330000000  0.5289330000000 1.0
C      1  0.4619580000000  0.5280340000000  0.4786600000000 1.0
C      1  0.5079430000000  0.5280340000000  0.4574980000000 1.0
C      1  0.5422790000000  0.5280330000000  0.4946920000000 1.0
C      1  0.4920150000000  0.5494280000000  0.5643840000000 1.0
C      1  0.4357030000000  0.5494290000000  0.5125740000000 1.0
C      1  0.4675760000000  0.5494310000000  0.4430070000000 1.0
C      1  0.5435870000000  0.5494300000000  0.4518230000000 1.0
C      1  0.5586910000000  0.5494290000000  0.5268380000000 1.0
C      1  0.4811040000000  0.4566110000000  0.5608380000000 1.0
C      1  0.4357020000000  0.4566120000000  0.5011000000000 1.0
C      1  0.4784860000000  0.4566130000000  0.4394600000000 1.0
C      1  0.5503300000000  0.4566130000000  0.4611020000000 1.0
C      1  0.5519490000000  0.4566110000000  0.5361180000000 1.0
C      1  0.4682010000000  0.5149600000000  0.4323630000000 1.0
C      1  0.5539030000000  0.5149590000000  0.4491280000000 1.0
C      1  0.5644410000000  0.5149580000000  0.5358160000000 1.0
C      1  0.4852530000000  0.5149570000000  0.5726270000000 1.0
C      1  0.4257730000000  0.5149590000000  0.5086890000000 1.0
C      1  0.4620690000000  0.4818250000000  0.4272730000000 1.0
C      1  0.5568480000000  0.4818240000000  0.4417230000000 1.0
C      1  0.5723940000000  0.4818220000000  0.5363280000000 1.0
C      1  0.4872230000000  0.4818220000000  0.5803480000000 1.0
C      1  0.4190380000000  0.4818230000000  0.5129480000000 1.0
C      1  0.4908220000000  0.5140090000000  0.5419690000000 1.0
C      1  0.4566510000000  0.5140090000000  0.5045120000000 1.0
C      1  0.4817160000000  0.5140100000000  0.4604380000000 1.0
C      1  0.5313780000000  0.5140100000000  0.4706570000000 1.0
C      1  0.5370060000000  0.5140090000000  0.5210460000000 1.0
C      1  0.4928920000000  0.4867430000000  0.5345170000000 1.0
C      1  0.4643780000000  0.4867430000000  0.5041780000000 1.0
C      1  0.4844210000000  0.4867440000000  0.4676830000000 1.0
C      1  0.5253230000000  0.4867440000000  0.4754680000000 1.0
C      1  0.5305580000000  0.4867430000000  0.5167740000000 1.0
C      1  0.5292460000000  0.5568690000000  0.5073640000000 1.0
C      1  0.5014370000000  0.5568690000000  0.5303620000000 1.0
C      1  0.4709710000000  0.5568690000000  0.5110210000000 1.0
C      1  0.4799510000000  0.5568700000000  0.4760700000000 1.0
C      1  0.5159660000000  0.5568700000000  0.4738090000000 1.0
C      1  0.5284380000000  0.4453860000000  0.5104770000000 1.0
C      1  0.4982250000000  0.4453860000000  0.5305550000000 1.0
C      1  0.4697930000000  0.4453860000000  0.5080250000000 1.0
C      1  0.4824350000000  0.4453870000000  0.4740220000000 1.0
C      1  0.5186790000000  0.4453870000000  0.4755380000000 1.0
C      1  0.4995140000000  0.4836980000000  0.4997240000000 1.0
END
