TITL C-862500-986-841 0.0135834010807275 125000 -870.403571167662 0 0 167 (D2) n - 1
REM
REM in /home/nfs/bkarasulu/CARBON/AIRSS/Generating-Clusters/TERSOFF/Higher-Symm/FIRE-HFTN
REM
REM
REM
REM
REM
REM ./C.cell (b20cbc046b6831c77cfcea5457e17084)
REM AIRSS Version 0.9.1 bugfix July 2018 build 013d7b7c2542+ Fri, 06 Jul 2018 19:26:36 +0100
REM compiler GCC version 9.2.1 20190827 (Red Hat 9.2.1-1)
REM options -cpp -mtune=generic -march=x86-64 -g -O0 -fpre-include=/usr/include/finclude/math-vector-fortran.h
REM seed -1627037456 386773295 -1541501246 -1924902347 146297273 640481257 475848613 292938231 -2078796614 272038113 31258474 -2095733131 1842044717 1801415926 -198824601 -415711592 442890049 -159176026 -1100463949 -1245564231 1825104597 1182815579 1509656699 -1917637675 -799146291 -1357039435 1303445167 811469349 -1116871179 -662969263 -1691421579 -755143311 598870915
REM
CELL 1.54180   50.00000   50.00000   50.00000   90.00000   90.00000   90.00000
LATT -1
SFAC C  
C      1  0.4511700000000  0.5971050000000  0.4726580000000 1.0
C      1  0.5489320000000  0.5971050000000  0.5272810000000 1.0
C      1  0.5489320000000  0.4039270000000  0.4726580000000 1.0
C      1  0.4511700000000  0.4039270000000  0.5272810000000 1.0
C      1  0.4725810000000  0.5971280000000  0.4510640000000 1.0
C      1  0.5275210000000  0.5971280000000  0.5488750000000 1.0
C      1  0.4725810000000  0.4039040000000  0.5488750000000 1.0
C      1  0.5275210000000  0.4039040000000  0.4510640000000 1.0
C      1  0.6090590000000  0.5208430000000  0.4885920000000 1.0
C      1  0.3910440000000  0.5208430000000  0.5113470000000 1.0
C      1  0.3910440000000  0.4801890000000  0.4885920000000 1.0
C      1  0.6090590000000  0.4801890000000  0.5113470000000 1.0
C      1  0.4886950000000  0.5209570000000  0.6089570000000 1.0
C      1  0.5114080000000  0.5209570000000  0.3909820000000 1.0
C      1  0.4886950000000  0.4800750000000  0.3909820000000 1.0
C      1  0.5114070000000  0.4800750000000  0.6089570000000 1.0
C      1  0.6113760000000  0.4887240000000  0.5430190000000 1.0
C      1  0.3887260000000  0.4887240000000  0.4569200000000 1.0
C      1  0.3887260000000  0.5123080000000  0.5430190000000 1.0
C      1  0.6113760000000  0.5123080000000  0.4569200000000 1.0
C      1  0.5431020000000  0.4883210000000  0.6112940000000 1.0
C      1  0.4570000000000  0.4883210000000  0.3886450000000 1.0
C      1  0.5431020000000  0.5127110000000  0.3886450000000 1.0
C      1  0.4570000000000  0.5127110000000  0.6112940000000 1.0
C      1  0.4420400000000  0.5006830000000  0.4160120000000 1.0
C      1  0.5580620000000  0.5006830000000  0.5839260000000 1.0
C      1  0.5580620000000  0.5003490000000  0.4160120000000 1.0
C      1  0.4420400000000  0.5003490000000  0.5839260000000 1.0
C      1  0.4161010000000  0.5009600000000  0.4419930000000 1.0
C      1  0.5840010000000  0.5009600000000  0.5579450000000 1.0
C      1  0.4161010000000  0.5000720000000  0.5579450000000 1.0
C      1  0.5840010000000  0.5000720000000  0.4419930000000 1.0
C      1  0.4701240000000  0.4235340000000  0.5753360000000 1.0
C      1  0.5299780000000  0.4235340000000  0.4246030000000 1.0
C      1  0.5299780000000  0.5774980000000  0.5753360000000 1.0
C      1  0.4701240000000  0.5774980000000  0.4246030000000 1.0
C      1  0.5754270000000  0.4234950000000  0.4703230000000 1.0
C      1  0.4246750000000  0.4234940000000  0.5296160000000 1.0
C      1  0.5754270000000  0.5775380000000  0.5296160000000 1.0
C      1  0.4246750000000  0.5775380000000  0.4703230000000 1.0
C      1  0.4032630000000  0.5320710000000  0.4836250000000 1.0
C      1  0.5968400000000  0.5320710000000  0.5163140000000 1.0
C      1  0.5968400000000  0.4689620000000  0.4836250000000 1.0
C      1  0.4032630000000  0.4689620000000  0.5163140000000 1.0
C      1  0.4836840000000  0.5321060000000  0.4031650000000 1.0
C      1  0.5164190000000  0.5321060000000  0.5967730000000 1.0
C      1  0.4836840000000  0.4689260000000  0.5967730000000 1.0
C      1  0.5164190000000  0.4689260000000  0.4031650000000 1.0
C      1  0.4423700000000  0.5662850000000  0.4204310000000 1.0
C      1  0.5577320000000  0.5662850000000  0.5795070000000 1.0
C      1  0.5577320000000  0.4347470000000  0.4204310000000 1.0
C      1  0.4423700000000  0.4347470000000  0.5795070000000 1.0
C      1  0.4200990000000  0.5668460000000  0.4424400000000 1.0
C      1  0.5800030000000  0.5668460000000  0.5574990000000 1.0
C      1  0.4200990000000  0.4341870000000  0.5574990000000 1.0
C      1  0.5800030000000  0.4341870000000  0.4424400000000 1.0
C      1  0.5887180000000  0.5349300000000  0.5663560000000 1.0
C      1  0.4113840000000  0.5349300000000  0.4335830000000 1.0
C      1  0.4113840000000  0.4661020000000  0.5663560000000 1.0
C      1  0.5887180000000  0.4661020000000  0.4335830000000 1.0
C      1  0.5653950000000  0.5350210000000  0.5897130000000 1.0
C      1  0.4347070000000  0.5350210000000  0.4102260000000 1.0
C      1  0.5653960000000  0.4660110000000  0.4102260000000 1.0
C      1  0.4347070000000  0.4660110000000  0.5897130000000 1.0
C      1  0.4985370000000  0.3941500000000  0.5353590000000 1.0
C      1  0.5015650000000  0.3941500000000  0.4645790000000 1.0
C      1  0.5015650000000  0.6068820000000  0.5353590000000 1.0
C      1  0.4985370000000  0.6068820000000  0.4645790000000 1.0
C      1  0.5353900000000  0.3940950000000  0.4985430000000 1.0
C      1  0.4647120000000  0.3940950000000  0.5013950000000 1.0
C      1  0.5353900000000  0.6069370000000  0.5013950000000 1.0
C      1  0.4647120000000  0.6069370000000  0.4985430000000 1.0
C      1  0.5291920000000  0.4868060000000  0.4249840000000 1.0
C      1  0.4709100000000  0.4868060000000  0.5749540000000 1.0
C      1  0.4709100000000  0.5142260000000  0.4249840000000 1.0
C      1  0.5291920000000  0.5142260000000  0.5749540000000 1.0
C      1  0.4250850000000  0.4867960000000  0.5291270000000 1.0
C      1  0.5750170000000  0.4867960000000  0.4708120000000 1.0
C      1  0.4250850000000  0.5142370000000  0.4708120000000 1.0
C      1  0.5750170000000  0.5142370000000  0.5291270000000 1.0
C      1  0.5461250000000  0.4016020000000  0.5243450000000 1.0
C      1  0.4539780000000  0.4016020000000  0.4755940000000 1.0
C      1  0.4539780000000  0.5994300000000  0.5243450000000 1.0
C      1  0.5461250000000  0.5994300000000  0.4755940000000 1.0
C      1  0.5243440000000  0.4016410000000  0.5461120000000 1.0
C      1  0.4757590000000  0.4016410000000  0.4538260000000 1.0
C      1  0.5243440000000  0.5993910000000  0.4538260000000 1.0
C      1  0.4757590000000  0.5993910000000  0.5461120000000 1.0
C      1  0.4666310000000  0.4475820000000  0.4884760000000 1.0
C      1  0.5334710000000  0.4475820000000  0.5114620000000 1.0
C      1  0.5334710000000  0.5534500000000  0.4884760000000 1.0
C      1  0.4666310000000  0.5534500000000  0.5114620000000 1.0
C      1  0.4883870000000  0.4476840000000  0.4665690000000 1.0
C      1  0.5117160000000  0.4476840000000  0.5333700000000 1.0
C      1  0.4883870000000  0.5533480000000  0.5333700000000 1.0
C      1  0.5117160000000  0.5533480000000  0.4665690000000 1.0
C      1  0.5769710000000  0.5352710000000  0.4477230000000 1.0
C      1  0.4231310000000  0.5352710000000  0.5522160000000 1.0
C      1  0.4231310000000  0.4657610000000  0.4477230000000 1.0
C      1  0.5769710000000  0.4657610000000  0.5522160000000 1.0
C      1  0.4480260000000  0.5356260000000  0.5772600000000 1.0
C      1  0.5520770000000  0.5356260000000  0.4226790000000 1.0
C      1  0.4480260000000  0.4654060000000  0.4226790000000 1.0
C      1  0.5520770000000  0.4654060000000  0.5772600000000 1.0
C      1  0.5260340000000  0.5247670000000  0.5479780000000 1.0
C      1  0.4740680000000  0.5247670000000  0.4519610000000 1.0
C      1  0.4740680000000  0.4762660000000  0.5479780000000 1.0
C      1  0.5260340000000  0.4762660000000  0.4519610000000 1.0
C      1  0.5480340000000  0.5247470000000  0.5259760000000 1.0
C      1  0.4520680000000  0.5247470000000  0.4739620000000 1.0
C      1  0.5480340000000  0.4762850000000  0.4739620000000 1.0
C      1  0.4520680000000  0.4762850000000  0.5259760000000 1.0
C      1  0.4834930000000  0.5133450000000  0.5787540000000 1.0
C      1  0.5166090000000  0.5133450000000  0.4211850000000 1.0
C      1  0.5166090000000  0.4876870000000  0.5787540000000 1.0
C      1  0.4834930000000  0.4876870000000  0.4211850000000 1.0
C      1  0.5788230000000  0.5133150000000  0.4833860000000 1.0
C      1  0.4212790000000  0.5133150000000  0.5165530000000 1.0
C      1  0.5788230000000  0.4877180000000  0.5165530000000 1.0
C      1  0.4212790000000  0.4877180000000  0.4833860000000 1.0
C      1  0.5563040000000  0.5705950000000  0.4752770000000 1.0
C      1  0.4437990000000  0.5705950000000  0.5246610000000 1.0
C      1  0.4437990000000  0.4304380000000  0.4752770000000 1.0
C      1  0.5563040000000  0.4304380000000  0.5246610000000 1.0
C      1  0.4751870000000  0.5705530000000  0.5562020000000 1.0
C      1  0.5249160000000  0.5705530000000  0.4437370000000 1.0
C      1  0.4751870000000  0.4304800000000  0.4437370000000 1.0
C      1  0.5249160000000  0.4304800000000  0.5562020000000 1.0
C      1  0.5301390000000  0.4796090000000  0.5004130000000 1.0
C      1  0.4699640000000  0.4796090000000  0.4995250000000 1.0
C      1  0.4699640000000  0.5214240000000  0.5004130000000 1.0
C      1  0.5301390000000  0.5214240000000  0.4995250000000 1.0
C      1  0.5005140000000  0.4796090000000  0.5300580000000 1.0
C      1  0.4995890000000  0.4796090000000  0.4698810000000 1.0
C      1  0.5005140000000  0.5214230000000  0.4698810000000 1.0
C      1  0.4995890000000  0.5214230000000  0.5300580000000 1.0
C      1  0.5236960000000  0.5575680000000  0.4177590000000 1.0
C      1  0.4764060000000  0.5575680000000  0.5821800000000 1.0
C      1  0.4764060000000  0.4434650000000  0.4177590000000 1.0
C      1  0.5236960000000  0.4434650000000  0.5821790000000 1.0
C      1  0.4179180000000  0.5572170000000  0.5239020000000 1.0
C      1  0.5821850000000  0.5572170000000  0.4760370000000 1.0
C      1  0.4179180000000  0.4438160000000  0.4760370000000 1.0
C      1  0.5821850000000  0.4438160000000  0.5239020000000 1.0
C      1  0.4595190000000  0.5567670000000  0.4805720000000 1.0
C      1  0.5405830000000  0.5567670000000  0.5193670000000 1.0
C      1  0.5405830000000  0.4442660000000  0.4805720000000 1.0
C      1  0.4595190000000  0.4442660000000  0.5193670000000 1.0
C      1  0.4808710000000  0.5568580000000  0.4593740000000 1.0
C      1  0.5192310000000  0.5568580000000  0.5405650000000 1.0
C      1  0.4808710000000  0.4441740000000  0.5405650000000 1.0
C      1  0.5192310000000  0.4441740000000  0.4593740000000 1.0
C      1  0.5078310000000  0.4423930000000  0.4121740000000 1.0
C      1  0.4922720000000  0.4423930000000  0.5877640000000 1.0
C      1  0.4922720000000  0.5586390000000  0.4121740000000 1.0
C      1  0.5078310000000  0.5586390000000  0.5877640000000 1.0
C      1  0.4123410000000  0.4425160000000  0.5075570000000 1.0
C      1  0.5877610000000  0.4425160000000  0.4923820000000 1.0
C      1  0.4123410000000  0.5585170000000  0.4923820000000 1.0
C      1  0.5877610000000  0.5585170000000  0.5075570000000 1.0
C      1  0.4459720000000  0.5704120000000  0.5539150000000 1.0
C      1  0.5541310000000  0.4306200000000  0.5539150000000 1.0
C      1  0.5541310000000  0.5704120000000  0.4460240000000 1.0
C      1  0.4459720000000  0.4306200000000  0.4460240000000 1.0
C      1  0.5000510000000  0.6124550000000  0.4999690000000 1.0
C      1  0.5000510000000  0.3885770000000  0.4999690000000 1.0
C      1  0.5000510000000  0.5005160000000  0.4999690000000 1.0
END
