TITL C-862127-1500-1107 -1.27740121766634e-06 125000 -17.997688225569 0 0 8 (C5) n - 1
REM
REM in /home/nfs/bkarasulu/CARBON/AIRSS/Generating-Clusters/TERSOFF/Higher-Symm/FIRE-HFTN
REM
REM
REM
REM
REM
REM ./C.cell (b20cbc046b6831c77cfcea5457e17084)
REM AIRSS Version 0.9.1 bugfix July 2018 build 013d7b7c2542+ Fri, 06 Jul 2018 19:26:36 +0100
REM compiler GCC version 9.2.1 20190827 (Red Hat 9.2.1-1)
REM options -cpp -mtune=generic -march=x86-64 -g -O0 -fpre-include=/usr/include/finclude/math-vector-fortran.h
REM seed -541114801 -444851554 699528674 2084563116 -254655492 10336689 -1435748160 -716897428 287552305 601727947 -124339442 -1820994751 1338517404 56063906 709755172 -181177029 -1817452373 -1047696395 -1023173720 -71750556 833975404 -948523959 412870740 1128067450 1243147828 2141954651 -392813910 688569029 -1684003914 -778478564 -917669051 1350805415 193466902
REM
CELL 1.54180   50.00000   50.00000   50.00000   90.00000   90.00000   90.00000
LATT -1
SFAC C  
C      1  0.4996270000000  0.4775590000000  0.4730750000000 1.0
C      1  0.4996270000000  0.4657730000000  0.5133760000000 1.0
C      1  0.4996270000000  0.5004590000000  0.5370380000000 1.0
C      1  0.4996270000000  0.5336830000000  0.5113620000000 1.0
C      1  0.4996270000000  0.5195290000000  0.4718300000000 1.0
C      1  0.5320570000000  0.4994010000000  0.5013360000000 1.0
C      1  0.4671970000000  0.4994010000000  0.5013360000000 1.0
C      1  0.4996270000000  0.4994010000000  0.5013360000000 1.0
END
