TITL C-862502-1143-592 3.15748434159173e-05 125000 -313.834949314479 0 0 60 (C3) n - 1
REM
REM in /home/nfs/bkarasulu/CARBON/AIRSS/Generating-Clusters/TERSOFF/Higher-Symm/FIRE-HFTN
REM
REM
REM
REM
REM
REM ./C.cell (b20cbc046b6831c77cfcea5457e17084)
REM AIRSS Version 0.9.1 bugfix July 2018 build 013d7b7c2542+ Fri, 06 Jul 2018 19:26:36 +0100
REM compiler GCC version 9.2.1 20190827 (Red Hat 9.2.1-1)
REM options -cpp -mtune=generic -march=x86-64 -g -O0 -fpre-include=/usr/include/finclude/math-vector-fortran.h
REM seed -434394518 813043959 -1730088171 255868609 901813452 1817972918 2114574049 1996374289 -1560371909 1927083282 -368577105 -1942537445 1914472515 200094829 -1897363653 2093437783 -1693537290 1818866215 1514871079 934260922 -162502119 520205946 -1080384299 -1376219448 -2077271688 -1566342487 -164472840 -1455392604 36220922 311393951 1030940696 1896584967 420516155
REM
CELL 1.54180   50.00000   50.00000   50.00000   90.00000   90.00000   90.00000
LATT -1
SFAC C  
C      1  0.5276720000000  0.5206840000000  0.5677070000000 1.0
C      1  0.5276720000000  0.4310220000000  0.4840590000000 1.0
C      1  0.5276720000000  0.5482940000000  0.4482340000000 1.0
C      1  0.4724490000000  0.5499760000000  0.5511910000000 1.0
C      1  0.4724490000000  0.4306790000000  0.5176840000000 1.0
C      1  0.4724490000000  0.5193450000000  0.4311240000000 1.0
C      1  0.4495980000000  0.5353300000000  0.4428490000000 1.0
C      1  0.4495980000000  0.5318290000000  0.5591720000000 1.0
C      1  0.4495980000000  0.4328400000000  0.4979790000000 1.0
C      1  0.4661520000000  0.5128310000000  0.5256130000000 1.0
C      1  0.4661520000000  0.4714030000000  0.4983050000000 1.0
C      1  0.4661520000000  0.5157660000000  0.4760810000000 1.0
C      1  0.5097930000000  0.4781370000000  0.4837890000000 1.0
C      1  0.5097930000000  0.5249710000000  0.4891720000000 1.0
C      1  0.5097930000000  0.4968920000000  0.5270400000000 1.0
C      1  0.4988260000000  0.5407060000000  0.5679080000000 1.0
C      1  0.4988260000000  0.4208370000000  0.5012980000000 1.0
C      1  0.4988260000000  0.5384570000000  0.4307930000000 1.0
C      1  0.4949740000000  0.4732280000000  0.5117590000000 1.0
C      1  0.4949740000000  0.5032020000000  0.4709350000000 1.0
C      1  0.4949740000000  0.5235700000000  0.5173060000000 1.0
C      1  0.5383680000000  0.5541750000000  0.5347280000000 1.0
C      1  0.5383680000000  0.4428370000000  0.5295530000000 1.0
C      1  0.5383680000000  0.5029880000000  0.4357190000000 1.0
C      1  0.4609390000000  0.4512500000000  0.4745610000000 1.0
C      1  0.4609390000000  0.5464060000000  0.4705010000000 1.0
C      1  0.4609390000000  0.5023440000000  0.5549380000000 1.0
C      1  0.4538100000000  0.4779420000000  0.4587240000000 1.0
C      1  0.4538100000000  0.5467750000000  0.5015350000000 1.0
C      1  0.4538100000000  0.4752830000000  0.5397410000000 1.0
C      1  0.4879090000000  0.5545740000000  0.4598230000000 1.0
C      1  0.4879090000000  0.5075070000000  0.5673510000000 1.0
C      1  0.4879090000000  0.4379180000000  0.4728260000000 1.0
C      1  0.5439800000000  0.5196940000000  0.4946930000000 1.0
C      1  0.5439800000000  0.4947490000000  0.5197090000000 1.0
C      1  0.5439800000000  0.4855570000000  0.4855980000000 1.0
C      1  0.5629230000000  0.4631330000000  0.4922820000000 1.0
C      1  0.5629230000000  0.5251170000000  0.4719310000000 1.0
C      1  0.5629230000000  0.5117500000000  0.5357870000000 1.0
C      1  0.5135480000000  0.5613270000000  0.5484780000000 1.0
C      1  0.5135480000000  0.4273530000000  0.5288720000000 1.0
C      1  0.5135480000000  0.5113190000000  0.4226500000000 1.0
C      1  0.5393160000000  0.4705730000000  0.5409720000000 1.0
C      1  0.5393160000000  0.4792310000000  0.4540300000000 1.0
C      1  0.5393160000000  0.5501960000000  0.5049980000000 1.0
C      1  0.4779920000000  0.4562140000000  0.5356070000000 1.0
C      1  0.4779920000000  0.4910560000000  0.4442770000000 1.0
C      1  0.4779920000000  0.5527300000000  0.5201160000000 1.0
C      1  0.5143510000000  0.4877710000000  0.5604460000000 1.0
C      1  0.5143510000000  0.4537670000000  0.4591860000000 1.0
C      1  0.5143510000000  0.5584620000000  0.4803680000000 1.0
C      1  0.4401140000000  0.4827610000000  0.5122520000000 1.0
C      1  0.4401140000000  0.4980090000000  0.4789440000000 1.0
C      1  0.4401140000000  0.5192300000000  0.5088030000000 1.0
C      1  0.5498360000000  0.5319360000000  0.5511360000000 1.0
C      1  0.5498360000000  0.4397470000000  0.5020900000000 1.0
C      1  0.5498360000000  0.5283170000000  0.4467750000000 1.0
C      1  0.4974490000000  0.4603330000000  0.5583660000000 1.0
C      1  0.4974490000000  0.4692870000000  0.4364640000000 1.0
C      1  0.4974490000000  0.5703800000000  0.5051700000000 1.0
END
