TITL C-862133-5440-450 -0.0263324005797188 125000 -488.796938111682 0 0 91 (Cs) n - 1
REM
REM in /home/nfs/bkarasulu/CARBON/AIRSS/Generating-Clusters/TERSOFF/Higher-Symm/FIRE-HFTN
REM
REM
REM
REM
REM
REM ./C.cell (b20cbc046b6831c77cfcea5457e17084)
REM AIRSS Version 0.9.1 bugfix July 2018 build 013d7b7c2542+ Fri, 06 Jul 2018 19:26:36 +0100
REM compiler GCC version 9.2.1 20190827 (Red Hat 9.2.1-1)
REM options -cpp -mtune=generic -march=x86-64 -g -O0 -fpre-include=/usr/include/finclude/math-vector-fortran.h
REM seed 1464155044 -1607840563 -2081303411 -815565079 -1736752263 2036461408 1850421885 1925589536 489580307 1045592386 -1904347488 -51913380 -150893420 -1166477753 -182821833 1261421492 -815117985 -2091904738 -364195482 -1531319825 257541196 -1207892626 -2063676620 -2016363826 -738534712 538298065 -1061511669 -204600846 1597826609 1833457480 525144455 624330100 -705569656
REM
CELL 1.54180   50.00000   50.00000   50.00000   90.00000   90.00000   90.00000
LATT -1
SFAC C  
C      1  0.5804150000000  0.5476930000000  0.4963110000000 1.0
C      1  0.4193780000000  0.5476950000000  0.4963110000000 1.0
C      1  0.5345060000000  0.5162410000000  0.5099910000000 1.0
C      1  0.4652860000000  0.5162420000000  0.5099910000000 1.0
C      1  0.5249230000000  0.4751820000000  0.5348610000000 1.0
C      1  0.4748690000000  0.4751820000000  0.5348620000000 1.0
C      1  0.5868580000000  0.4848880000000  0.5238770000000 1.0
C      1  0.4129340000000  0.4848900000000  0.5238770000000 1.0
C      1  0.4507830000000  0.4808620000000  0.5714630000000 1.0
C      1  0.5490100000000  0.4808610000000  0.5714620000000 1.0
C      1  0.5142810000000  0.4441130000000  0.5341720000000 1.0
C      1  0.4855100000000  0.4441130000000  0.5341720000000 1.0
C      1  0.5242670000000  0.5828090000000  0.4744110000000 1.0
C      1  0.4755270000000  0.5828100000000  0.4744110000000 1.0
C      1  0.4713590000000  0.5413350000000  0.4909810000000 1.0
C      1  0.5284330000000  0.5413340000000  0.4909810000000 1.0
C      1  0.5325340000000  0.5624310000000  0.5270030000000 1.0
C      1  0.4672600000000  0.5624320000000  0.5270030000000 1.0
C      1  0.5316490000000  0.4240370000000  0.5204960000000 1.0
C      1  0.4681420000000  0.4240380000000  0.5204960000000 1.0
C      1  0.5151660000000  0.5257800000000  0.4163920000000 1.0
C      1  0.4846260000000  0.5257800000000  0.4163920000000 1.0
C      1  0.4583050000000  0.4514730000000  0.5653100000000 1.0
C      1  0.5414870000000  0.4514730000000  0.5653100000000 1.0
C      1  0.5141420000000  0.4708560000000  0.5007690000000 1.0
C      1  0.4856500000000  0.4708560000000  0.5007690000000 1.0
C      1  0.5582410000000  0.4349990000000  0.5278650000000 1.0
C      1  0.4415510000000  0.4350010000000  0.5278660000000 1.0
C      1  0.5313200000000  0.4599900000000  0.4245220000000 1.0
C      1  0.4684710000000  0.4599910000000  0.4245230000000 1.0
C      1  0.5153350000000  0.5312790000000  0.4664190000000 1.0
C      1  0.4844580000000  0.5312790000000  0.4664190000000 1.0
C      1  0.4820270000000  0.5425560000000  0.5447870000000 1.0
C      1  0.5177670000000  0.5425560000000  0.5447870000000 1.0
C      1  0.4846450000000  0.5684450000000  0.5010940000000 1.0
C      1  0.5151490000000  0.5684450000000  0.5010940000000 1.0
C      1  0.5400590000000  0.4562700000000  0.4536590000000 1.0
C      1  0.4597320000000  0.4562700000000  0.4536600000000 1.0
C      1  0.4083380000000  0.5516750000000  0.4656010000000 1.0
C      1  0.5914550000000  0.5516740000000  0.4656010000000 1.0
C      1  0.5145780000000  0.4398180000000  0.4113660000000 1.0
C      1  0.4852120000000  0.4398180000000  0.4113660000000 1.0
C      1  0.4256780000000  0.5343100000000  0.4483710000000 1.0
C      1  0.5741140000000  0.5343080000000  0.4483710000000 1.0
C      1  0.5283060000000  0.4922600000000  0.4153840000000 1.0
C      1  0.4714860000000  0.4922600000000  0.4153850000000 1.0
C      1  0.4814990000000  0.4474960000000  0.4765340000000 1.0
C      1  0.5182920000000  0.4474960000000  0.4765340000000 1.0
C      1  0.4246460000000  0.5143790000000  0.4938000000000 1.0
C      1  0.5751470000000  0.5143770000000  0.4938000000000 1.0
C      1  0.4359120000000  0.5109190000000  0.5262670000000 1.0
C      1  0.5638800000000  0.5109180000000  0.5262660000000 1.0
C      1  0.4462910000000  0.5540390000000  0.4834040000000 1.0
C      1  0.5535030000000  0.5540380000000  0.4834030000000 1.0
C      1  0.4461110000000  0.5088500000000  0.5567620000000 1.0
C      1  0.5536810000000  0.5088490000000  0.5567610000000 1.0
C      1  0.4838480000000  0.4372690000000  0.5755660000000 1.0
C      1  0.5159440000000  0.4372690000000  0.5755660000000 1.0
C      1  0.5244350000000  0.5445780000000  0.4401040000000 1.0
C      1  0.4753570000000  0.5445780000000  0.4401050000000 1.0
C      1  0.5604330000000  0.5133340000000  0.4646750000000 1.0
C      1  0.4393590000000  0.5133350000000  0.4646750000000 1.0
C      1  0.4846450000000  0.5155500000000  0.5877400000000 1.0
C      1  0.5151480000000  0.5155500000000  0.5877400000000 1.0
C      1  0.4293540000000  0.4616710000000  0.4607600000000 1.0
C      1  0.5704380000000  0.4616700000000  0.4607600000000 1.0
C      1  0.5149300000000  0.5732330000000  0.4470900000000 1.0
C      1  0.4848630000000  0.5732330000000  0.4470900000000 1.0
C      1  0.4698560000000  0.5053710000000  0.4644410000000 1.0
C      1  0.5299360000000  0.5053700000000  0.4644410000000 1.0
C      1  0.4440540000000  0.4751540000000  0.4976820000000 1.0
C      1  0.5557380000000  0.4751530000000  0.4976820000000 1.0
C      1  0.4421330000000  0.4647410000000  0.5273930000000 1.0
C      1  0.5576580000000  0.4647400000000  0.5273930000000 1.0
C      1  0.5327640000000  0.5287920000000  0.5670620000000 1.0
C      1  0.4670290000000  0.5287930000000  0.5670620000000 1.0
C      1  0.4735400000000  0.4228090000000  0.4918460000000 1.0
C      1  0.5262510000000  0.4228080000000  0.4918460000000 1.0
C      1  0.4786020000000  0.4870170000000  0.5807880000000 1.0
C      1  0.5211910000000  0.4870170000000  0.5807880000000 1.0
C      1  0.5324720000000  0.4928270000000  0.4912730000000 1.0
C      1  0.4673200000000  0.4928280000000  0.4912730000000 1.0
C      1  0.5841340000000  0.4818150000000  0.4872660000000 1.0
C      1  0.4156580000000  0.4818160000000  0.4872670000000 1.0
C      1  0.4853150000000  0.4935050000000  0.4432240000000 1.0
C      1  0.5144760000000  0.4935050000000  0.4432240000000 1.0
C      1  0.5152650000000  0.5099230000000  0.5327240000000 1.0
C      1  0.4845270000000  0.5099230000000  0.5327240000000 1.0
C      1  0.5636010000000  0.5610200000000  0.5235680000000 1.0
C      1  0.4361920000000  0.5610220000000  0.5235680000000 1.0
C      1  0.4998960000000  0.4733870000000  0.5613750000000 1.0
END
