TITL C-862134-6730-1011 0.00721383351244911 125000 -159.934625969323 0 0 30 (S4) n - 1
REM
REM in /home/nfs/bkarasulu/CARBON/AIRSS/Generating-Clusters/TERSOFF/Higher-Symm/FIRE-HFTN
REM
REM
REM
REM
REM
REM ./C.cell (b20cbc046b6831c77cfcea5457e17084)
REM AIRSS Version 0.9.1 bugfix July 2018 build 013d7b7c2542+ Fri, 06 Jul 2018 19:26:36 +0100
REM compiler GCC version 9.2.1 20190827 (Red Hat 9.2.1-1)
REM options -cpp -mtune=generic -march=x86-64 -g -O0 -fpre-include=/usr/include/finclude/math-vector-fortran.h
REM seed 2104201376 55024102 -1071220277 26988676 -806820571 -1886798513 -381645392 1375036286 740744966 911701490 -441782952 170174045 -1201191154 -648691666 -1749998170 490998655 2062992099 1239550881 326392790 1389302736 2020587500 2067367369 102846042 1626861744 1657561518 -1710429529 1106862955 -1566952474 -1908278618 -92869612 -1887541058 205730055 -1562196483
REM
CELL 1.54180   50.00000   50.00000   50.00000   90.00000   90.00000   90.00000
LATT -1
SFAC C  
C      1  0.5164370000000  0.4859860000000  0.5283210000000 1.0
C      1  0.4835630000000  0.4710600000000  0.4867320000000 1.0
C      1  0.5164370000000  0.5126490000000  0.4718060000000 1.0
C      1  0.4835630000000  0.5275750000000  0.5133950000000 1.0
C      1  0.5417590000000  0.5442070000000  0.5042230000000 1.0
C      1  0.4582410000000  0.4951570000000  0.5449530000000 1.0
C      1  0.5417590000000  0.4544270000000  0.4959030000000 1.0
C      1  0.4582410000000  0.5034770000000  0.4551730000000 1.0
C      1  0.5498970000000  0.4278460000000  0.5039620000000 1.0
C      1  0.4501030000000  0.4954190000000  0.4285910000000 1.0
C      1  0.5498970000000  0.5707890000000  0.4961650000000 1.0
C      1  0.4501030000000  0.5032160000000  0.5715350000000 1.0
C      1  0.4576930000000  0.4862410000000  0.4786790000000 1.0
C      1  0.5423070000000  0.5207010000000  0.4869870000000 1.0
C      1  0.4576930000000  0.5123940000000  0.5214470000000 1.0
C      1  0.5423070000000  0.4779330000000  0.5131400000000 1.0
C      1  0.5087050000000  0.5170840000000  0.5279700000000 1.0
C      1  0.4912950000000  0.4714110000000  0.5178300000000 1.0
C      1  0.5087050000000  0.4815500000000  0.4721570000000 1.0
C      1  0.4912950000000  0.5272240000000  0.4822960000000 1.0
C      1  0.4706600000000  0.4700050000000  0.5384970000000 1.0
C      1  0.5293400000000  0.4608840000000  0.4707510000000 1.0
C      1  0.4706600000000  0.5286300000000  0.4616290000000 1.0
C      1  0.5293400000000  0.5377510000000  0.5293750000000 1.0
C      1  0.5200970000000  0.5201630000000  0.4429250000000 1.0
C      1  0.4799030000000  0.5564560000000  0.5209090000000 1.0
C      1  0.5200970000000  0.4784720000000  0.5572020000000 1.0
C      1  0.4799030000000  0.4421790000000  0.4792170000000 1.0
C      1  0.5564450000000  0.4993170000000  0.5000630000000 1.0
C      1  0.4435550000000  0.4993170000000  0.5000630000000 1.0
END
