TITL C-862503-991-102 153.136862446676 125000 -910.538059924096 0 0 158 (C1) n - 1
REM
REM in /home/nfs/bkarasulu/CARBON/AIRSS/Generating-Clusters/TERSOFF/Higher-Symm/FIRE-HFTN
REM
REM
REM
REM
REM
REM ./C.cell (b20cbc046b6831c77cfcea5457e17084)
REM AIRSS Version 0.9.1 bugfix July 2018 build 013d7b7c2542+ Fri, 06 Jul 2018 19:26:36 +0100
REM compiler GCC version 9.2.1 20190827 (Red Hat 9.2.1-1)
REM options -cpp -mtune=generic -march=x86-64 -g -O0 -fpre-include=/usr/include/finclude/math-vector-fortran.h
REM seed -694173461 10911527 1533668817 2102693776 1984401384 890322762 -1247786248 1970278317 -1541378639 -376735055 1956892710 515461148 458941956 44547936 366799651 1172474538 -1204785601 -1213449540 -749799641 624919072 -116241197 169991358 -1031538527 1260540523 -892189361 1448985821 815437480 726059880 172607128 -829986432 -1182855117 -106817397 -354784555
REM
CELL 1.54180   50.00000   50.00000   50.00000   90.00000   90.00000   90.00000
LATT -1
SFAC C  
C      1  0.5418770000000  0.4246970000000  0.4441660000000 1.0
C      1  0.5825270000000  0.4231500000000  0.5183040000000 1.0
C      1  0.5117150000000  0.4992580000000  0.3967450000000 1.0
C      1  0.4878340000000  0.4967530000000  0.5818440000000 1.0
C      1  0.4751600000000  0.4297840000000  0.4622900000000 1.0
C      1  0.5059480000000  0.5995120000000  0.5206640000000 1.0
C      1  0.4787740000000  0.6033110000000  0.4652500000000 1.0
C      1  0.5345230000000  0.4721390000000  0.5527960000000 1.0
C      1  0.5240510000000  0.5159140000000  0.6120210000000 1.0
C      1  0.4470570000000  0.4297970000000  0.5709750000000 1.0
C      1  0.4541450000000  0.5642450000000  0.4582130000000 1.0
C      1  0.5594620000000  0.5692260000000  0.5898450000000 1.0
C      1  0.5532590000000  0.4200220000000  0.5630480000000 1.0
C      1  0.5973760000000  0.4431000000000  0.5018520000000 1.0
C      1  0.4685950000000  0.4541270000000  0.5068660000000 1.0
C      1  0.5204340000000  0.4597620000000  0.4722630000000 1.0
C      1  0.5714600000000  0.5818000000000  0.4523960000000 1.0
C      1  0.5677690000000  0.4376390000000  0.4446990000000 1.0
C      1  0.4396580000000  0.4703450000000  0.5494260000000 1.0
C      1  0.5406080000000  0.4099130000000  0.4910200000000 1.0
C      1  0.5076110000000  0.5445440000000  0.5002690000000 1.0
C      1  0.4428750000000  0.4597510000000  0.4045300000000 1.0
C      1  0.6202110000000  0.4912170000000  0.4729110000000 1.0
C      1  0.4215860000000  0.5862700000000  0.5053150000000 1.0
C      1  0.4691930000000  0.5212060000000  0.5886780000000 1.0
C      1  0.4982970000000  0.4201070000000  0.4755100000000 1.0
C      1  0.4990940000000  0.5324870000000  0.5475700000000 1.0
C      1  0.5627590000000  0.4888180000000  0.4187050000000 1.0
C      1  0.4476960000000  0.4492710000000  0.4320430000000 1.0
C      1  0.4789410000000  0.6034370000000  0.5354160000000 1.0
C      1  0.3973130000000  0.4366380000000  0.4058630000000 1.0
C      1  0.4000020000000  0.5280340000000  0.4928390000000 1.0
C      1  0.5331430000000  0.4076040000000  0.4223270000000 1.0
C      1  0.4880400000000  0.4034640000000  0.5202330000000 1.0
C      1  0.6218090000000  0.4560030000000  0.5091190000000 1.0
C      1  0.5618100000000  0.5127270000000  0.5939200000000 1.0
C      1  0.4784870000000  0.4843610000000  0.4447400000000 1.0
C      1  0.4177400000000  0.4886370000000  0.5436700000000 1.0
C      1  0.5448860000000  0.5190160000000  0.5702220000000 1.0
C      1  0.4202480000000  0.5337600000000  0.4215230000000 1.0
C      1  0.4971560000000  0.5892570000000  0.5603740000000 1.0
C      1  0.4520060000000  0.5729850000000  0.5576480000000 1.0
C      1  0.5590660000000  0.5355770000000  0.5500640000000 1.0
C      1  0.3922040000000  0.4411570000000  0.5180070000000 1.0
C      1  0.4230690000000  0.5152880000000  0.5556010000000 1.0
C      1  0.5553020000000  0.5907190000000  0.5054030000000 1.0
C      1  0.5149700000000  0.5426000000000  0.5990180000000 1.0
C      1  0.6147410000000  0.5323390000000  0.4794750000000 1.0
C      1  0.5360540000000  0.5949910000000  0.4843550000000 1.0
C      1  0.5084200000000  0.5927100000000  0.4929860000000 1.0
C      1  0.5146100000000  0.5484290000000  0.5292670000000 1.0
C      1  0.4951210000000  0.5670260000000  0.4872460000000 1.0
C      1  0.4595680000000  0.5694430000000  0.3803030000000 1.0
C      1  0.5081810000000  0.4824130000000  0.4534780000000 1.0
C      1  0.4354690000000  0.4235820000000  0.5412560000000 1.0
C      1  0.5313760000000  0.5310750000000  0.4456220000000 1.0
C      1  0.5260260000000  0.3912310000000  0.5071960000000 1.0
C      1  0.4827320000000  0.4139230000000  0.4142320000000 1.0
C      1  0.6042590000000  0.5529230000000  0.5279690000000 1.0
C      1  0.5782760000000  0.4608210000000  0.4893250000000 1.0
C      1  0.5250780000000  0.5621560000000  0.4445800000000 1.0
C      1  0.6188800000000  0.5319220000000  0.5088790000000 1.0
C      1  0.5876510000000  0.5300830000000  0.5417710000000 1.0
C      1  0.5272610000000  0.5084070000000  0.5278060000000 1.0
C      1  0.4653580000000  0.6051330000000  0.4957210000000 1.0
C      1  0.5202640000000  0.5786880000000  0.5396330000000 1.0
C      1  0.6212560000000  0.5047990000000  0.5212220000000 1.0
C      1  0.4327980000000  0.5551840000000  0.5722700000000 1.0
C      1  0.5430660000000  0.5846350000000  0.4593100000000 1.0
C      1  0.4529090000000  0.4710880000000  0.4559040000000 1.0
C      1  0.4153820000000  0.5616120000000  0.4295260000000 1.0
C      1  0.4564850000000  0.5420240000000  0.5014700000000 1.0
C      1  0.4785410000000  0.5704530000000  0.5719280000000 1.0
C      1  0.4648380000000  0.4742670000000  0.3896260000000 1.0
C      1  0.4225540000000  0.5357130000000  0.5365180000000 1.0
C      1  0.5701030000000  0.5320960000000  0.4152870000000 1.0
C      1  0.3999860000000  0.5372590000000  0.5197350000000 1.0
C      1  0.5331970000000  0.4805300000000  0.4106740000000 1.0
C      1  0.5777930000000  0.5549620000000  0.4368360000000 1.0
C      1  0.3917010000000  0.4767080000000  0.5533370000000 1.0
C      1  0.4024070000000  0.4609220000000  0.4997350000000 1.0
C      1  0.4597080000000  0.4499070000000  0.4772880000000 1.0
C      1  0.6007500000000  0.4889420000000  0.5680260000000 1.0
C      1  0.3797340000000  0.4534470000000  0.5411970000000 1.0
C      1  0.5004720000000  0.4375970000000  0.5413050000000 1.0
C      1  0.5418420000000  0.5251640000000  0.4192140000000 1.0
C      1  0.4162210000000  0.4849220000000  0.5087950000000 1.0
C      1  0.5261430000000  0.4285160000000  0.4687360000000 1.0
C      1  0.5755980000000  0.4868880000000  0.4466960000000 1.0
C      1  0.4498370000000  0.5426030000000  0.5287590000000 1.0
C      1  0.5620470000000  0.4749420000000  0.5091930000000 1.0
C      1  0.5690110000000  0.4094060000000  0.4957170000000 1.0
C      1  0.4266680000000  0.4301570000000  0.4468540000000 1.0
C      1  0.4018250000000  0.4253920000000  0.4323240000000 1.0
C      1  0.4562570000000  0.5326180000000  0.4564300000000 1.0
C      1  0.5102860000000  0.4129320000000  0.4052190000000 1.0
C      1  0.4756630000000  0.5796840000000  0.4451940000000 1.0
C      1  0.5027450000000  0.4408690000000  0.5832480000000 1.0
C      1  0.5087970000000  0.4936390000000  0.5074040000000 1.0
C      1  0.5452370000000  0.5375720000000  0.5209780000000 1.0
C      1  0.4490990000000  0.5208690000000  0.4840200000000 1.0
C      1  0.5673450000000  0.5619560000000  0.5627320000000 1.0
C      1  0.4719610000000  0.5073950000000  0.4267700000000 1.0
C      1  0.4115000000000  0.5744730000000  0.4776730000000 1.0
C      1  0.5335070000000  0.4315110000000  0.5843390000000 1.0
C      1  0.5322330000000  0.5666830000000  0.6007320000000 1.0
C      1  0.5762620000000  0.5352500000000  0.4629030000000 1.0
C      1  0.5472940000000  0.5666920000000  0.4216220000000 1.0
C      1  0.4725180000000  0.4323400000000  0.4340810000000 1.0
C      1  0.4355920000000  0.4133570000000  0.4724820000000 1.0
C      1  0.4171110000000  0.4532270000000  0.3923730000000 1.0
C      1  0.4868300000000  0.5457190000000  0.5882570000000 1.0
C      1  0.5218500000000  0.4693590000000  0.4987420000000 1.0
C      1  0.4885040000000  0.4261880000000  0.5027510000000 1.0
C      1  0.5485720000000  0.5729280000000  0.5269160000000 1.0
C      1  0.4661920000000  0.5643650000000  0.4862370000000 1.0
C      1  0.5911450000000  0.5725460000000  0.5487470000000 1.0
C      1  0.5646420000000  0.4352370000000  0.5398190000000 1.0
C      1  0.4700920000000  0.5360150000000  0.5494300000000 1.0
C      1  0.4796200000000  0.4842490000000  0.5112690000000 1.0
C      1  0.4390840000000  0.5158070000000  0.4357740000000 1.0
C      1  0.4724620000000  0.4013710000000  0.5440760000000 1.0
C      1  0.4306700000000  0.4938190000000  0.4577170000000 1.0
C      1  0.5737510000000  0.4617220000000  0.4603090000000 1.0
C      1  0.5250320000000  0.3918680000000  0.5363890000000 1.0
C      1  0.5066240000000  0.4646470000000  0.5488550000000 1.0
C      1  0.4700620000000  0.4955380000000  0.5354810000000 1.0
C      1  0.4848940000000  0.5320750000000  0.4433520000000 1.0
C      1  0.4276000000000  0.5739050000000  0.4535230000000 1.0
C      1  0.4215530000000  0.5062690000000  0.4874180000000 1.0
C      1  0.5558460000000  0.5396190000000  0.4872830000000 1.0
C      1  0.4980060000000  0.4705830000000  0.5978470000000 1.0
C      1  0.4817430000000  0.4960000000000  0.4012300000000 1.0
C      1  0.5425500000000  0.4781960000000  0.5798010000000 1.0
C      1  0.5164030000000  0.5114630000000  0.4619520000000 1.0
C      1  0.4247360000000  0.4019170000000  0.4997820000000 1.0
C      1  0.5241140000000  0.4872700000000  0.6006900000000 1.0
C      1  0.5131810000000  0.4135360000000  0.5523260000000 1.0
C      1  0.4879360000000  0.5637640000000  0.3811610000000 1.0
C      1  0.6000090000000  0.5039500000000  0.5429810000000 1.0
C      1  0.3949320000000  0.5505550000000  0.4761590000000 1.0
C      1  0.5211810000000  0.5275020000000  0.3983820000000 1.0
C      1  0.5951880000000  0.5097490000000  0.4619440000000 1.0
C      1  0.5089580000000  0.5172840000000  0.4889140000000 1.0
C      1  0.5129120000000  0.5149720000000  0.5674830000000 1.0
C      1  0.4444060000000  0.3958930000000  0.5296460000000 1.0
C      1  0.4394170000000  0.5252860000000  0.5802650000000 1.0
C      1  0.4101220000000  0.4192050000000  0.5229880000000 1.0
C      1  0.4464010000000  0.4502640000000  0.5286690000000 1.0
C      1  0.4514390000000  0.5868950000000  0.5240160000000 1.0
C      1  0.5015220000000  0.5505650000000  0.4031460000000 1.0
C      1  0.5867190000000  0.4968830000000  0.5928880000000 1.0
C      1  0.4967370000000  0.5593050000000  0.4331740000000 1.0
C      1  0.4761670000000  0.4204240000000  0.5709330000000 1.0
C      1  0.4425010000000  0.4584890000000  0.5760340000000 1.0
C      1  0.4850540000000  0.4833110000000  0.5562930000000 1.0
C      1  0.6248140000000  0.4837400000000  0.5014550000000 1.0
C      1  0.5544750000000  0.4618280000000  0.5345140000000 1.0
END
