TITL C-862506-1665-925 0.00290766122212227 125000 -1024.6347220027 0 0 176 (S8) n - 1
REM
REM in /home/nfs/bkarasulu/CARBON/AIRSS/Generating-Clusters/TERSOFF/Higher-Symm/FIRE-HFTN
REM
REM
REM
REM
REM
REM ./C.cell (b20cbc046b6831c77cfcea5457e17084)
REM AIRSS Version 0.9.1 bugfix July 2018 build 013d7b7c2542+ Fri, 06 Jul 2018 19:26:36 +0100
REM compiler GCC version 9.2.1 20190827 (Red Hat 9.2.1-1)
REM options -cpp -mtune=generic -march=x86-64 -g -O0 -fpre-include=/usr/include/finclude/math-vector-fortran.h
REM seed 657771031 1688508456 453044912 342854575 -1019831241 268988530 1325999040 734910040 -1644108137 -576263901 835162373 -514730487 -667094666 735619139 874813616 1461864513 1120188969 1347736826 175160297 -223787351 1217240303 -1619582502 1362590003 -7603819 469822280 -1350777411 -1508331603 1362535876 -1046785552 613336041 -976435668 -1238698301 591802442
REM
CELL 1.54180   50.00000   50.00000   50.00000   90.00000   90.00000   90.00000
LATT -1
SFAC C  
C      1  0.4775480000000  0.5130010000000  0.6108780000000 1.0
C      1  0.4933170000000  0.5250680000000  0.3891220000000 1.0
C      1  0.5130010000000  0.5224520000000  0.6108780000000 1.0
C      1  0.5250680000000  0.5066830000000  0.3891220000000 1.0
C      1  0.5224520000000  0.4870000000000  0.6108780000000 1.0
C      1  0.5066830000000  0.4749320000000  0.3891220000000 1.0
C      1  0.4869990000000  0.4775490000000  0.6108780000000 1.0
C      1  0.4749320000000  0.4933170000000  0.3891220000000 1.0
C      1  0.4941390000000  0.4194510000000  0.4464800000000 1.0
C      1  0.4388990000000  0.4471870000000  0.5535200000000 1.0
C      1  0.4194510000000  0.5058610000000  0.4464800000000 1.0
C      1  0.4471870000000  0.5611020000000  0.5535200000000 1.0
C      1  0.5058610000000  0.5805490000000  0.4464800000000 1.0
C      1  0.5611010000000  0.5528130000000  0.5535200000000 1.0
C      1  0.5805490000000  0.4941390000000  0.4464800000000 1.0
C      1  0.5528130000000  0.4388990000000  0.5535200000000 1.0
C      1  0.5770820000000  0.4427670000000  0.4502000000000 1.0
C      1  0.5140350000000  0.4050250000000  0.5498000000000 1.0
C      1  0.4427670000000  0.4229180000000  0.4502000000000 1.0
C      1  0.4050250000000  0.4859650000000  0.5498000000000 1.0
C      1  0.4229180000000  0.5572330000000  0.4502000000000 1.0
C      1  0.4859650000000  0.5949750000000  0.5498000000000 1.0
C      1  0.5572330000000  0.5770820000000  0.4502000000000 1.0
C      1  0.5949750000000  0.5140350000000  0.5498000000000 1.0
C      1  0.5200130000000  0.4443190000000  0.5130430000000 1.0
C      1  0.4747790000000  0.4464770000000  0.4869570000000 1.0
C      1  0.4443190000000  0.4799870000000  0.5130430000000 1.0
C      1  0.4464770000000  0.5252210000000  0.4869570000000 1.0
C      1  0.4799870000000  0.5556810000000  0.5130430000000 1.0
C      1  0.5252210000000  0.5535230000000  0.4869570000000 1.0
C      1  0.5556810000000  0.5200130000000  0.5130430000000 1.0
C      1  0.5535230000000  0.4747790000000  0.4869570000000 1.0
C      1  0.4791630000000  0.4905470000000  0.4693180000000 1.0
C      1  0.4785810000000  0.5080500000000  0.5306820000000 1.0
C      1  0.4905470000000  0.5208370000000  0.4693180000000 1.0
C      1  0.5080500000000  0.5214190000000  0.5306820000000 1.0
C      1  0.5208370000000  0.5094530000000  0.4693180000000 1.0
C      1  0.5214190000000  0.4919500000000  0.5306820000000 1.0
C      1  0.5094530000000  0.4791630000000  0.4693180000000 1.0
C      1  0.4919500000000  0.4785810000000  0.5306820000000 1.0
C      1  0.4607010000000  0.5681620000000  0.4029110000000 1.0
C      1  0.5204090000000  0.5759860000000  0.5970890000000 1.0
C      1  0.5681620000000  0.5392980000000  0.4029110000000 1.0
C      1  0.5759860000000  0.4795910000000  0.5970890000000 1.0
C      1  0.5392990000000  0.4318380000000  0.4029110000000 1.0
C      1  0.4795910000000  0.4240140000000  0.5970890000000 1.0
C      1  0.4318380000000  0.4607010000000  0.4029110000000 1.0
C      1  0.4240140000000  0.5204090000000  0.5970890000000 1.0
C      1  0.5493400000000  0.4682730000000  0.5978840000000 1.0
C      1  0.5124540000000  0.4426770000000  0.4021170000000 1.0
C      1  0.4682730000000  0.4506600000000  0.5978840000000 1.0
C      1  0.4426770000000  0.4875460000000  0.4021170000000 1.0
C      1  0.4506600000000  0.5317270000000  0.5978830000000 1.0
C      1  0.4875460000000  0.5573230000000  0.4021160000000 1.0
C      1  0.5317270000000  0.5493400000000  0.5978830000000 1.0
C      1  0.5573230000000  0.5124540000000  0.4021170000000 1.0
C      1  0.4399570000000  0.5090220000000  0.5103370000000 1.0
C      1  0.4639220000000  0.5488360000000  0.4896630000000 1.0
C      1  0.5090220000000  0.5600430000000  0.5103370000000 1.0
C      1  0.5488360000000  0.5360780000000  0.4896630000000 1.0
C      1  0.5600430000000  0.4909780000000  0.5103370000000 1.0
C      1  0.5360780000000  0.4511640000000  0.4896630000000 1.0
C      1  0.4909780000000  0.4399570000000  0.5103370000000 1.0
C      1  0.4511640000000  0.4639220000000  0.4896630000000 1.0
C      1  0.5156170000000  0.4016380000000  0.4553000000000 1.0
C      1  0.4414910000000  0.4194050000000  0.5447000000000 1.0
C      1  0.4016380000000  0.4843830000000  0.4553000000000 1.0
C      1  0.4194050000000  0.5585100000000  0.5447000000000 1.0
C      1  0.4843830000000  0.5983620000000  0.4553000000000 1.0
C      1  0.5585090000000  0.5805950000000  0.5447000000000 1.0
C      1  0.5983620000000  0.5156170000000  0.4553000000000 1.0
C      1  0.5805950000000  0.4414910000000  0.5447000000000 1.0
C      1  0.5566700000000  0.5444260000000  0.5824710000000 1.0
C      1  0.5714860000000  0.4913420000000  0.4175290000000 1.0
C      1  0.5444260000000  0.4433300000000  0.5824710000000 1.0
C      1  0.4913420000000  0.4285140000000  0.4175300000000 1.0
C      1  0.4433300000000  0.4555740000000  0.5824710000000 1.0
C      1  0.4285140000000  0.5086580000000  0.4175290000000 1.0
C      1  0.4555740000000  0.5566700000000  0.5824700000000 1.0
C      1  0.5086580000000  0.5714860000000  0.4175290000000 1.0
C      1  0.5606560000000  0.4423420000000  0.4219190000000 1.0
C      1  0.5021200000000  0.4163400000000  0.5780810000000 1.0
C      1  0.4423420000000  0.4393440000000  0.4219190000000 1.0
C      1  0.4163400000000  0.4978810000000  0.5780810000000 1.0
C      1  0.4393440000000  0.5576580000000  0.4219190000000 1.0
C      1  0.4978800000000  0.5836600000000  0.5780810000000 1.0
C      1  0.5576580000000  0.5606560000000  0.4219190000000 1.0
C      1  0.5836600000000  0.5021200000000  0.5780810000000 1.0
C      1  0.4699690000000  0.4048710000000  0.4900200000000 1.0
C      1  0.4114980000000  0.4539690000000  0.5099800000000 1.0
C      1  0.4048710000000  0.5300310000000  0.4900200000000 1.0
C      1  0.4539690000000  0.5885020000000  0.5099800000000 1.0
C      1  0.5300310000000  0.5951290000000  0.4900200000000 1.0
C      1  0.5885020000000  0.5460310000000  0.5099800000000 1.0
C      1  0.5951290000000  0.4699690000000  0.4900200000000 1.0
C      1  0.5460310000000  0.4114980000000  0.5099800000000 1.0
C      1  0.5366230000000  0.4866590000000  0.5560230000000 1.0
C      1  0.5164630000000  0.4646700000000  0.4439770000000 1.0
C      1  0.4866590000000  0.4633770000000  0.5560230000000 1.0
C      1  0.4646700000000  0.4835370000000  0.4439770000000 1.0
C      1  0.4633770000000  0.5133410000000  0.5560230000000 1.0
C      1  0.4835370000000  0.5353300000000  0.4439770000000 1.0
C      1  0.5133410000000  0.5366230000000  0.5560230000000 1.0
C      1  0.5353300000000  0.5164630000000  0.4439770000000 1.0
C      1  0.4248310000000  0.4664360000000  0.5350460000000 1.0
C      1  0.4231140000000  0.5294200000000  0.4649540000000 1.0
C      1  0.4664360000000  0.5751690000000  0.5350460000000 1.0
C      1  0.5294200000000  0.5768860000000  0.4649540000000 1.0
C      1  0.5751690000000  0.5335640000000  0.5350460000000 1.0
C      1  0.5768860000000  0.4705800000000  0.4649540000000 1.0
C      1  0.5335640000000  0.4248310000000  0.5350460000000 1.0
C      1  0.4705800000000  0.4231140000000  0.4649540000000 1.0
C      1  0.6075730000000  0.4959280000000  0.5000740000000 1.0
C      1  0.5731860000000  0.4210550000000  0.4999260000000 1.0
C      1  0.4959280000000  0.3924270000000  0.5000740000000 1.0
C      1  0.4210550000000  0.4268140000000  0.4999260000000 1.0
C      1  0.3924270000000  0.5040720000000  0.5000740000000 1.0
C      1  0.4268140000000  0.5789450000000  0.4999260000000 1.0
C      1  0.5040720000000  0.6075730000000  0.5000740000000 1.0
C      1  0.5789450000000  0.5731860000000  0.4999260000000 1.0
C      1  0.4650110000000  0.4282250000000  0.4072260000000 1.0
C      1  0.4245060000000  0.4739890000000  0.5927740000000 1.0
C      1  0.4282250000000  0.5349890000000  0.4072260000000 1.0
C      1  0.4739890000000  0.5754940000000  0.5927740000000 1.0
C      1  0.5349890000000  0.5717750000000  0.4072260000000 1.0
C      1  0.5754940000000  0.5260110000000  0.5927740000000 1.0
C      1  0.5717750000000  0.4650110000000  0.4072260000000 1.0
C      1  0.5260110000000  0.4245070000000  0.5927740000000 1.0
C      1  0.3917520000000  0.5081700000000  0.5303520000000 1.0
C      1  0.4292340000000  0.5823200000000  0.4696480000000 1.0
C      1  0.5081700000000  0.6082480000000  0.5303520000000 1.0
C      1  0.5823200000000  0.5707660000000  0.4696480000000 1.0
C      1  0.6082480000000  0.4918300000000  0.5303520000000 1.0
C      1  0.5707660000000  0.4176800000000  0.4696480000000 1.0
C      1  0.4918300000000  0.3917520000000  0.5303520000000 1.0
C      1  0.4176800000000  0.4292340000000  0.4696480000000 1.0
C      1  0.4909030000000  0.5199040000000  0.4209140000000 1.0
C      1  0.5076420000000  0.5205070000000  0.5790860000000 1.0
C      1  0.5199040000000  0.5090970000000  0.4209140000000 1.0
C      1  0.5205070000000  0.4923580000000  0.5790860000000 1.0
C      1  0.5090970000000  0.4800960000000  0.4209140000000 1.0
C      1  0.4923580000000  0.4794940000000  0.5790860000000 1.0
C      1  0.4800960000000  0.4909030000000  0.4209140000000 1.0
C      1  0.4794930000000  0.5076420000000  0.5790860000000 1.0
C      1  0.4345570000000  0.5149860000000  0.5567980000000 1.0
C      1  0.4643210000000  0.5568710000000  0.4432020000000 1.0
C      1  0.5149860000000  0.5654430000000  0.5567980000000 1.0
C      1  0.5568720000000  0.5356790000000  0.4432020000000 1.0
C      1  0.5654430000000  0.4850140000000  0.5567980000000 1.0
C      1  0.5356790000000  0.4431280000000  0.4432020000000 1.0
C      1  0.4850140000000  0.4345570000000  0.5567980000000 1.0
C      1  0.4431280000000  0.4643210000000  0.4432020000000 1.0
C      1  0.6032850000000  0.5241400000000  0.4863880000000 1.0
C      1  0.5901040000000  0.4440360000000  0.5136120000000 1.0
C      1  0.5241400000000  0.3967150000000  0.4863880000000 1.0
C      1  0.4440360000000  0.4098960000000  0.5136120000000 1.0
C      1  0.3967150000000  0.4758600000000  0.4863880000000 1.0
C      1  0.4098960000000  0.5559640000000  0.5136120000000 1.0
C      1  0.4758600000000  0.6032850000000  0.4863880000000 1.0
C      1  0.5559640000000  0.5901040000000  0.5136120000000 1.0
C      1  0.5412430000000  0.4319230000000  0.4690730000000 1.0
C      1  0.4810250000000  0.4227000000000  0.5309270000000 1.0
C      1  0.4319230000000  0.4587570000000  0.4690730000000 1.0
C      1  0.4227000000000  0.5189750000000  0.5309270000000 1.0
C      1  0.4587570000000  0.5680770000000  0.4690730000000 1.0
C      1  0.5189750000000  0.5773010000000  0.5309270000000 1.0
C      1  0.5680770000000  0.5412430000000  0.4690730000000 1.0
C      1  0.5773000000000  0.4810250000000  0.5309270000000 1.0
C      1  0.6140140000000  0.4608530000000  0.5282030000000 1.0
C      1  0.5529390000000  0.3916990000000  0.4717970000000 1.0
C      1  0.4608530000000  0.3859860000000  0.5282030000000 1.0
C      1  0.3916990000000  0.4470610000000  0.4717970000000 1.0
C      1  0.3859860000000  0.5391470000000  0.5282030000000 1.0
C      1  0.4470610000000  0.6083010000000  0.4717970000000 1.0
C      1  0.5391470000000  0.6140140000000  0.5282030000000 1.0
C      1  0.6083010000000  0.5529390000000  0.4717970000000 1.0
END
