TITL C-862129-6180-780 -9.85990191253825e-06 125000 -440.289042862407 0 0 78 (T23) n - 1
REM
REM in /home/nfs/bkarasulu/CARBON/AIRSS/Generating-Clusters/TERSOFF/Higher-Symm/FIRE-HFTN
REM
REM
REM
REM
REM
REM ./C.cell (b20cbc046b6831c77cfcea5457e17084)
REM AIRSS Version 0.9.1 bugfix July 2018 build 013d7b7c2542+ Fri, 06 Jul 2018 19:26:36 +0100
REM compiler GCC version 9.2.1 20190827 (Red Hat 9.2.1-1)
REM options -cpp -mtune=generic -march=x86-64 -g -O0 -fpre-include=/usr/include/finclude/math-vector-fortran.h
REM seed -736365839 -2074011614 -1553852102 675581439 2130663014 1913192415 470240953 -576066717 -1022824972 839393859 1599422611 -1603601844 769517651 -1125690736 218203738 -852878968 1808834883 -531581294 1826392404 848396217 -1034547143 1610345856 -286019068 442792412 -488025587 -734192326 69120329 -1136818837 1611122311 774752847 -151496808 1014221414 1204143821
REM
CELL 1.54180   50.00000   50.00000   50.00000   90.00000   90.00000   90.00000
LATT -1
SFAC C  
C      1  0.4373480000000  0.5334440000000  0.4585910000000 1.0
C      1  0.4581500000000  0.4370490000000  0.5341840000000 1.0
C      1  0.5337430000000  0.4578510000000  0.4377890000000 1.0
C      1  0.5619550000000  0.4652600000000  0.4585910000000 1.0
C      1  0.5619550000000  0.5334440000000  0.5415940000000 1.0
C      1  0.4373480000000  0.4652600000000  0.5415940000000 1.0
C      1  0.5411530000000  0.5616560000000  0.5341840000000 1.0
C      1  0.5411530000000  0.4370490000000  0.4660010000000 1.0
C      1  0.4581500000000  0.5616560000000  0.4660010000000 1.0
C      1  0.4655600000000  0.5408540000000  0.4377890000000 1.0
C      1  0.4655600000000  0.4578510000000  0.5623960000000 1.0
C      1  0.5337430000000  0.5408540000000  0.5623960000000 1.0
C      1  0.5565880000000  0.4841920000000  0.5716890000000 1.0
C      1  0.5712490000000  0.5562890000000  0.4849320000000 1.0
C      1  0.4844910000000  0.5709490000000  0.5570290000000 1.0
C      1  0.4427150000000  0.5145130000000  0.5716890000000 1.0
C      1  0.4427150000000  0.4841920000000  0.4284950000000 1.0
C      1  0.5565880000000  0.5145130000000  0.4284950000000 1.0
C      1  0.4280540000000  0.4424150000000  0.4849320000000 1.0
C      1  0.4280540000000  0.5562890000000  0.5152530000000 1.0
C      1  0.5712490000000  0.4424150000000  0.5152530000000 1.0
C      1  0.5148120000000  0.4277550000000  0.5570290000000 1.0
C      1  0.5148120000000  0.5709490000000  0.4431560000000 1.0
C      1  0.4844910000000  0.4277550000000  0.4431560000000 1.0
C      1  0.4615230000000  0.4648680000000  0.4181710000000 1.0
C      1  0.4177300000000  0.4612230000000  0.4656080000000 1.0
C      1  0.4651670000000  0.4174310000000  0.4619640000000 1.0
C      1  0.5377800000000  0.5338360000000  0.4181710000000 1.0
C      1  0.5377800000000  0.4648680000000  0.5820130000000 1.0
C      1  0.4615230000000  0.5338360000000  0.5820130000000 1.0
C      1  0.5815730000000  0.5374810000000  0.4656080000000 1.0
C      1  0.5815730000000  0.4612230000000  0.5345760000000 1.0
C      1  0.4177300000000  0.5374810000000  0.5345760000000 1.0
C      1  0.5341350000000  0.5812730000000  0.4619640000000 1.0
C      1  0.5341350000000  0.4174310000000  0.5382210000000 1.0
C      1  0.4651670000000  0.5812730000000  0.5382210000000 1.0
C      1  0.4845470000000  0.5439060000000  0.5674720000000 1.0
C      1  0.5670310000000  0.4842480000000  0.5446460000000 1.0
C      1  0.5442050000000  0.5667320000000  0.4849880000000 1.0
C      1  0.5147560000000  0.4547980000000  0.5674720000000 1.0
C      1  0.5147560000000  0.5439060000000  0.4327130000000 1.0
C      1  0.4845470000000  0.4547980000000  0.4327130000000 1.0
C      1  0.4322720000000  0.5144560000000  0.5446460000000 1.0
C      1  0.4322720000000  0.4842480000000  0.4555380000000 1.0
C      1  0.5670310000000  0.5144560000000  0.4555380000000 1.0
C      1  0.4550970000000  0.4319720000000  0.4849880000000 1.0
C      1  0.4550970000000  0.5667320000000  0.5151970000000 1.0
C      1  0.5442060000000  0.4319720000000  0.5151970000000 1.0
C      1  0.4916190000000  0.4868920000000  0.5346140000000 1.0
C      1  0.5341740000000  0.4913200000000  0.4876320000000 1.0
C      1  0.4871910000000  0.5338740000000  0.4920600000000 1.0
C      1  0.5076830000000  0.5118130000000  0.5346140000000 1.0
C      1  0.5076830000000  0.4868920000000  0.4655700000000 1.0
C      1  0.4916190000000  0.5118130000000  0.4655700000000 1.0
C      1  0.4651290000000  0.5073840000000  0.4876320000000 1.0
C      1  0.4651290000000  0.4913200000000  0.5125530000000 1.0
C      1  0.5341740000000  0.5073840000000  0.5125530000000 1.0
C      1  0.5121120000000  0.4648300000000  0.4920600000000 1.0
C      1  0.5121120000000  0.5338740000000  0.5081240000000 1.0
C      1  0.4871910000000  0.4648300000000  0.5081240000000 1.0
C      1  0.4735080000000  0.4372470000000  0.5080640000000 1.0
C      1  0.5076230000000  0.4732090000000  0.4379880000000 1.0
C      1  0.4375470000000  0.5073230000000  0.4739490000000 1.0
C      1  0.5257940000000  0.5614570000000  0.5080640000000 1.0
C      1  0.5257940000000  0.4372470000000  0.4921210000000 1.0
C      1  0.4735080000000  0.5614570000000  0.4921210000000 1.0
C      1  0.4916800000000  0.5254950000000  0.4379880000000 1.0
C      1  0.4916800000000  0.4732090000000  0.5621970000000 1.0
C      1  0.5076230000000  0.5254950000000  0.5621970000000 1.0
C      1  0.5617560000000  0.4913810000000  0.4739490000000 1.0
C      1  0.5617560000000  0.5073230000000  0.5262350000000 1.0
C      1  0.4375470000000  0.4913810000000  0.5262350000000 1.0
C      1  0.4224200000000  0.4993520000000  0.5000920000000 1.0
C      1  0.4996510000000  0.4221210000000  0.5000920000000 1.0
C      1  0.4996510000000  0.4993520000000  0.5773240000000 1.0
C      1  0.5768830000000  0.4993520000000  0.5000920000000 1.0
C      1  0.4996510000000  0.5765840000000  0.5000920000000 1.0
C      1  0.4996510000000  0.4993520000000  0.4228610000000 1.0
END
