TITL C-862134-6730-54 0.000561480708778956 125000 -492.273240138542 0 0 85 (C3) n - 1
REM
REM in /home/nfs/bkarasulu/CARBON/AIRSS/Generating-Clusters/TERSOFF/Higher-Symm/FIRE-HFTN
REM
REM
REM
REM
REM
REM ./C.cell (b20cbc046b6831c77cfcea5457e17084)
REM AIRSS Version 0.9.1 bugfix July 2018 build 013d7b7c2542+ Fri, 06 Jul 2018 19:26:36 +0100
REM compiler GCC version 9.2.1 20190827 (Red Hat 9.2.1-1)
REM options -cpp -mtune=generic -march=x86-64 -g -O0 -fpre-include=/usr/include/finclude/math-vector-fortran.h
REM seed 42850210 -1372415054 -2114183025 1658698597 -612598793 1965155982 -407000635 -1792385635 -127218953 1504872717 1356940093 -197836804 545483648 1681059271 1468178610 -1577076637 -1734397395 1393327054 -1530517614 1910277714 239822972 1574192235 -34703977 -586064393 884799767 1983216991 -1046635524 588163976 849904161 633781020 -1124470340 -1342135849 1367903736
REM
CELL 1.54180   50.00000   50.00000   50.00000   90.00000   90.00000   90.00000
LATT -1
SFAC C  
C      1  0.4787720000000  0.4756260000000  0.5252360000000 1.0
C      1  0.5320600000000  0.4943240000000  0.5252360000000 1.0
C      1  0.4892220000000  0.5311240000000  0.5252360000000 1.0
C      1  0.5735850000000  0.4741840000000  0.4983530000000 1.0
C      1  0.4859020000000  0.5771550000000  0.4983520000000 1.0
C      1  0.4405670000000  0.4497340000000  0.4983520000000 1.0
C      1  0.4724670000000  0.4268510000000  0.4565640000000 1.0
C      1  0.5774520000000  0.5132510000000  0.4565640000000 1.0
C      1  0.4501350000000  0.5609710000000  0.4565640000000 1.0
C      1  0.4226210000000  0.5369650000000  0.5410470000000 1.0
C      1  0.5070140000000  0.4150270000000  0.5410470000000 1.0
C      1  0.5704190000000  0.5490820000000  0.5410470000000 1.0
C      1  0.5254170000000  0.4511240000000  0.5130180000000 1.0
C      1  0.5299560000000  0.5469710000000  0.5130180000000 1.0
C      1  0.4446810000000  0.5029780000000  0.5130180000000 1.0
C      1  0.4518150000000  0.4228280000000  0.5071380000000 1.0
C      1  0.5912620000000  0.4973780000000  0.5071380000000 1.0
C      1  0.4569770000000  0.5808680000000  0.5071380000000 1.0
C      1  0.4349300000000  0.5247000000000  0.5644830000000 1.0
C      1  0.5114810000000  0.4318190000000  0.5644830000000 1.0
C      1  0.5536430000000  0.5445550000000  0.5644830000000 1.0
C      1  0.4046470000000  0.4938190000000  0.4812480000000 1.0
C      1  0.5533660000000  0.4210330000000  0.4812480000000 1.0
C      1  0.5420410000000  0.5862210000000  0.4812480000000 1.0
C      1  0.5116770000000  0.5504030000000  0.5370530000000 1.0
C      1  0.4508480000000  0.4854330000000  0.5370530000000 1.0
C      1  0.5375280000000  0.4652380000000  0.5370530000000 1.0
C      1  0.5299970000000  0.4440770000000  0.4404260000000 1.0
C      1  0.5337690000000  0.5544610000000  0.4404260000000 1.0
C      1  0.4362880000000  0.5025360000000  0.4404260000000 1.0
C      1  0.5317880000000  0.4950940000000  0.4369240000000 1.0
C      1  0.4886920000000  0.5305040000000  0.4369240000000 1.0
C      1  0.4795740000000  0.4754760000000  0.4369240000000 1.0
C      1  0.4333180000000  0.5438020000000  0.4909560000000 1.0
C      1  0.4957450000000  0.4208720000000  0.4909560000000 1.0
C      1  0.5709920000000  0.5364000000000  0.4909560000000 1.0
C      1  0.5106510000000  0.5184440000000  0.5789910000000 1.0
C      1  0.4790380000000  0.5005230000000  0.5789910000000 1.0
C      1  0.5103650000000  0.4821060000000  0.5789910000000 1.0
C      1  0.5523370000000  0.4415730000000  0.4602800000000 1.0
C      1  0.5247680000000  0.5750600000000  0.4602800000000 1.0
C      1  0.4229490000000  0.4844410000000  0.4602800000000 1.0
C      1  0.4789870000000  0.5589390000000  0.4467770000000 1.0
C      1  0.4598010000000  0.4528540000000  0.4467770000000 1.0
C      1  0.5612670000000  0.4892810000000  0.4467770000000 1.0
C      1  0.4961660000000  0.5746350000000  0.4659930000000 1.0
C      1  0.4376180000000  0.4598830000000  0.4659930000000 1.0
C      1  0.5662700000000  0.4665550000000  0.4659930000000 1.0
C      1  0.4654040000000  0.5103360000000  0.4696470000000 1.0
C      1  0.5086840000000  0.4653930000000  0.4696470000000 1.0
C      1  0.5259660000000  0.5253450000000  0.4696470000000 1.0
C      1  0.5586170000000  0.5481460000000  0.5144550000000 1.0
C      1  0.4293330000000  0.5272120000000  0.5144550000000 1.0
C      1  0.5121040000000  0.4257160000000  0.5144550000000 1.0
C      1  0.4519400000000  0.5665390000000  0.5327470000000 1.0
C      1  0.4667420000000  0.4256310000000  0.5327470000000 1.0
C      1  0.5813710000000  0.5089040000000  0.5327470000000 1.0
C      1  0.4532720000000  0.5016900000000  0.5623170000000 1.0
C      1  0.5222370000000  0.4592090000000  0.5623170000000 1.0
C      1  0.5245440000000  0.5401750000000  0.5623170000000 1.0
C      1  0.4644020000000  0.5407560000000  0.5392320000000 1.0
C      1  0.4828410000000  0.4493140000000  0.5392320000000 1.0
C      1  0.5528120000000  0.5110040000000  0.5392320000000 1.0
C      1  0.5666640000000  0.4532690000000  0.5202160000000 1.0
C      1  0.5074760000000  0.5816190000000  0.5202160000000 1.0
C      1  0.4259150000000  0.4661860000000  0.5202150000000 1.0
C      1  0.4684780000000  0.5041450000000  0.4400330000000 1.0
C      1  0.5125080000000  0.4711500000000  0.4400330000000 1.0
C      1  0.5190680000000  0.5257790000000  0.4400330000000 1.0
C      1  0.5148290000000  0.5430280000000  0.4885350000000 1.0
C      1  0.4556590000000  0.4918490000000  0.4885350000000 1.0
C      1  0.5295660000000  0.4661960000000  0.4885350000000 1.0
C      1  0.5634510000000  0.4260490000000  0.5084850000000 1.0
C      1  0.5326550000000  0.5924460000000  0.5084850000000 1.0
C      1  0.4039490000000  0.4825780000000  0.5084850000000 1.0
C      1  0.5959690000000  0.5177920000000  0.4856050000000 1.0
C      1  0.4369440000000  0.5747370000000  0.4856050000000 1.0
C      1  0.4671410000000  0.4085440000000  0.4856050000000 1.0
C      1  0.4852490000000  0.5455180000000  0.4953540000000 1.0
C      1  0.4682930000000  0.4649870000000  0.4953540000000 1.0
C      1  0.5465130000000  0.4905680000000  0.4953540000000 1.0
C      1  0.4621410000000  0.5370230000000  0.4783260000000 1.0
C      1  0.4872030000000  0.4492230000000  0.4783260000000 1.0
C      1  0.5507100000000  0.5148270000000  0.4783260000000 1.0
C      1  0.5000180000000  0.5003580000000  0.5255420000000 1.0
END
