TITL C-862129-6180-149 2.88908885928724 125000 -252.717919545482 0 0 46 (S4) n - 1
REM
REM in /home/nfs/bkarasulu/CARBON/AIRSS/Generating-Clusters/TERSOFF/Higher-Symm/FIRE-HFTN
REM
REM
REM
REM
REM
REM ./C.cell (b20cbc046b6831c77cfcea5457e17084)
REM AIRSS Version 0.9.1 bugfix July 2018 build 013d7b7c2542+ Fri, 06 Jul 2018 19:26:36 +0100
REM compiler GCC version 9.2.1 20190827 (Red Hat 9.2.1-1)
REM options -cpp -mtune=generic -march=x86-64 -g -O0 -fpre-include=/usr/include/finclude/math-vector-fortran.h
REM seed 1010641951 -921498162 -1738928700 790906739 1519647129 -11894035 -302508701 -1456810964 488658207 2012325864 -774879873 -1714969069 200982503 100817946 -2122334179 1397948823 -119470927 1072639571 1617328381 -1844060158 2060475060 -234241074 2041818602 -615358993 -360947263 -2106038709 -1239740644 -176821621 -993572505 1446683470 454829523 1009518808 2133607895
REM
CELL 1.54180   50.00000   50.00000   50.00000   90.00000   90.00000   90.00000
LATT -1
SFAC C  
C      1  0.4842820000000  0.4507930000000  0.4354820000000 1.0
C      1  0.5640870000000  0.5492030000000  0.4831110000000 1.0
C      1  0.5164570000000  0.4508080000000  0.5629330000000 1.0
C      1  0.4366360000000  0.5491960000000  0.5152860000000 1.0
C      1  0.5467820000000  0.4925650000000  0.5613560000000 1.0
C      1  0.4382120000000  0.5074440000000  0.5456180000000 1.0
C      1  0.4539500000000  0.4925450000000  0.4370510000000 1.0
C      1  0.5625170000000  0.5074450000000  0.4527860000000 1.0
C      1  0.5480570000000  0.4830300000000  0.4461220000000 1.0
C      1  0.5534470000000  0.5169780000000  0.5468910000000 1.0
C      1  0.4526770000000  0.4830330000000  0.5522870000000 1.0
C      1  0.4472810000000  0.5169600000000  0.4515110000000 1.0
C      1  0.4949870000000  0.4364830000000  0.5489250000000 1.0
C      1  0.4506450000000  0.5635170000000  0.4938130000000 1.0
C      1  0.5057540000000  0.4364740000000  0.4494940000000 1.0
C      1  0.5500760000000  0.5635260000000  0.5045800000000 1.0
C      1  0.4886530000000  0.5442100000000  0.4530430000000 1.0
C      1  0.5465240000000  0.4557870000000  0.4874980000000 1.0
C      1  0.5120710000000  0.5442210000000  0.5453540000000 1.0
C      1  0.4542140000000  0.4557820000000  0.5109160000000 1.0
C      1  0.5409770000000  0.5252070000000  0.5215480000000 1.0
C      1  0.4780190000000  0.4748000000000  0.5398200000000 1.0
C      1  0.4597490000000  0.5251960000000  0.4768520000000 1.0
C      1  0.5227150000000  0.4747960000000  0.4585910000000 1.0
C      1  0.5017500000000  0.4923720000000  0.5403430000000 1.0
C      1  0.4592250000000  0.5076290000000  0.5005860000000 1.0
C      1  0.4989820000000  0.4923630000000  0.4580640000000 1.0
C      1  0.5415040000000  0.5076360000000  0.4978180000000 1.0
C      1  0.4499230000000  0.4793680000000  0.4941520000000 1.0
C      1  0.5054170000000  0.5206230000000  0.4487570000000 1.0
C      1  0.5508110000000  0.4793770000000  0.5042580000000 1.0
C      1  0.4953110000000  0.5206320000000  0.5496450000000 1.0
C      1  0.5241880000000  0.5521320000000  0.5182600000000 1.0
C      1  0.4813070000000  0.4478730000000  0.5230350000000 1.0
C      1  0.4765340000000  0.5521240000000  0.4801350000000 1.0
C      1  0.5194320000000  0.4478710000000  0.4753810000000 1.0
C      1  0.4884380000000  0.5181190000000  0.5083020000000 1.0
C      1  0.4912660000000  0.4818790000000  0.4872790000000 1.0
C      1  0.5122900000000  0.5181190000000  0.4901010000000 1.0
C      1  0.5094670000000  0.4818830000000  0.5111310000000 1.0
C      1  0.4792850000000  0.4791210000000  0.4405200000000 1.0
C      1  0.5590490000000  0.5208740000000  0.4781190000000 1.0
C      1  0.5214490000000  0.4791360000000  0.5578900000000 1.0
C      1  0.4416780000000  0.5208680000000  0.5202830000000 1.0
C      1  0.5003600000000  0.5610460000000  0.4991970000000 1.0
C      1  0.5003700000000  0.4389540000000  0.4992090000000 1.0
END
