TITL C-862507-1800-1325 -131563.827480938 125000 -1077.66771600836 0 0 191 (C1) n - 1
REM
REM in /home/nfs/bkarasulu/CARBON/AIRSS/Generating-Clusters/TERSOFF/Higher-Symm/FIRE-HFTN
REM
REM
REM
REM
REM
REM ./C.cell (b20cbc046b6831c77cfcea5457e17084)
REM AIRSS Version 0.9.1 bugfix July 2018 build 013d7b7c2542+ Fri, 06 Jul 2018 19:26:36 +0100
REM compiler GCC version 9.2.1 20190827 (Red Hat 9.2.1-1)
REM options -cpp -mtune=generic -march=x86-64 -g -O0 -fpre-include=/usr/include/finclude/math-vector-fortran.h
REM seed 181527450 -1000145166 1282461533 -267149944 -208241445 -399953956 1951514426 -456586297 -199343165 -425949150 -1282831017 -1072383154 1702066813 -798236762 1152821829 -1408784579 -321699715 1794926873 -1133198053 495953411 -1120065421 -807834945 1330524926 1464782102 -283602827 1377479131 1483743041 -1890794509 -2089382760 1764072379 203896908 108431022 -1660508962
REM
CELL 1.54180   50.00000   50.00000   50.00000   90.00000   90.00000   90.00000
LATT -1
SFAC C  
C      1  0.4290010000000  0.5244170000000  0.5403070000000 1.0
C      1  0.5008730000000  0.5240890000000  0.4185350000000 1.0
C      1  0.5697210000000  0.5235410000000  0.5414130000000 1.0
C      1  0.4292440000000  0.4758560000000  0.5403920000000 1.0
C      1  0.5007950000000  0.4759470000000  0.4186390000000 1.0
C      1  0.5697310000000  0.4764280000000  0.5414630000000 1.0
C      1  0.4133620000000  0.5908500000000  0.4896430000000 1.0
C      1  0.5511410000000  0.5923620000000  0.4322560000000 1.0
C      1  0.5350360000000  0.5922730000000  0.5775760000000 1.0
C      1  0.4125840000000  0.4096080000000  0.4895120000000 1.0
C      1  0.5512160000000  0.4077180000000  0.4324970000000 1.0
C      1  0.5354340000000  0.4075160000000  0.5773480000000 1.0
C      1  0.5179160000000  0.4841830000000  0.6142110000000 1.0
C      1  0.3920570000000  0.4844650000000  0.4576300000000 1.0
C      1  0.5899950000000  0.4843760000000  0.4270620000000 1.0
C      1  0.5179250000000  0.5154960000000  0.6141050000000 1.0
C      1  0.3921940000000  0.5155400000000  0.4578440000000 1.0
C      1  0.5901070000000  0.5157080000000  0.4270100000000 1.0
C      1  0.4760580000000  0.5833160000000  0.5710930000000 1.0
C      1  0.4506390000000  0.5823810000000  0.4463880000000 1.0
C      1  0.5728720000000  0.5812920000000  0.4857360000000 1.0
C      1  0.4762320000000  0.4162160000000  0.5712740000000 1.0
C      1  0.4505650000000  0.4175000000000  0.4472280000000 1.0
C      1  0.5727310000000  0.4188730000000  0.4857650000000 1.0
C      1  0.4048090000000  0.4692170000000  0.5762930000000 1.0
C      1  0.4820350000000  0.4683370000000  0.3798490000000 1.0
C      1  0.6139770000000  0.4697290000000  0.5438260000000 1.0
C      1  0.4047820000000  0.5309130000000  0.5762580000000 1.0
C      1  0.4820370000000  0.5315480000000  0.3797410000000 1.0
C      1  0.6138290000000  0.5305090000000  0.5439230000000 1.0
C      1  0.5103140000000  0.5473840000000  0.5779050000000 1.0
C      1  0.4277610000000  0.5457690000000  0.4702180000000 1.0
C      1  0.5620300000000  0.5465120000000  0.4523780000000 1.0
C      1  0.5104440000000  0.4522920000000  0.5780440000000 1.0
C      1  0.4276450000000  0.4545820000000  0.4703450000000 1.0
C      1  0.5618980000000  0.4536270000000  0.4525250000000 1.0
C      1  0.4260890000000  0.4088070000000  0.5151960000000 1.0
C      1  0.5222260000000  0.4049890000000  0.4311130000000 1.0
C      1  0.5514350000000  0.4065340000000  0.5529770000000 1.0
C      1  0.4268640000000  0.5917760000000  0.5153170000000 1.0
C      1  0.5221330000000  0.5950200000000  0.4309760000000 1.0
C      1  0.5510040000000  0.5934270000000  0.5532060000000 1.0
C      1  0.4670910000000  0.4735540000000  0.6016730000000 1.0
C      1  0.4292750000000  0.4736590000000  0.4208140000000 1.0
C      1  0.6050200000000  0.4741600000000  0.4771370000000 1.0
C      1  0.4670970000000  0.5260740000000  0.6017040000000 1.0
C      1  0.4292440000000  0.5260700000000  0.4207030000000 1.0
C      1  0.6050950000000  0.5260070000000  0.4770940000000 1.0
C      1  0.4689220000000  0.4468090000000  0.3955930000000 1.0
C      1  0.6081030000000  0.4479580000000  0.5245320000000 1.0
C      1  0.4244900000000  0.4474080000000  0.5802060000000 1.0
C      1  0.4687720000000  0.5529690000000  0.3955070000000 1.0
C      1  0.6078030000000  0.5521710000000  0.5245520000000 1.0
C      1  0.4247130000000  0.5524770000000  0.5802120000000 1.0
C      1  0.5359580000000  0.5907540000000  0.5282150000000 1.0
C      1  0.4558230000000  0.5898180000000  0.5146370000000 1.0
C      1  0.5084200000000  0.5924790000000  0.4567930000000 1.0
C      1  0.5363270000000  0.4093290000000  0.5279760000000 1.0
C      1  0.4550150000000  0.4107240000000  0.5146490000000 1.0
C      1  0.5083850000000  0.4075600000000  0.4568510000000 1.0
C      1  0.5099390000000  0.4579430000000  0.4680480000000 1.0
C      1  0.5211600000000  0.4588350000000  0.5257240000000 1.0
C      1  0.4677010000000  0.4602280000000  0.5075230000000 1.0
C      1  0.5101170000000  0.5421040000000  0.4679860000000 1.0
C      1  0.5212940000000  0.5413530000000  0.5255190000000 1.0
C      1  0.4674070000000  0.5402470000000  0.5072480000000 1.0
C      1  0.5127620000000  0.4295160000000  0.5271920000000 1.0
C      1  0.4691330000000  0.4315500000000  0.4976970000000 1.0
C      1  0.5167720000000  0.4293720000000  0.4758520000000 1.0
C      1  0.5126910000000  0.5706310000000  0.5271550000000 1.0
C      1  0.4695550000000  0.5689510000000  0.4975580000000 1.0
C      1  0.5169670000000  0.5706800000000  0.4757910000000 1.0
C      1  0.5721130000000  0.4724590000000  0.5130970000000 1.0
C      1  0.4517280000000  0.4700010000000  0.5575890000000 1.0
C      1  0.4746830000000  0.4705700000000  0.4297430000000 1.0
C      1  0.5722900000000  0.5277750000000  0.5130970000000 1.0
C      1  0.4516700000000  0.5297820000000  0.5573610000000 1.0
C      1  0.4747770000000  0.5293270000000  0.4296970000000 1.0
C      1  0.4263640000000  0.5361770000000  0.5148590000000 1.0
C      1  0.5241220000000  0.5360440000000  0.4290070000000 1.0
C      1  0.5491250000000  0.5356600000000  0.5563260000000 1.0
C      1  0.4265980000000  0.4642000000000  0.5148750000000 1.0
C      1  0.5240790000000  0.4640700000000  0.4291340000000 1.0
C      1  0.5492360000000  0.4641640000000  0.5563840000000 1.0
C      1  0.3858430000000  0.4722750000000  0.5229760000000 1.0
C      1  0.5376320000000  0.4714940000000  0.3900940000000 1.0
C      1  0.5768420000000  0.4715230000000  0.5871560000000 1.0
C      1  0.3859540000000  0.5279100000000  0.5228120000000 1.0
C      1  0.5376770000000  0.5284610000000  0.3899980000000 1.0
C      1  0.5766860000000  0.5283940000000  0.5871610000000 1.0
C      1  0.5473270000000  0.4843120000000  0.5957710000000 1.0
C      1  0.3936710000000  0.4845140000000  0.4925920000000 1.0
C      1  0.5592560000000  0.4844880000000  0.4114410000000 1.0
C      1  0.5472590000000  0.5154450000000  0.5956970000000 1.0
C      1  0.3937830000000  0.5156080000000  0.4925770000000 1.0
C      1  0.5593140000000  0.5155290000000  0.4113780000000 1.0
C      1  0.5099150000000  0.5844760000000  0.4056030000000 1.0
C      1  0.5788630000000  0.5830620000000  0.5555380000000 1.0
C      1  0.4114610000000  0.5831080000000  0.5393630000000 1.0
C      1  0.5100990000000  0.4153660000000  0.4056360000000 1.0
C      1  0.5792760000000  0.4169840000000  0.5554740000000 1.0
C      1  0.4106950000000  0.4170730000000  0.5393440000000 1.0
C      1  0.4862470000000  0.6152520000000  0.4658020000000 1.0
C      1  0.5396510000000  0.6164830000000  0.5040290000000 1.0
C      1  0.4711870000000  0.6116640000000  0.5283970000000 1.0
C      1  0.4865970000000  0.3846310000000  0.4658720000000 1.0
C      1  0.5396910000000  0.3830510000000  0.5034800000000 1.0
C      1  0.4700570000000  0.3890940000000  0.5282400000000 1.0
C      1  0.4492550000000  0.4495970000000  0.5977500000000 1.0
C      1  0.4417500000000  0.4492690000000  0.4085260000000 1.0
C      1  0.6106660000000  0.4504860000000  0.4943670000000 1.0
C      1  0.4493090000000  0.5500590000000  0.5979240000000 1.0
C      1  0.4414670000000  0.5503850000000  0.4081620000000 1.0
C      1  0.6107200000000  0.5496540000000  0.4943960000000 1.0
C      1  0.4623550000000  0.3910230000000  0.4497090000000 1.0
C      1  0.5667260000000  0.3961700000000  0.5021560000000 1.0
C      1  0.4653010000000  0.3931750000000  0.5572820000000 1.0
C      1  0.4639010000000  0.6081590000000  0.4472350000000 1.0
C      1  0.5667600000000  0.6037760000000  0.5024130000000 1.0
C      1  0.4650290000000  0.6063500000000  0.5571690000000 1.0
C      1  0.5263520000000  0.4817470000000  0.5674540000000 1.0
C      1  0.4287160000000  0.4821690000000  0.4899770000000 1.0
C      1  0.5447600000000  0.4820130000000  0.4433410000000 1.0
C      1  0.5263100000000  0.5179320000000  0.5673670000000 1.0
C      1  0.4287050000000  0.5182830000000  0.4899590000000 1.0
C      1  0.5448260000000  0.5181730000000  0.4432510000000 1.0
C      1  0.5507620000000  0.5364880000000  0.4960200000000 1.0
C      1  0.4778580000000  0.5374040000000  0.5477880000000 1.0
C      1  0.4699670000000  0.5360590000000  0.4574010000000 1.0
C      1  0.5505380000000  0.4636500000000  0.4961280000000 1.0
C      1  0.4779910000000  0.4624090000000  0.5481380000000 1.0
C      1  0.4697990000000  0.4641070000000  0.4575100000000 1.0
C      1  0.5362600000000  0.6284670000000  0.4761950000000 1.0
C      1  0.5003450000000  0.6121810000000  0.5351980000000 1.0
C      1  0.4722940000000  0.6378580000000  0.4838240000000 1.0
C      1  0.5367070000000  0.3701330000000  0.4758390000000 1.0
C      1  0.4992750000000  0.3901430000000  0.5327760000000 1.0
C      1  0.4771600000000  0.3609630000000  0.4857070000000 1.0
C      1  0.4662260000000  0.3646760000000  0.5123760000000 1.0
C      1  0.5115770000000  0.3660270000000  0.4621750000000 1.0
C      1  0.5180600000000  0.3721010000000  0.5214550000000 1.0
C      1  0.4665130000000  0.6358360000000  0.5122740000000 1.0
C      1  0.5109370000000  0.6338470000000  0.4635810000000 1.0
C      1  0.5196090000000  0.6290300000000  0.5227510000000 1.0
C      1  0.4550770000000  0.4394380000000  0.4676590000000 1.0
C      1  0.5513130000000  0.4393290000000  0.4782530000000 1.0
C      1  0.4933090000000  0.4374000000000  0.5564930000000 1.0
C      1  0.4552380000000  0.5607950000000  0.4672850000000 1.0
C      1  0.5515290000000  0.5608040000000  0.4781280000000 1.0
C      1  0.4932070000000  0.5622720000000  0.5562990000000 1.0
C      1  0.5335200000000  0.4345180000000  0.5883190000000 1.0
C      1  0.4056630000000  0.4371840000000  0.4834940000000 1.0
C      1  0.5597340000000  0.4351530000000  0.4278470000000 1.0
C      1  0.5332850000000  0.5651920000000  0.5883200000000 1.0
C      1  0.4060230000000  0.5634030000000  0.4834800000000 1.0
C      1  0.5597780000000  0.5649490000000  0.4276550000000 1.0
C      1  0.4644000000000  0.5748610000000  0.5961050000000 1.0
C      1  0.4355710000000  0.5747340000000  0.4229320000000 1.0
C      1  0.6003720000000  0.5737660000000  0.4821860000000 1.0
C      1  0.4642550000000  0.4247380000000  0.5961070000000 1.0
C      1  0.4360270000000  0.4248220000000  0.4232940000000 1.0
C      1  0.6002150000000  0.4264290000000  0.4821580000000 1.0
C      1  0.4014330000000  0.5531470000000  0.5117040000000 1.0
C      1  0.5385560000000  0.5539590000000  0.4090220000000 1.0
C      1  0.5595350000000  0.5536670000000  0.5784800000000 1.0
C      1  0.4016650000000  0.4474010000000  0.5117390000000 1.0
C      1  0.5385050000000  0.4460840000000  0.4092160000000 1.0
C      1  0.5597500000000  0.4461770000000  0.5785030000000 1.0
C      1  0.5885260000000  0.4688900000000  0.4524750000000 1.0
C      1  0.4968300000000  0.4681930000000  0.6005400000000 1.0
C      1  0.4152100000000  0.4690700000000  0.4468860000000 1.0
C      1  0.5886700000000  0.5312910000000  0.4523750000000 1.0
C      1  0.4968030000000  0.5313930000000  0.6004060000000 1.0
C      1  0.4152700000000  0.5308800000000  0.4468950000000 1.0
C      1  0.5974030000000  0.5786820000000  0.5334820000000 1.0
C      1  0.4224660000000  0.5788130000000  0.5661180000000 1.0
C      1  0.4815600000000  0.5796730000000  0.4004920000000 1.0
C      1  0.5980000000000  0.4213980000000  0.5335850000000 1.0
C      1  0.4217950000000  0.4211410000000  0.5661050000000 1.0
C      1  0.4817720000000  0.4201060000000  0.4003420000000 1.0
C      1  0.5926740000000  0.5151940000000  0.5594760000000 1.0
C      1  0.4017730000000  0.5151710000000  0.5503890000000 1.0
C      1  0.5058230000000  0.5152200000000  0.3897220000000 1.0
C      1  0.5927330000000  0.4848530000000  0.5594260000000 1.0
C      1  0.4018710000000  0.4849450000000  0.5503990000000 1.0
C      1  0.5058060000000  0.4847170000000  0.3897860000000 1.0
C      1  0.4291110000000  0.4998200000000  0.4072090000000 1.0
C      1  0.4561800000000  0.4998100000000  0.6096440000000 1.0
C      1  0.6175750000000  0.5000680000000  0.4821460000000 1.0
C      1  0.4993780000000  0.4269980000000  0.5003060000000 1.0
C      1  0.4995940000000  0.5730940000000  0.5002050000000 1.0
END
