TITL C-862132-7359-144 88.188373083916 125000 -974.022684894536 0 0 175 (C1) n - 1
REM
REM in /home/nfs/bkarasulu/CARBON/AIRSS/Generating-Clusters/TERSOFF/Higher-Symm/FIRE-HFTN
REM
REM
REM
REM
REM
REM ./C.cell (b20cbc046b6831c77cfcea5457e17084)
REM AIRSS Version 0.9.1 bugfix July 2018 build 013d7b7c2542+ Fri, 06 Jul 2018 19:26:36 +0100
REM compiler GCC version 9.2.1 20190827 (Red Hat 9.2.1-1)
REM options -cpp -mtune=generic -march=x86-64 -g -O0 -fpre-include=/usr/include/finclude/math-vector-fortran.h
REM seed -1071837574 -1724191609 1407966626 -1437717110 -1842044138 5155020 -574801652 1926148988 646759576 868259726 2073941769 -1627735174 902598043 -997434179 308597864 198649204 2031162576 -934343212 -337485864 1654972198 -281420815 1173860959 -1619254069 -84595998 759002496 -651329176 307134605 -10336943 -771707588 738681735 -1009601330 321425246 1167486177
REM
CELL 1.54180   50.00000   50.00000   50.00000   90.00000   90.00000   90.00000
LATT -1
SFAC C  
C      1  0.4571700000000  0.5267310000000  0.4325740000000 1.0
C      1  0.5445350000000  0.5256760000000  0.5702250000000 1.0
C      1  0.5440410000000  0.5271380000000  0.4320890000000 1.0
C      1  0.4576220000000  0.5252790000000  0.5686560000000 1.0
C      1  0.5755290000000  0.5613630000000  0.5628480000000 1.0
C      1  0.4243440000000  0.5631920000000  0.4397640000000 1.0
C      1  0.4247600000000  0.5628300000000  0.5625430000000 1.0
C      1  0.5764780000000  0.5634300000000  0.4397820000000 1.0
C      1  0.3901040000000  0.5253160000000  0.5616750000000 1.0
C      1  0.6108330000000  0.5259260000000  0.4405940000000 1.0
C      1  0.6106140000000  0.5244930000000  0.5613720000000 1.0
C      1  0.3901460000000  0.5253870000000  0.4406300000000 1.0
C      1  0.4364650000000  0.4085060000000  0.5347470000000 1.0
C      1  0.5673470000000  0.4093930000000  0.4639140000000 1.0
C      1  0.5667900000000  0.4083840000000  0.5358230000000 1.0
C      1  0.4371650000000  0.4090320000000  0.4652620000000 1.0
C      1  0.4792970000000  0.5283400000000  0.5269660000000 1.0
C      1  0.5213670000000  0.5293070000000  0.4742750000000 1.0
C      1  0.5212100000000  0.5286300000000  0.5267070000000 1.0
C      1  0.4794490000000  0.5290580000000  0.4742390000000 1.0
C      1  0.5484050000000  0.5629600000000  0.5514120000000 1.0
C      1  0.4519040000000  0.5643150000000  0.4504050000000 1.0
C      1  0.4522450000000  0.5632250000000  0.5516540000000 1.0
C      1  0.5489440000000  0.5645250000000  0.4504270000000 1.0
C      1  0.5540000000000  0.6048840000000  0.5251970000000 1.0
C      1  0.4396430000000  0.6036420000000  0.4721280000000 1.0
C      1  0.4468090000000  0.6046980000000  0.5251650000000 1.0
C      1  0.5611960000000  0.6037810000000  0.4721880000000 1.0
C      1  0.4019590000000  0.5494330000000  0.5499650000000 1.0
C      1  0.5988550000000  0.5497050000000  0.4526460000000 1.0
C      1  0.5983740000000  0.5485000000000  0.5499490000000 1.0
C      1  0.4020060000000  0.5493150000000  0.4525870000000 1.0
C      1  0.4358400000000  0.4581520000000  0.5554600000000 1.0
C      1  0.5644290000000  0.4597980000000  0.4458560000000 1.0
C      1  0.5641350000000  0.4584880000000  0.5547950000000 1.0
C      1  0.4366620000000  0.4591500000000  0.4457270000000 1.0
C      1  0.4187050000000  0.4552000000000  0.4694650000000 1.0
C      1  0.5828900000000  0.4551490000000  0.5317000000000 1.0
C      1  0.5830490000000  0.4560870000000  0.4690530000000 1.0
C      1  0.4182510000000  0.4548410000000  0.5312630000000 1.0
C      1  0.5445860000000  0.5005810000000  0.4467850000000 1.0
C      1  0.4567460000000  0.4986830000000  0.5544960000000 1.0
C      1  0.4566020000000  0.4999970000000  0.4469030000000 1.0
C      1  0.5447210000000  0.4995790000000  0.5545050000000 1.0
C      1  0.5278860000000  0.5818050000000  0.4371040000000 1.0
C      1  0.4742650000000  0.5802380000000  0.5638350000000 1.0
C      1  0.4729220000000  0.5817050000000  0.4371770000000 1.0
C      1  0.5267250000000  0.5801210000000  0.5636880000000 1.0
C      1  0.4745890000000  0.5959830000000  0.5378280000000 1.0
C      1  0.5301690000000  0.6052540000000  0.4600860000000 1.0
C      1  0.5263170000000  0.5959920000000  0.5378280000000 1.0
C      1  0.4706630000000  0.6051840000000  0.4600690000000 1.0
C      1  0.4379380000000  0.3818680000000  0.5242400000000 1.0
C      1  0.5677490000000  0.3832550000000  0.4752740000000 1.0
C      1  0.5672420000000  0.3824890000000  0.5239220000000 1.0
C      1  0.4382090000000  0.3823100000000  0.4754510000000 1.0
C      1  0.4600620000000  0.5516720000000  0.4765700000000 1.0
C      1  0.5404380000000  0.5512220000000  0.5249130000000 1.0
C      1  0.5408090000000  0.5518570000000  0.4765460000000 1.0
C      1  0.4602650000000  0.5512340000000  0.5251570000000 1.0
C      1  0.4601400000000  0.4437620000000  0.5576360000000 1.0
C      1  0.5406190000000  0.4441980000000  0.4433060000000 1.0
C      1  0.5402580000000  0.4428990000000  0.5569330000000 1.0
C      1  0.4609680000000  0.4447570000000  0.4433470000000 1.0
C      1  0.5425510000000  0.4801330000000  0.4069610000000 1.0
C      1  0.4586070000000  0.4786510000000  0.5940610000000 1.0
C      1  0.4587230000000  0.4799980000000  0.4070620000000 1.0
C      1  0.5421830000000  0.4781710000000  0.5939500000000 1.0
C      1  0.4129310000000  0.4255900000000  0.4663100000000 1.0
C      1  0.5900250000000  0.4261240000000  0.5352010000000 1.0
C      1  0.5905170000000  0.4271990000000  0.4650170000000 1.0
C      1  0.4121680000000  0.4250880000000  0.5336310000000 1.0
C      1  0.4361650000000  0.4827740000000  0.5700920000000 1.0
C      1  0.5644150000000  0.4843180000000  0.4309530000000 1.0
C      1  0.5641940000000  0.4826790000000  0.5701880000000 1.0
C      1  0.4365220000000  0.4838050000000  0.4311160000000 1.0
C      1  0.4617570000000  0.4264460000000  0.4668210000000 1.0
C      1  0.5412900000000  0.4244310000000  0.5330910000000 1.0
C      1  0.5418250000000  0.4253100000000  0.4667310000000 1.0
C      1  0.4608030000000  0.4260900000000  0.5338460000000 1.0
C      1  0.5726650000000  0.5228020000000  0.5792380000000 1.0
C      1  0.4287260000000  0.5244710000000  0.4241020000000 1.0
C      1  0.4291820000000  0.5236190000000  0.5769220000000 1.0
C      1  0.5724530000000  0.5248790000000  0.4236110000000 1.0
C      1  0.5294460000000  0.5040090000000  0.3942980000000 1.0
C      1  0.4715820000000  0.5024140000000  0.6068220000000 1.0
C      1  0.4715130000000  0.5039960000000  0.3944310000000 1.0
C      1  0.5290460000000  0.5018620000000  0.6069850000000 1.0
C      1  0.3975490000000  0.5534990000000  0.5222780000000 1.0
C      1  0.6032030000000  0.5536370000000  0.4804170000000 1.0
C      1  0.6030570000000  0.5533840000000  0.5223910000000 1.0
C      1  0.3976450000000  0.5532720000000  0.4803100000000 1.0
C      1  0.4000950000000  0.4789490000000  0.5411030000000 1.0
C      1  0.6008490000000  0.4802030000000  0.4595420000000 1.0
C      1  0.6009320000000  0.4788510000000  0.5419140000000 1.0
C      1  0.4002530000000  0.4790050000000  0.4597130000000 1.0
C      1  0.5297990000000  0.4877740000000  0.5307520000000 1.0
C      1  0.4717240000000  0.4880060000000  0.4704030000000 1.0
C      1  0.4716980000000  0.4872460000000  0.5307020000000 1.0
C      1  0.5296810000000  0.4883950000000  0.4702640000000 1.0
C      1  0.4074850000000  0.4992030000000  0.5667300000000 1.0
C      1  0.5935720000000  0.5002420000000  0.4338910000000 1.0
C      1  0.5936330000000  0.4985360000000  0.5680240000000 1.0
C      1  0.4074990000000  0.4996320000000  0.4343130000000 1.0
C      1  0.4749620000000  0.5281250000000  0.5922240000000 1.0
C      1  0.5262670000000  0.5299800000000  0.4087610000000 1.0
C      1  0.5262520000000  0.5282370000000  0.5931100000000 1.0
C      1  0.4747370000000  0.5297800000000  0.4090910000000 1.0
C      1  0.4766670000000  0.4571620000000  0.5800450000000 1.0
C      1  0.5245030000000  0.4581760000000  0.4203820000000 1.0
C      1  0.5241470000000  0.4564960000000  0.5801280000000 1.0
C      1  0.4770340000000  0.4583540000000  0.4205640000000 1.0
C      1  0.5260770000000  0.6100270000000  0.4943330000000 1.0
C      1  0.4747210000000  0.6099710000000  0.4943160000000 1.0
C      1  0.4934080000000  0.3885350000000  0.4454180000000 1.0
C      1  0.5034620000000  0.3858350000000  0.5519530000000 1.0
C      1  0.5706510000000  0.5135110000000  0.5007330000000 1.0
C      1  0.4306550000000  0.5134690000000  0.5009020000000 1.0
C      1  0.5004470000000  0.5445640000000  0.4115740000000 1.0
C      1  0.5005570000000  0.5429200000000  0.5900330000000 1.0
C      1  0.5301790000000  0.4018370000000  0.4995090000000 1.0
C      1  0.4728980000000  0.4040060000000  0.5003920000000 1.0
C      1  0.5001580000000  0.4418130000000  0.5944620000000 1.0
C      1  0.5006290000000  0.4434780000000  0.4058110000000 1.0
C      1  0.5008450000000  0.4707280000000  0.4621650000000 1.0
C      1  0.5008760000000  0.4696700000000  0.5384740000000 1.0
C      1  0.5005570000000  0.5689650000000  0.5747940000000 1.0
C      1  0.5004170000000  0.5705410000000  0.4269080000000 1.0
C      1  0.4698120000000  0.5742900000000  0.5004890000000 1.0
C      1  0.5310820000000  0.5743350000000  0.5004450000000 1.0
C      1  0.4184110000000  0.4834570000000  0.5005290000000 1.0
C      1  0.5833480000000  0.4835780000000  0.5007960000000 1.0
C      1  0.5005200000000  0.5256770000000  0.4502250000000 1.0
C      1  0.5005690000000  0.5244800000000  0.5507840000000 1.0
C      1  0.3767540000000  0.5078130000000  0.5011700000000 1.0
C      1  0.6246860000000  0.5084480000000  0.5011080000000 1.0
C      1  0.4324730000000  0.5934390000000  0.4997820000000 1.0
C      1  0.5683530000000  0.5936200000000  0.4998740000000 1.0
C      1  0.5605520000000  0.5444390000000  0.5008660000000 1.0
C      1  0.4403600000000  0.5443880000000  0.5009510000000 1.0
C      1  0.5007370000000  0.5038320000000  0.4293300000000 1.0
C      1  0.5010300000000  0.5025580000000  0.5715830000000 1.0
C      1  0.3977180000000  0.5284430000000  0.5012670000000 1.0
C      1  0.6034500000000  0.5287740000000  0.5011270000000 1.0
C      1  0.5007640000000  0.4751550000000  0.4333770000000 1.0
C      1  0.5006140000000  0.4738490000000  0.5673190000000 1.0
C      1  0.3891740000000  0.4817230000000  0.5006430000000 1.0
C      1  0.6125970000000  0.4822140000000  0.5009770000000 1.0
C      1  0.5004500000000  0.5918370000000  0.5232120000000 1.0
C      1  0.5004290000000  0.5905260000000  0.4675950000000 1.0
C      1  0.5013090000000  0.4361340000000  0.5382200000000 1.0
C      1  0.5019600000000  0.4373130000000  0.4614370000000 1.0
C      1  0.4370090000000  0.4565850000000  0.5005040000000 1.0
C      1  0.5651260000000  0.4564290000000  0.5003440000000 1.0
C      1  0.5815060000000  0.5665150000000  0.5013470000000 1.0
C      1  0.4192840000000  0.5663270000000  0.5012400000000 1.0
C      1  0.4685630000000  0.4381210000000  0.5004880000000 1.0
C      1  0.5340840000000  0.4371500000000  0.5000200000000 1.0
C      1  0.5021060000000  0.4055770000000  0.5305210000000 1.0
C      1  0.4988540000000  0.4067660000000  0.4675000000000 1.0
C      1  0.4596990000000  0.4948740000000  0.5006700000000 1.0
C      1  0.5418340000000  0.4951040000000  0.5005800000000 1.0
C      1  0.5525040000000  0.3819180000000  0.4994320000000 1.0
C      1  0.4534710000000  0.3779200000000  0.4998500000000 1.0
C      1  0.4845590000000  0.3637470000000  0.4990000000000 1.0
C      1  0.5003770000000  0.6256850000000  0.4985460000000 1.0
C      1  0.4926080000000  0.3406520000000  0.5144810000000 1.0
C      1  0.5014800000000  0.3938300000000  0.4982540000000 1.0
C      1  0.5011160000000  0.6758140000000  0.4874700000000 1.0
C      1  0.5003420000000  0.6536780000000  0.5061020000000 1.0
C      1  0.5005880000000  0.5184140000000  0.5004990000000 1.0
C      1  0.4971890000000  0.3142370000000  0.5035700000000 1.0
C      1  0.5007920000000  0.4865030000000  0.5005500000000 1.0
C      1  0.5004370000000  0.5768240000000  0.4949170000000 1.0
C      1  0.5015360000000  0.4531690000000  0.5000830000000 1.0
END
