TITL C-862130-1496-1106 0.052431478119049 125000 -478.425738435525 0 0 92 (C1) n - 1
REM
REM in /home/nfs/bkarasulu/CARBON/AIRSS/Generating-Clusters/TERSOFF/Higher-Symm/FIRE-HFTN
REM
REM
REM
REM
REM
REM ./C.cell (b20cbc046b6831c77cfcea5457e17084)
REM AIRSS Version 0.9.1 bugfix July 2018 build 013d7b7c2542+ Fri, 06 Jul 2018 19:26:36 +0100
REM compiler GCC version 9.2.1 20190827 (Red Hat 9.2.1-1)
REM options -cpp -mtune=generic -march=x86-64 -g -O0 -fpre-include=/usr/include/finclude/math-vector-fortran.h
REM seed 426081169 1349552033 -1131660904 -270627195 -524633010 783811302 -1029795800 1465014556 -110007338 1862631453 -492989828 -261467234 1966330927 2038457752 473200048 -521460066 -452273476 -811624026 606173648 -802769767 1709596616 1567992229 1556946099 -635929788 -1988164306 261265186 1830992806 1530602031 1785977117 1793401142 -1344547001 -1025036637 1756761869
REM
CELL 1.54180   50.00000   50.00000   50.00000   90.00000   90.00000   90.00000
LATT -1
SFAC C  
C      1  0.4866870000000  0.4703810000000  0.4651810000000 1.0
C      1  0.4647800000000  0.4721180000000  0.5018330000000 1.0
C      1  0.4916500000000  0.4721370000000  0.5340900000000 1.0
C      1  0.5307180000000  0.4723020000000  0.5186920000000 1.0
C      1  0.5276120000000  0.4730160000000  0.4755290000000 1.0
C      1  0.4626580000000  0.5445550000000  0.5405150000000 1.0
C      1  0.5274670000000  0.5426380000000  0.5502030000000 1.0
C      1  0.5547810000000  0.5424390000000  0.4887100000000 1.0
C      1  0.5015540000000  0.5422390000000  0.4440260000000 1.0
C      1  0.4488510000000  0.5449630000000  0.4801310000000 1.0
C      1  0.4936690000000  0.4489430000000  0.5745270000000 1.0
C      1  0.5704570000000  0.4499960000000  0.5277540000000 1.0
C      1  0.5516660000000  0.4487590000000  0.4408100000000 1.0
C      1  0.4632540000000  0.4491400000000  0.4308150000000 1.0
C      1  0.4271360000000  0.4508110000000  0.5142870000000 1.0
C      1  0.5387470000000  0.4900200000000  0.5871380000000 1.0
C      1  0.5968790000000  0.4917080000000  0.4899230000000 1.0
C      1  0.5247450000000  0.4948760000000  0.4052970000000 1.0
C      1  0.4195430000000  0.4896600000000  0.4472270000000 1.0
C      1  0.4288620000000  0.4899530000000  0.5618980000000 1.0
C      1  0.4947780000000  0.5030230000000  0.5429850000000 1.0
C      1  0.5384360000000  0.5028630000000  0.5162840000000 1.0
C      1  0.5261210000000  0.5031170000000  0.4660740000000 1.0
C      1  0.4730430000000  0.5027610000000  0.4575140000000 1.0
C      1  0.4552990000000  0.5038280000000  0.5080930000000 1.0
C      1  0.5522630000000  0.5467730000000  0.5303770000000 1.0
C      1  0.5489400000000  0.5439100000000  0.4571860000000 1.0
C      1  0.4731630000000  0.5494320000000  0.4406580000000 1.0
C      1  0.4386390000000  0.5520220000000  0.5069510000000 1.0
C      1  0.4870370000000  0.5486430000000  0.5597170000000 1.0
C      1  0.5489810000000  0.4988540000000  0.4229990000000 1.0
C      1  0.4426230000000  0.4968380000000  0.4292060000000 1.0
C      1  0.4226590000000  0.4989760000000  0.5342570000000 1.0
C      1  0.5098320000000  0.4972970000000  0.5853520000000 1.0
C      1  0.5854090000000  0.4988720000000  0.5164120000000 1.0
C      1  0.4636800000000  0.4690200000000  0.5497830000000 1.0
C      1  0.5379480000000  0.4698640000000  0.5502500000000 1.0
C      1  0.5598850000000  0.4684940000000  0.4789420000000 1.0
C      1  0.5023650000000  0.4698680000000  0.4368770000000 1.0
C      1  0.4432200000000  0.4708570000000  0.4784110000000 1.0
C      1  0.4346280000000  0.5264270000000  0.5265460000000 1.0
C      1  0.5035550000000  0.5226100000000  0.5696490000000 1.0
C      1  0.5650010000000  0.5207780000000  0.5156750000000 1.0
C      1  0.5450730000000  0.5154680000000  0.4474860000000 1.0
C      1  0.4564490000000  0.5235200000000  0.4359320000000 1.0
C      1  0.5107670000000  0.4435750000000  0.4272930000000 1.0
C      1  0.4373020000000  0.4445240000000  0.4681140000000 1.0
C      1  0.4519530000000  0.4425490000000  0.5499510000000 1.0
C      1  0.5355810000000  0.4434580000000  0.5623640000000 1.0
C      1  0.5685460000000  0.4416830000000  0.4851700000000 1.0
C      1  0.5240470000000  0.4273610000000  0.5403350000000 1.0
C      1  0.5437720000000  0.4257510000000  0.4899240000000 1.0
C      1  0.5059850000000  0.4262190000000  0.4513570000000 1.0
C      1  0.4585340000000  0.4257900000000  0.4780120000000 1.0
C      1  0.4693320000000  0.4259920000000  0.5322190000000 1.0
C      1  0.4605800000000  0.5859720000000  0.4913820000000 1.0
C      1  0.4810790000000  0.5866870000000  0.5395080000000 1.0
C      1  0.5315840000000  0.5845910000000  0.5312400000000 1.0
C      1  0.5354220000000  0.5816470000000  0.4788880000000 1.0
C      1  0.4944460000000  0.5811760000000  0.4580720000000 1.0
C      1  0.4773540000000  0.4395160000000  0.4565510000000 1.0
C      1  0.4560090000000  0.4398730000000  0.5073870000000 1.0
C      1  0.4959470000000  0.4400570000000  0.5446950000000 1.0
C      1  0.5420710000000  0.4404460000000  0.5177450000000 1.0
C      1  0.5315720000000  0.4407060000000  0.4636460000000 1.0
C      1  0.4581500000000  0.4871820000000  0.5736020000000 1.0
C      1  0.5586440000000  0.4886200000000  0.5621400000000 1.0
C      1  0.5795560000000  0.4860790000000  0.4645510000000 1.0
C      1  0.4951950000000  0.4899150000000  0.4159100000000 1.0
C      1  0.4203640000000  0.4907570000000  0.4793230000000 1.0
C      1  0.5079260000000  0.5718920000000  0.5483650000000 1.0
C      1  0.5461600000000  0.5701600000000  0.5066910000000 1.0
C      1  0.5226330000000  0.5637940000000  0.4549380000000 1.0
C      1  0.4646040000000  0.5683340000000  0.4644660000000 1.0
C      1  0.4586150000000  0.5739420000000  0.5210730000000 1.0
C      1  0.4185420000000  0.4794660000000  0.5112640000000 1.0
C      1  0.4876120000000  0.4767310000000  0.5834160000000 1.0
C      1  0.5769150000000  0.4779390000000  0.5368380000000 1.0
C      1  0.5641840000000  0.4759950000000  0.4377750000000 1.0
C      1  0.4642260000000  0.4771730000000  0.4206960000000 1.0
C      1  0.4761670000000  0.5206150000000  0.5252840000000 1.0
C      1  0.5178270000000  0.5202160000000  0.5303160000000 1.0
C      1  0.5313500000000  0.5199590000000  0.4906020000000 1.0
C      1  0.5013050000000  0.5147030000000  0.4537820000000 1.0
C      1  0.4572260000000  0.5164030000000  0.4805500000000 1.0
C      1  0.5005720000000  0.4691600000000  0.4992160000000 1.0
C      1  0.5014850000000  0.5305560000000  0.5039910000000 1.0
C      1  0.4941570000000  0.5007870000000  0.4930410000000 1.0
C      1  0.5008460000000  0.5822330000000  0.5027200000000 1.0
C      1  0.5012530000000  0.4135900000000  0.5079580000000 1.0
C      1  0.5003750000000  0.4373370000000  0.4914560000000 1.0
C      1  0.4939730000000  0.5564260000000  0.4919980000000 1.0
END
