TITL C-862502-1143-1342 0.000423082559789775 125000 -550.452374404186 0 0 104 (C1) n - 1
REM
REM in /home/nfs/bkarasulu/CARBON/AIRSS/Generating-Clusters/TERSOFF/Higher-Symm/FIRE-HFTN
REM
REM
REM
REM
REM
REM ./C.cell (b20cbc046b6831c77cfcea5457e17084)
REM AIRSS Version 0.9.1 bugfix July 2018 build 013d7b7c2542+ Fri, 06 Jul 2018 19:26:36 +0100
REM compiler GCC version 9.2.1 20190827 (Red Hat 9.2.1-1)
REM options -cpp -mtune=generic -march=x86-64 -g -O0 -fpre-include=/usr/include/finclude/math-vector-fortran.h
REM seed 1654461322 -122207451 1951857776 1930033606 -1470019904 -1996678382 -290755731 683738880 1108966166 -1871353381 1021690932 -1211706093 1856640509 236575974 765680738 -1625772923 1445795335 2134359926 1030678738 583894066 -1104790488 -164257661 940714948 -151382405 87766836 -1838052642 62029834 -17749249 -1269048773 1941260201 -931715207 2061583017 1339894741
REM
CELL 1.54180   50.00000   50.00000   50.00000   90.00000   90.00000   90.00000
LATT -1
SFAC C  
C      1  0.4836610000000  0.5849190000000  0.5297500000000 1.0
C      1  0.5246050000000  0.5928860000000  0.5256490000000 1.0
C      1  0.5321980000000  0.5907620000000  0.4844750000000 1.0
C      1  0.4952210000000  0.5919590000000  0.4648090000000 1.0
C      1  0.4646100000000  0.5935250000000  0.4934120000000 1.0
C      1  0.5647210000000  0.5199700000000  0.5595550000000 1.0
C      1  0.5795340000000  0.5191690000000  0.4573970000000 1.0
C      1  0.4851800000000  0.5192600000000  0.4114680000000 1.0
C      1  0.4140610000000  0.5206190000000  0.4897000000000 1.0
C      1  0.4575790000000  0.5188320000000  0.5808670000000 1.0
C      1  0.5518170000000  0.4998960000000  0.5036080000000 1.0
C      1  0.5210000000000  0.5000750000000  0.4515250000000 1.0
C      1  0.4621850000000  0.5007760000000  0.4661520000000 1.0
C      1  0.4566780000000  0.5002940000000  0.5274150000000 1.0
C      1  0.5115890000000  0.5003280000000  0.5501320000000 1.0
C      1  0.4301450000000  0.4481180000000  0.5348820000000 1.0
C      1  0.5116070000000  0.4506010000000  0.5738860000000 1.0
C      1  0.5756490000000  0.4494670000000  0.5121800000000 1.0
C      1  0.5355050000000  0.4488250000000  0.4320090000000 1.0
C      1  0.4479120000000  0.4505860000000  0.4474910000000 1.0
C      1  0.5006190000000  0.4852380000000  0.4306400000000 1.0
C      1  0.4358320000000  0.4861780000000  0.4795800000000 1.0
C      1  0.4584140000000  0.4848730000000  0.5562120000000 1.0
C      1  0.5407530000000  0.4858520000000  0.5545900000000 1.0
C      1  0.5660670000000  0.4851520000000  0.4780160000000 1.0
C      1  0.4643860000000  0.5290620000000  0.4723820000000 1.0
C      1  0.4645080000000  0.5292350000000  0.5293030000000 1.0
C      1  0.5127830000000  0.5295950000000  0.5448790000000 1.0
C      1  0.5464160000000  0.5282550000000  0.4998060000000 1.0
C      1  0.5161030000000  0.5287470000000  0.4543620000000 1.0
C      1  0.5547710000000  0.5805980000000  0.5093700000000 1.0
C      1  0.5260310000000  0.5816470000000  0.4498780000000 1.0
C      1  0.4609830000000  0.5819140000000  0.4594500000000 1.0
C      1  0.4499330000000  0.5799670000000  0.5239250000000 1.0
C      1  0.5082150000000  0.5791250000000  0.5547290000000 1.0
C      1  0.5760650000000  0.5479530000000  0.4654730000000 1.0
C      1  0.4918770000000  0.5481550000000  0.4166110000000 1.0
C      1  0.4235170000000  0.5485540000000  0.4855230000000 1.0
C      1  0.4539580000000  0.5478720000000  0.5732660000000 1.0
C      1  0.5551220000000  0.5483750000000  0.5578560000000 1.0
C      1  0.4111430000000  0.4981900000000  0.4640250000000 1.0
C      1  0.4351040000000  0.4957270000000  0.5738810000000 1.0
C      1  0.5517960000000  0.4974490000000  0.5816490000000 1.0
C      1  0.5952340000000  0.4964510000000  0.4766220000000 1.0
C      1  0.5081140000000  0.4962760000000  0.4023010000000 1.0
C      1  0.4709820000000  0.4971930000000  0.4361370000000 1.0
C      1  0.4315440000000  0.4978990000000  0.5091680000000 1.0
C      1  0.4850820000000  0.4979700000000  0.5697120000000 1.0
C      1  0.5617790000000  0.4969060000000  0.5329380000000 1.0
C      1  0.5521670000000  0.4965910000000  0.4512180000000 1.0
C      1  0.4170960000000  0.4905390000000  0.4353300000000 1.0
C      1  0.4096050000000  0.4886600000000  0.5596440000000 1.0
C      1  0.5302710000000  0.4902400000000  0.6016160000000 1.0
C      1  0.6074530000000  0.4894340000000  0.5032740000000 1.0
C      1  0.5371720000000  0.4886890000000  0.3987820000000 1.0
C      1  0.5360700000000  0.4556080000000  0.5526090000000 1.0
C      1  0.5631330000000  0.4545670000000  0.4815960000000 1.0
C      1  0.5028380000000  0.4548010000000  0.4346960000000 1.0
C      1  0.4401930000000  0.4557010000000  0.4787360000000 1.0
C      1  0.4586100000000  0.4542480000000  0.5526790000000 1.0
C      1  0.5117760000000  0.4520710000000  0.5319340000000 1.0
C      1  0.5362590000000  0.4523930000000  0.4980370000000 1.0
C      1  0.5102860000000  0.4522460000000  0.4653570000000 1.0
C      1  0.4719110000000  0.4540420000000  0.4817590000000 1.0
C      1  0.4705490000000  0.4529500000000  0.5247070000000 1.0
C      1  0.5189810000000  0.5513920000000  0.4316120000000 1.0
C      1  0.4431170000000  0.5515490000000  0.4615320000000 1.0
C      1  0.4448710000000  0.5506450000000  0.5443700000000 1.0
C      1  0.5248150000000  0.5510420000000  0.5651790000000 1.0
C      1  0.5696990000000  0.5507640000000  0.4956220000000 1.0
C      1  0.5298650000000  0.5422050000000  0.4774080000000 1.0
C      1  0.4901020000000  0.5426790000000  0.4641020000000 1.0
C      1  0.4714730000000  0.5401130000000  0.5015750000000 1.0
C      1  0.4861830000000  0.5388390000000  0.5479360000000 1.0
C      1  0.5237770000000  0.5407780000000  0.5188660000000 1.0
C      1  0.4812760000000  0.4836530000000  0.4825960000000 1.0
C      1  0.4780670000000  0.4816080000000  0.5135410000000 1.0
C      1  0.5061100000000  0.4827720000000  0.5253750000000 1.0
C      1  0.5266630000000  0.4827070000000  0.5019330000000 1.0
C      1  0.5110720000000  0.4829580000000  0.4753010000000 1.0
C      1  0.5337800000000  0.4217650000000  0.5130070000000 1.0
C      1  0.5231970000000  0.4202710000000  0.4725960000000 1.0
C      1  0.4814640000000  0.4220780000000  0.4709140000000 1.0
C      1  0.4669950000000  0.4240480000000  0.5101270000000 1.0
C      1  0.4991530000000  0.4212120000000  0.5364570000000 1.0
C      1  0.5465290000000  0.5574690000000  0.5298760000000 1.0
C      1  0.5477340000000  0.5597440000000  0.4609900000000 1.0
C      1  0.4794050000000  0.5602940000000  0.4424130000000 1.0
C      1  0.4468940000000  0.5567930000000  0.5029870000000 1.0
C      1  0.4816010000000  0.5621920000000  0.5685010000000 1.0
C      1  0.4369580000000  0.4369400000000  0.5052890000000 1.0
C      1  0.4857990000000  0.4373640000000  0.5614510000000 1.0
C      1  0.5544990000000  0.4374740000000  0.5327480000000 1.0
C      1  0.5484980000000  0.4364440000000  0.4583860000000 1.0
C      1  0.4761950000000  0.4378750000000  0.4432460000000 1.0
C      1  0.4076040000000  0.4660940000000  0.5409480000000 1.0
C      1  0.5112660000000  0.4681730000000  0.5975030000000 1.0
C      1  0.5978080000000  0.4672440000000  0.5199740000000 1.0
C      1  0.5498990000000  0.4663860000000  0.4132070000000 1.0
C      1  0.4347500000000  0.4681960000000  0.4279010000000 1.0
C      1  0.5005120000000  0.4133360000000  0.5007190000000 1.0
C      1  0.5000150000000  0.5900960000000  0.4994700000000 1.0
C      1  0.5023680000000  0.4459950000000  0.4982970000000 1.0
C      1  0.5018140000000  0.5557130000000  0.4958410000000 1.0
END
