TITL C-862130-1496-930 0.0231470818122135 125000 -1151.43597973755 0 0 196 (T23) n - 1
REM
REM in /home/nfs/bkarasulu/CARBON/AIRSS/Generating-Clusters/TERSOFF/Higher-Symm/FIRE-HFTN
REM
REM
REM
REM
REM
REM ./C.cell (b20cbc046b6831c77cfcea5457e17084)
REM AIRSS Version 0.9.1 bugfix July 2018 build 013d7b7c2542+ Fri, 06 Jul 2018 19:26:36 +0100
REM compiler GCC version 9.2.1 20190827 (Red Hat 9.2.1-1)
REM options -cpp -mtune=generic -march=x86-64 -g -O0 -fpre-include=/usr/include/finclude/math-vector-fortran.h
REM seed 581126385 -409770008 1999629989 1543786031 -1432209482 1694516065 595577135 -187183390 -291127220 1097363306 -1347301660 -566149900 -1846812137 651096411 1811259442 1448373715 -924726552 1608885069 1175927867 1767372041 -414369608 -325463986 1715307093 1375029141 1934732148 1433554221 -566020532 1575156623 921484428 99314243 -2067399282 1665473118 1628825854
REM
CELL 1.54180   50.00000   50.00000   50.00000   90.00000   90.00000   90.00000
LATT -1
SFAC C  
C      1  0.5151580000000  0.4430600000000  0.4502670000000 1.0
C      1  0.4501750000000  0.5153810000000  0.4429300000000 1.0
C      1  0.4428380000000  0.4503970000000  0.5152500000000 1.0
C      1  0.5151580000000  0.5567560000000  0.5492890000000 1.0
C      1  0.4842140000000  0.5567560000000  0.4502670000000 1.0
C      1  0.4842130000000  0.4430600000000  0.5492890000000 1.0
C      1  0.4501750000000  0.4844360000000  0.5566260000000 1.0
C      1  0.5491970000000  0.4844360000000  0.4429300000000 1.0
C      1  0.5491970000000  0.5153810000000  0.5566260000000 1.0
C      1  0.4428380000000  0.5494190000000  0.4843050000000 1.0
C      1  0.5565340000000  0.5494190000000  0.5152500000000 1.0
C      1  0.5565340000000  0.4503970000000  0.4843050000000 1.0
C      1  0.4767800000000  0.5924090000000  0.5727510000000 1.0
C      1  0.5726590000000  0.4770020000000  0.5922780000000 1.0
C      1  0.5921870000000  0.5728810000000  0.4768720000000 1.0
C      1  0.4767800000000  0.4074080000000  0.4268050000000 1.0
C      1  0.5225920000000  0.4074080000000  0.5727510000000 1.0
C      1  0.5225920000000  0.5924090000000  0.4268050000000 1.0
C      1  0.5726590000000  0.5228140000000  0.4072770000000 1.0
C      1  0.4267130000000  0.5228150000000  0.5922780000000 1.0
C      1  0.4267130000000  0.4770020000000  0.4072770000000 1.0
C      1  0.5921860000000  0.4269350000000  0.5226840000000 1.0
C      1  0.4071850000000  0.4269350000000  0.4768710000000 1.0
C      1  0.4071850000000  0.5728810000000  0.5226840000000 1.0
C      1  0.4790670000000  0.6012740000000  0.5227660000000 1.0
C      1  0.5226740000000  0.4792890000000  0.6011430000000 1.0
C      1  0.6010520000000  0.5228960000000  0.4791590000000 1.0
C      1  0.4790670000000  0.3985430000000  0.4767900000000 1.0
C      1  0.5203050000000  0.3985430000000  0.5227660000000 1.0
C      1  0.5203050000000  0.6012740000000  0.4767900000000 1.0
C      1  0.5226740000000  0.5205270000000  0.3984120000000 1.0
C      1  0.4766980000000  0.5205270000000  0.6011430000000 1.0
C      1  0.4766980000000  0.4792890000000  0.3984120000000 1.0
C      1  0.6010520000000  0.4769200000000  0.5203970000000 1.0
C      1  0.3983200000000  0.4769200000000  0.4791590000000 1.0
C      1  0.3983200000000  0.5228960000000  0.5203970000000 1.0
C      1  0.5501760000000  0.4071080000000  0.5608110000000 1.0
C      1  0.5607190000000  0.5503980000000  0.4069770000000 1.0
C      1  0.4068850000000  0.5609410000000  0.5502680000000 1.0
C      1  0.5501760000000  0.5927090000000  0.4387450000000 1.0
C      1  0.4491960000000  0.5927090000000  0.5608110000000 1.0
C      1  0.4491960000000  0.4071080000000  0.4387450000000 1.0
C      1  0.5607190000000  0.4494180000000  0.5925780000000 1.0
C      1  0.4386530000000  0.4494180000000  0.4069770000000 1.0
C      1  0.4386530000000  0.5503980000000  0.5925780000000 1.0
C      1  0.4068850000000  0.4388750000000  0.4492880000000 1.0
C      1  0.5924870000000  0.4388750000000  0.5502680000000 1.0
C      1  0.5924870000000  0.5609410000000  0.4492880000000 1.0
C      1  0.4865970000000  0.5711540000000  0.5908920000000 1.0
C      1  0.5908010000000  0.4868190000000  0.5710230000000 1.0
C      1  0.5709320000000  0.5910230000000  0.4866890000000 1.0
C      1  0.4865970000000  0.4286630000000  0.4086630000000 1.0
C      1  0.5127750000000  0.4286630000000  0.5908920000000 1.0
C      1  0.5127750000000  0.5711540000000  0.4086630000000 1.0
C      1  0.5908010000000  0.5129970000000  0.4285320000000 1.0
C      1  0.4085710000000  0.5129970000000  0.5710230000000 1.0
C      1  0.4085710000000  0.4868190000000  0.4285320000000 1.0
C      1  0.5709310000000  0.4087940000000  0.5128670000000 1.0
C      1  0.4284400000000  0.4087940000000  0.4866890000000 1.0
C      1  0.4284400000000  0.5910230000000  0.5128670000000 1.0
C      1  0.5367630000000  0.4899260000000  0.5630360000000 1.0
C      1  0.5629440000000  0.5369860000000  0.4897950000000 1.0
C      1  0.4897030000000  0.5631670000000  0.5368550000000 1.0
C      1  0.5367640000000  0.5098910000000  0.4365190000000 1.0
C      1  0.4626080000000  0.5098910000000  0.5630360000000 1.0
C      1  0.4626080000000  0.4899260000000  0.4365190000000 1.0
C      1  0.5629440000000  0.4628310000000  0.5097600000000 1.0
C      1  0.4364270000000  0.4628310000000  0.4897950000000 1.0
C      1  0.4364270000000  0.5369860000000  0.5097600000000 1.0
C      1  0.4897030000000  0.4366500000000  0.4627000000000 1.0
C      1  0.5096690000000  0.4366500000000  0.5368550000000 1.0
C      1  0.5096690000000  0.5631670000000  0.4627000000000 1.0
C      1  0.4776630000000  0.3950280000000  0.5528210000000 1.0
C      1  0.5527290000000  0.4778860000000  0.3948970000000 1.0
C      1  0.3948060000000  0.5529520000000  0.4777550000000 1.0
C      1  0.4776630000000  0.6047890000000  0.4467340000000 1.0
C      1  0.5217090000000  0.6047890000000  0.5528210000000 1.0
C      1  0.5217080000000  0.3950280000000  0.4467340000000 1.0
C      1  0.5527290000000  0.5219310000000  0.6046580000000 1.0
C      1  0.4466430000000  0.5219310000000  0.3948970000000 1.0
C      1  0.4466430000000  0.4778860000000  0.6046580000000 1.0
C      1  0.3948060000000  0.4468650000000  0.5218000000000 1.0
C      1  0.6045660000000  0.4468650000000  0.4777550000000 1.0
C      1  0.6045660000000  0.5529520000000  0.5218000000000 1.0
C      1  0.4009480000000  0.5316070000000  0.5496280000000 1.0
C      1  0.5495360000000  0.4011700000000  0.5314760000000 1.0
C      1  0.5313840000000  0.5497580000000  0.4010400000000 1.0
C      1  0.4009480000000  0.4682100000000  0.4499280000000 1.0
C      1  0.5984240000000  0.4682100000000  0.5496280000000 1.0
C      1  0.5984240000000  0.5316060000000  0.4499280000000 1.0
C      1  0.5495360000000  0.5986460000000  0.4680790000000 1.0
C      1  0.4498360000000  0.5986460000000  0.5314760000000 1.0
C      1  0.4498360000000  0.4011700000000  0.4680790000000 1.0
C      1  0.5313840000000  0.4500580000000  0.5985160000000 1.0
C      1  0.4679880000000  0.4500580000000  0.4010400000000 1.0
C      1  0.4679880000000  0.5497580000000  0.5985160000000 1.0
C      1  0.5061780000000  0.6027550000000  0.4491280000000 1.0
C      1  0.4490360000000  0.5064000000000  0.6026250000000 1.0
C      1  0.6025330000000  0.4492580000000  0.5062690000000 1.0
C      1  0.5061780000000  0.3970610000000  0.5504280000000 1.0
C      1  0.4931940000000  0.3970610000000  0.4491280000000 1.0
C      1  0.4931940000000  0.6027550000000  0.5504280000000 1.0
C      1  0.4490360000000  0.4934170000000  0.3969310000000 1.0
C      1  0.5503360000000  0.4934170000000  0.6026250000000 1.0
C      1  0.5503360000000  0.5064000000000  0.3969310000000 1.0
C      1  0.6025330000000  0.5505580000000  0.4932860000000 1.0
C      1  0.3968390000000  0.5505580000000  0.5062690000000 1.0
C      1  0.3968390000000  0.4492580000000  0.4932860000000 1.0
C      1  0.4635190000000  0.4929070000000  0.4784000000000 1.0
C      1  0.4783080000000  0.4637410000000  0.4927760000000 1.0
C      1  0.4926840000000  0.4785300000000  0.4636100000000 1.0
C      1  0.4635190000000  0.5069100000000  0.5211560000000 1.0
C      1  0.5358530000000  0.5069100000000  0.4784000000000 1.0
C      1  0.5358530000000  0.4929070000000  0.5211560000000 1.0
C      1  0.4783080000000  0.5360750000000  0.5067790000000 1.0
C      1  0.5210640000000  0.5360750000000  0.4927760000000 1.0
C      1  0.5210640000000  0.4637410000000  0.5067790000000 1.0
C      1  0.4926840000000  0.5212860000000  0.5359450000000 1.0
C      1  0.5066870000000  0.5212860000000  0.4636100000000 1.0
C      1  0.5066870000000  0.4785300000000  0.5359450000000 1.0
C      1  0.5068370000000  0.5136400000000  0.4288240000000 1.0
C      1  0.4287320000000  0.5070600000000  0.5135090000000 1.0
C      1  0.5134170000000  0.4289550000000  0.5069290000000 1.0
C      1  0.5068370000000  0.4861770000000  0.5707310000000 1.0
C      1  0.4925350000000  0.4861770000000  0.4288240000000 1.0
C      1  0.4925350000000  0.5136400000000  0.5707310000000 1.0
C      1  0.4287320000000  0.4927570000000  0.4860460000000 1.0
C      1  0.5706390000000  0.4927570000000  0.5135090000000 1.0
C      1  0.5706400000000  0.5070590000000  0.4860460000000 1.0
C      1  0.5134170000000  0.5708620000000  0.4926260000000 1.0
C      1  0.4859550000000  0.5708620000000  0.5069290000000 1.0
C      1  0.4859540000000  0.4289550000000  0.4926260000000 1.0
C      1  0.4923090000000  0.4877380000000  0.3752580000000 1.0
C      1  0.3751660000000  0.4925310000000  0.4876070000000 1.0
C      1  0.4875150000000  0.3753890000000  0.4924000000000 1.0
C      1  0.4923080000000  0.5120790000000  0.6242970000000 1.0
C      1  0.5070630000000  0.5120790000000  0.3752580000000 1.0
C      1  0.5070630000000  0.4877380000000  0.6242970000000 1.0
C      1  0.3751660000000  0.5072860000000  0.5119480000000 1.0
C      1  0.6242050000000  0.5072860000000  0.4876070000000 1.0
C      1  0.6242050000000  0.4925310000000  0.5119480000000 1.0
C      1  0.4875160000000  0.6244280000000  0.5071550000000 1.0
C      1  0.5118570000000  0.6244280000000  0.4924000000000 1.0
C      1  0.5118560000000  0.3753890000000  0.5071550000000 1.0
C      1  0.4174020000000  0.5398430000000  0.4335470000000 1.0
C      1  0.4334550000000  0.4176240000000  0.5397130000000 1.0
C      1  0.5396210000000  0.4336780000000  0.4174930000000 1.0
C      1  0.4174020000000  0.4599730000000  0.5660080000000 1.0
C      1  0.5819700000000  0.4599730000000  0.4335470000000 1.0
C      1  0.5819700000000  0.5398430000000  0.5660080000000 1.0
C      1  0.4334550000000  0.5821930000000  0.4598430000000 1.0
C      1  0.5659170000000  0.5821920000000  0.5397130000000 1.0
C      1  0.5659170000000  0.4176240000000  0.4598430000000 1.0
C      1  0.5396210000000  0.5661390000000  0.5820620000000 1.0
C      1  0.4597510000000  0.5661390000000  0.4174930000000 1.0
C      1  0.4597510000000  0.4336780000000  0.5820620000000 1.0
C      1  0.4294500000000  0.3996330000000  0.5157670000000 1.0
C      1  0.5156750000000  0.4296730000000  0.3995020000000 1.0
C      1  0.3994110000000  0.5158980000000  0.4295420000000 1.0
C      1  0.4294510000000  0.6001840000000  0.4837880000000 1.0
C      1  0.5699220000000  0.6001830000000  0.5157670000000 1.0
C      1  0.5699210000000  0.3996330000000  0.4837880000000 1.0
C      1  0.5156750000000  0.5701440000000  0.6000530000000 1.0
C      1  0.4836970000000  0.5701440000000  0.3995020000000 1.0
C      1  0.4836960000000  0.4296730000000  0.6000530000000 1.0
C      1  0.3994110000000  0.4839190000000  0.5700130000000 1.0
C      1  0.5999610000000  0.4839190000000  0.4295420000000 1.0
C      1  0.5999610000000  0.5158980000000  0.5700130000000 1.0
C      1  0.5143430000000  0.5351980000000  0.5691300000000 1.0
C      1  0.5690380000000  0.5145660000000  0.5350670000000 1.0
C      1  0.5349760000000  0.5692610000000  0.5144350000000 1.0
C      1  0.5143430000000  0.4646180000000  0.4304250000000 1.0
C      1  0.4850280000000  0.4646180000000  0.5691300000000 1.0
C      1  0.4850290000000  0.5351980000000  0.4304250000000 1.0
C      1  0.5690380000000  0.4852510000000  0.4644880000000 1.0
C      1  0.4303330000000  0.4852510000000  0.5350670000000 1.0
C      1  0.4303330000000  0.5145660000000  0.4644880000000 1.0
C      1  0.5349760000000  0.4305560000000  0.4851200000000 1.0
C      1  0.4643960000000  0.4305560000000  0.5144350000000 1.0
C      1  0.4643960000000  0.5692610000000  0.4851200000000 1.0
C      1  0.5389090000000  0.5810670000000  0.5545350000000 1.0
C      1  0.5544430000000  0.5391310000000  0.5809360000000 1.0
C      1  0.5808450000000  0.5546650000000  0.5390010000000 1.0
C      1  0.5389090000000  0.4187500000000  0.4450200000000 1.0
C      1  0.4604630000000  0.4187500000000  0.5545350000000 1.0
C      1  0.4604630000000  0.5810670000000  0.4450200000000 1.0
C      1  0.5544430000000  0.4606850000000  0.4186190000000 1.0
C      1  0.4449290000000  0.4606850000000  0.5809360000000 1.0
C      1  0.4449290000000  0.5391310000000  0.4186190000000 1.0
C      1  0.5808450000000  0.4451510000000  0.4605550000000 1.0
C      1  0.4185270000000  0.4451510000000  0.5390000000000 1.0
C      1  0.4185270000000  0.5546660000000  0.4605550000000 1.0
C      1  0.4799630000000  0.4801860000000  0.5195000000000 1.0
C      1  0.5194090000000  0.4801850000000  0.4800550000000 1.0
C      1  0.4799630000000  0.5196310000000  0.4800550000000 1.0
C      1  0.5194090000000  0.5196310000000  0.5195000000000 1.0
END
