TITL C-862505-1648-446 -4881.324093449 125000 -825.962784913583 0 0 155 (C1) n - 1
REM
REM in /home/nfs/bkarasulu/CARBON/AIRSS/Generating-Clusters/TERSOFF/Higher-Symm/FIRE-HFTN
REM
REM
REM
REM
REM
REM ./C.cell (b20cbc046b6831c77cfcea5457e17084)
REM AIRSS Version 0.9.1 bugfix July 2018 build 013d7b7c2542+ Fri, 06 Jul 2018 19:26:36 +0100
REM compiler GCC version 9.2.1 20190827 (Red Hat 9.2.1-1)
REM options -cpp -mtune=generic -march=x86-64 -g -O0 -fpre-include=/usr/include/finclude/math-vector-fortran.h
REM seed 1681196770 -1241686962 1151501141 178632163 1380013316 -41029267 -1092783083 917960308 983394418 1387764344 152625948 -1960160140 1732660567 905212566 -1234709136 -556692930 -1852326710 781461034 -2106387474 1525842758 1243256535 960869339 1197415697 1010380468 -2091929515 -478964205 177817871 446369352 -583120557 253180314 1250416909 -890428186 -1075886124
REM
CELL 1.54180   50.00000   50.00000   50.00000   90.00000   90.00000   90.00000
LATT -1
SFAC C  
C      1  0.4504830000000  0.5515100000000  0.5766370000000 1.0
C      1  0.4481490000000  0.4457290000000  0.4263460000000 1.0
C      1  0.4462680000000  0.5570280000000  0.4260230000000 1.0
C      1  0.4511360000000  0.4477590000000  0.5773680000000 1.0
C      1  0.5779570000000  0.4526720000000  0.5680560000000 1.0
C      1  0.5755050000000  0.5471500000000  0.4312810000000 1.0
C      1  0.5732280000000  0.4529320000000  0.4259810000000 1.0
C      1  0.5794940000000  0.5463540000000  0.5687260000000 1.0
C      1  0.5188390000000  0.5424760000000  0.4726450000000 1.0
C      1  0.5210250000000  0.4698930000000  0.5208010000000 1.0
C      1  0.5192950000000  0.5303090000000  0.5179140000000 1.0
C      1  0.5198390000000  0.4690670000000  0.4789230000000 1.0
C      1  0.5356970000000  0.5254640000000  0.4540730000000 1.0
C      1  0.5391570000000  0.4767050000000  0.5444860000000 1.0
C      1  0.5347020000000  0.5285980000000  0.5451180000000 1.0
C      1  0.5355050000000  0.4723180000000  0.4520710000000 1.0
C      1  0.4843640000000  0.5841290000000  0.4736730000000 1.0
C      1  0.4864170000000  0.4186180000000  0.5301260000000 1.0
C      1  0.4859620000000  0.5814320000000  0.5313490000000 1.0
C      1  0.4853860000000  0.4191000000000  0.4724560000000 1.0
C      1  0.4090700000000  0.5509370000000  0.5242780000000 1.0
C      1  0.4084790000000  0.4468190000000  0.4824340000000 1.0
C      1  0.4072110000000  0.5527430000000  0.4823910000000 1.0
C      1  0.4098760000000  0.4478520000000  0.5243700000000 1.0
C      1  0.4878930000000  0.4747170000000  0.4237160000000 1.0
C      1  0.4912470000000  0.5265790000000  0.5770680000000 1.0
C      1  0.4908300000000  0.4767670000000  0.5782640000000 1.0
C      1  0.4860860000000  0.5240030000000  0.4222440000000 1.0
C      1  0.4958960000000  0.4254880000000  0.5597640000000 1.0
C      1  0.4922660000000  0.5758760000000  0.4438110000000 1.0
C      1  0.4937400000000  0.4240870000000  0.4419950000000 1.0
C      1  0.4954610000000  0.5745270000000  0.5611000000000 1.0
C      1  0.4536880000000  0.5751300000000  0.5261220000000 1.0
C      1  0.4533740000000  0.4239590000000  0.4783670000000 1.0
C      1  0.4521180000000  0.5769390000000  0.4788030000000 1.0
C      1  0.4545570000000  0.4241750000000  0.5259080000000 1.0
C      1  0.5503840000000  0.5642630000000  0.4475810000000 1.0
C      1  0.5548180000000  0.4327760000000  0.5538660000000 1.0
C      1  0.5550130000000  0.5672070000000  0.5556130000000 1.0
C      1  0.5534110000000  0.4308220000000  0.4421090000000 1.0
C      1  0.4469620000000  0.4653750000000  0.4505510000000 1.0
C      1  0.4497260000000  0.5329010000000  0.5517010000000 1.0
C      1  0.4495670000000  0.4669350000000  0.5524840000000 1.0
C      1  0.4453950000000  0.5354300000000  0.4488670000000 1.0
C      1  0.5934710000000  0.4664600000000  0.4525210000000 1.0
C      1  0.5913200000000  0.5267320000000  0.5419020000000 1.0
C      1  0.5932270000000  0.4696960000000  0.5423120000000 1.0
C      1  0.5955220000000  0.5308590000000  0.4560990000000 1.0
C      1  0.5629580000000  0.4001130000000  0.5222070000000 1.0
C      1  0.5608490000000  0.6019990000000  0.4792450000000 1.0
C      1  0.5615380000000  0.3989350000000  0.4762790000000 1.0
C      1  0.5628860000000  0.5990890000000  0.5241220000000 1.0
C      1  0.5263080000000  0.5715540000000  0.5684200000000 1.0
C      1  0.5240580000000  0.4232820000000  0.4330690000000 1.0
C      1  0.5208350000000  0.5646730000000  0.4370480000000 1.0
C      1  0.5264440000000  0.4279250000000  0.5667910000000 1.0
C      1  0.4748420000000  0.4302500000000  0.5808150000000 1.0
C      1  0.4701860000000  0.5742450000000  0.4234920000000 1.0
C      1  0.4719590000000  0.4287470000000  0.4218350000000 1.0
C      1  0.4741540000000  0.5686640000000  0.5814740000000 1.0
C      1  0.5171710000000  0.5792880000000  0.5227100000000 1.0
C      1  0.5169720000000  0.4211900000000  0.4796080000000 1.0
C      1  0.5160700000000  0.5834680000000  0.4810160000000 1.0
C      1  0.5177940000000  0.4212960000000  0.5215500000000 1.0
C      1  0.5337440000000  0.3960300000000  0.5161290000000 1.0
C      1  0.5323270000000  0.6080980000000  0.4873380000000 1.0
C      1  0.5327260000000  0.3956660000000  0.4844920000000 1.0
C      1  0.5337440000000  0.6046340000000  0.5188590000000 1.0
C      1  0.6152620000000  0.4698550000000  0.4750050000000 1.0
C      1  0.6139560000000  0.5239870000000  0.5211270000000 1.0
C      1  0.6161060000000  0.4731070000000  0.5222720000000 1.0
C      1  0.6155310000000  0.5257520000000  0.4791940000000 1.0
C      1  0.4803280000000  0.4650750000000  0.5526850000000 1.0
C      1  0.4759530000000  0.5362740000000  0.4472190000000 1.0
C      1  0.4776780000000  0.4641920000000  0.4497810000000 1.0
C      1  0.4800160000000  0.5369060000000  0.5506260000000 1.0
C      1  0.4375270000000  0.5479960000000  0.4750280000000 1.0
C      1  0.4402780000000  0.4525380000000  0.5283240000000 1.0
C      1  0.4397040000000  0.5465630000000  0.5274680000000 1.0
C      1  0.4386700000000  0.4519740000000  0.4759300000000 1.0
C      1  0.5562250000000  0.5253590000000  0.5695790000000 1.0
C      1  0.5496650000000  0.4728030000000  0.4224730000000 1.0
C      1  0.5500230000000  0.5290110000000  0.4247640000000 1.0
C      1  0.5548720000000  0.4731920000000  0.5727580000000 1.0
C      1  0.4733870000000  0.4770910000000  0.6019810000000 1.0
C      1  0.4684020000000  0.5230230000000  0.3987070000000 1.0
C      1  0.4704390000000  0.4729260000000  0.4000490000000 1.0
C      1  0.4743810000000  0.5273790000000  0.6013240000000 1.0
C      1  0.5625350000000  0.5451610000000  0.5303960000000 1.0
C      1  0.5627760000000  0.4531740000000  0.4665800000000 1.0
C      1  0.5640880000000  0.5403520000000  0.4710400000000 1.0
C      1  0.5634990000000  0.4552280000000  0.5287410000000 1.0
C      1  0.4941670000000  0.4596500000000  0.5265480000000 1.0
C      1  0.4906600000000  0.5426610000000  0.4718410000000 1.0
C      1  0.4924440000000  0.4603520000000  0.4754720000000 1.0
C      1  0.4929710000000  0.5409280000000  0.5231540000000 1.0
C      1  0.4256460000000  0.5061210000000  0.5301020000000 1.0
C      1  0.4256170000000  0.5029370000000  0.4666040000000 1.0
C      1  0.5966130000000  0.4996630000000  0.4387540000000 1.0
C      1  0.5859920000000  0.4980620000000  0.5556000000000 1.0
C      1  0.5508890000000  0.5015790000000  0.4083420000000 1.0
C      1  0.5558800000000  0.5002380000000  0.5871920000000 1.0
C      1  0.5224740000000  0.5006630000000  0.4014730000000 1.0
C      1  0.5284890000000  0.5017360000000  0.5968220000000 1.0
C      1  0.3937020000000  0.4673030000000  0.5033690000000 1.0
C      1  0.3923560000000  0.5315740000000  0.5033830000000 1.0
C      1  0.4388050000000  0.5880350000000  0.5033770000000 1.0
C      1  0.4402710000000  0.4116250000000  0.5026120000000 1.0
C      1  0.4784990000000  0.4571070000000  0.5011980000000 1.0
C      1  0.4770510000000  0.5429580000000  0.4985460000000 1.0
C      1  0.4837760000000  0.5978960000000  0.5036520000000 1.0
C      1  0.4855650000000  0.4036110000000  0.5012450000000 1.0
C      1  0.4496060000000  0.5332110000000  0.5003680000000 1.0
C      1  0.4506700000000  0.4655350000000  0.5016650000000 1.0
C      1  0.4653830000000  0.5025510000000  0.6135320000000 1.0
C      1  0.4606600000000  0.4973010000000  0.3876080000000 1.0
C      1  0.5167240000000  0.5002430000000  0.4509910000000 1.0
C      1  0.5160310000000  0.5013530000000  0.5481600000000 1.0
C      1  0.4033050000000  0.5155700000000  0.5461850000000 1.0
C      1  0.4027590000000  0.5071380000000  0.4491230000000 1.0
C      1  0.5636320000000  0.4943790000000  0.4740480000000 1.0
C      1  0.5665030000000  0.5068950000000  0.5138900000000 1.0
C      1  0.5299330000000  0.5554970000000  0.4990710000000 1.0
C      1  0.5300670000000  0.4455540000000  0.4997970000000 1.0
C      1  0.5733740000000  0.5838520000000  0.5000290000000 1.0
C      1  0.5739160000000  0.4153290000000  0.4985050000000 1.0
C      1  0.4551250000000  0.5003670000000  0.4533880000000 1.0
C      1  0.4546400000000  0.4996370000000  0.5447950000000 1.0
C      1  0.5035800000000  0.5001090000000  0.4237130000000 1.0
C      1  0.5072610000000  0.5013960000000  0.5767090000000 1.0
C      1  0.4861960000000  0.5011370000000  0.4677700000000 1.0
C      1  0.4851750000000  0.5004080000000  0.5305580000000 1.0
C      1  0.5684470000000  0.4998440000000  0.4482110000000 1.0
C      1  0.5616450000000  0.4971560000000  0.5389740000000 1.0
C      1  0.4101210000000  0.5772880000000  0.5041750000000 1.0
C      1  0.4113130000000  0.4218030000000  0.5036150000000 1.0
C      1  0.5615880000000  0.5552710000000  0.5002110000000 1.0
C      1  0.5620630000000  0.4439580000000  0.4978770000000 1.0
C      1  0.2702320000000  0.4959540000000  0.4933540000000 1.0
C      1  0.4863040000000  0.5020130000000  0.4986370000000 1.0
C      1  0.3895380000000  0.4989030000000  0.4979860000000 1.0
C      1  0.6682000000000  0.5101700000000  0.5090760000000 1.0
C      1  0.3703900000000  0.4988520000000  0.4745690000000 1.0
C      1  0.5446620000000  0.5094930000000  0.4918670000000 1.0
C      1  0.7178240000000  0.4983980000000  0.5146160000000 1.0
C      1  0.2972850000000  0.5045930000000  0.4989490000000 1.0
C      1  0.5859890000000  0.4913140000000  0.4961330000000 1.0
C      1  0.3428970000000  0.5078340000000  0.4756970000000 1.0
C      1  0.4216380000000  0.5020460000000  0.4976820000000 1.0
C      1  0.6961290000000  0.5127490000000  0.5019210000000 1.0
C      1  0.6488030000000  0.4944060000000  0.4944850000000 1.0
C      1  0.3210920000000  0.4928390000000  0.4874230000000 1.0
C      1  0.5181790000000  0.4976020000000  0.5014310000000 1.0
C      1  0.4535740000000  0.4976970000000  0.4999290000000 1.0
C      1  0.6172120000000  0.4972570000000  0.4973520000000 1.0
END
