TITL C-862131-2149-317 -3.31253841363805e-05 125000 -556.41323588347 0 0 102 (S4) n - 1
REM
REM in /home/nfs/bkarasulu/CARBON/AIRSS/Generating-Clusters/TERSOFF/Higher-Symm/FIRE-HFTN
REM
REM
REM
REM
REM
REM ./C.cell (b20cbc046b6831c77cfcea5457e17084)
REM AIRSS Version 0.9.1 bugfix July 2018 build 013d7b7c2542+ Fri, 06 Jul 2018 19:26:36 +0100
REM compiler GCC version 9.2.1 20190827 (Red Hat 9.2.1-1)
REM options -cpp -mtune=generic -march=x86-64 -g -O0 -fpre-include=/usr/include/finclude/math-vector-fortran.h
REM seed 388872381 1873608474 2133115422 607530191 1619592652 1033003030 -309437038 1904726869 1596977270 769260426 1632451779 -215901342 -1103442241 841306035 -689875977 -89541718 -1261342062 1874455005 -1459942666 684284069 -100222323 -2146029895 -495769095 -1124066865 -548534763 271073452 -1581568274 -501802180 802455679 -1718068688 -1735194493 80069679 -2070620918
REM
CELL 1.54180   50.00000   50.00000   50.00000   90.00000   90.00000   90.00000
LATT -1
SFAC C  
C      1  0.4949370000000  0.5258320000000  0.4577960000000 1.0
C      1  0.5050630000000  0.4577370000000  0.4734330000000 1.0
C      1  0.4949380000000  0.4733730000000  0.5415290000000 1.0
C      1  0.5050630000000  0.5414690000000  0.5258920000000 1.0
C      1  0.5527340000000  0.4698520000000  0.5449090000000 1.0
C      1  0.4472660000000  0.5448500000000  0.5294130000000 1.0
C      1  0.5527340000000  0.5293530000000  0.4544150000000 1.0
C      1  0.4472660000000  0.4543560000000  0.4699120000000 1.0
C      1  0.4985700000000  0.5686580000000  0.5344010000000 1.0
C      1  0.5014290000000  0.5343410000000  0.4306070000000 1.0
C      1  0.4985700000000  0.4305480000000  0.4649240000000 1.0
C      1  0.5014310000000  0.4648640000000  0.5687170000000 1.0
C      1  0.5589020000000  0.5602410000000  0.5324760000000 1.0
C      1  0.4410980000000  0.5324170000000  0.4390240000000 1.0
C      1  0.5589010000000  0.4389640000000  0.4668480000000 1.0
C      1  0.4410990000000  0.4667890000000  0.5603010000000 1.0
C      1  0.4711330000000  0.5712980000000  0.5232090000000 1.0
C      1  0.5288660000000  0.5231490000000  0.4279670000000 1.0
C      1  0.4711330000000  0.4279080000000  0.4761160000000 1.0
C      1  0.5288670000000  0.4760560000000  0.5713570000000 1.0
C      1  0.4459960000000  0.4962150000000  0.5566980000000 1.0
C      1  0.5540040000000  0.5566380000000  0.5030490000000 1.0
C      1  0.4459950000000  0.5029900000000  0.4426270000000 1.0
C      1  0.5540040000000  0.4425670000000  0.4962740000000 1.0
C      1  0.5555950000000  0.4888950000000  0.4153670000000 1.0
C      1  0.4444050000000  0.4153080000000  0.5103700000000 1.0
C      1  0.5555960000000  0.5103100000000  0.5839560000000 1.0
C      1  0.4444040000000  0.5838970000000  0.4889550000000 1.0
C      1  0.5086120000000  0.5298760000000  0.5739980000000 1.0
C      1  0.4913880000000  0.5739380000000  0.4693890000000 1.0
C      1  0.5086110000000  0.4693290000000  0.4253270000000 1.0
C      1  0.4913890000000  0.4252670000000  0.5299360000000 1.0
C      1  0.4161220000000  0.4672530000000  0.5162100000000 1.0
C      1  0.5838780000000  0.5161500000000  0.5320110000000 1.0
C      1  0.4161220000000  0.5319520000000  0.4831160000000 1.0
C      1  0.5838770000000  0.4830560000000  0.4673120000000 1.0
C      1  0.4198230000000  0.5461630000000  0.4575310000000 1.0
C      1  0.5801770000000  0.4574710000000  0.4531010000000 1.0
C      1  0.4198230000000  0.4530420000000  0.5417950000000 1.0
C      1  0.5801780000000  0.5417350000000  0.5462220000000 1.0
C      1  0.4709270000000  0.5106810000000  0.5236130000000 1.0
C      1  0.5290740000000  0.5235530000000  0.4885840000000 1.0
C      1  0.4709260000000  0.4885250000000  0.4757120000000 1.0
C      1  0.5290740000000  0.4756520000000  0.5107400000000 1.0
C      1  0.4872730000000  0.4539470000000  0.5210290000000 1.0
C      1  0.5127270000000  0.5209690000000  0.5453180000000 1.0
C      1  0.4872730000000  0.5452580000000  0.4782960000000 1.0
C      1  0.5127260000000  0.4782370000000  0.4540060000000 1.0
C      1  0.4754480000000  0.5894190000000  0.4941280000000 1.0
C      1  0.5245510000000  0.4940680000000  0.4098460000000 1.0
C      1  0.4754480000000  0.4097860000000  0.5051970000000 1.0
C      1  0.5245530000000  0.5051370000000  0.5894780000000 1.0
C      1  0.4940340000000  0.4986710000000  0.4641250000000 1.0
C      1  0.5059660000000  0.4640650000000  0.5005930000000 1.0
C      1  0.4940350000000  0.5005340000000  0.5352000000000 1.0
C      1  0.5059660000000  0.5351400000000  0.4987310000000 1.0
C      1  0.4694770000000  0.5094390000000  0.5680880000000 1.0
C      1  0.5305240000000  0.5680280000000  0.4898260000000 1.0
C      1  0.4694760000000  0.4897670000000  0.4312370000000 1.0
C      1  0.5305240000000  0.4311770000000  0.5094980000000 1.0
C      1  0.5281130000000  0.5553900000000  0.4609960000000 1.0
C      1  0.4718860000000  0.4609370000000  0.4438750000000 1.0
C      1  0.5281140000000  0.4438150000000  0.5383280000000 1.0
C      1  0.4718870000000  0.5382680000000  0.5554500000000 1.0
C      1  0.5569240000000  0.4619310000000  0.4317500000000 1.0
C      1  0.4430760000000  0.4316910000000  0.5373350000000 1.0
C      1  0.5569250000000  0.5372750000000  0.5675740000000 1.0
C      1  0.4430750000000  0.5675150000000  0.4619910000000 1.0
C      1  0.5005430000000  0.4343750000000  0.5597860000000 1.0
C      1  0.4994580000000  0.5597260000000  0.5648900000000 1.0
C      1  0.5005420000000  0.5648310000000  0.4395390000000 1.0
C      1  0.4994570000000  0.4394790000000  0.4344340000000 1.0
C      1  0.5692230000000  0.4637040000000  0.5130610000000 1.0
C      1  0.4307770000000  0.5130030000000  0.5355620000000 1.0
C      1  0.5692230000000  0.5355010000000  0.4862620000000 1.0
C      1  0.4307770000000  0.4862030000000  0.4637640000000 1.0
C      1  0.5084360000000  0.5818740000000  0.5068590000000 1.0
C      1  0.4915630000000  0.5068000000000  0.4173910000000 1.0
C      1  0.5084360000000  0.4173310000000  0.4924650000000 1.0
C      1  0.4915650000000  0.4924060000000  0.5819340000000 1.0
C      1  0.5692220000000  0.4874150000000  0.5695400000000 1.0
C      1  0.4307790000000  0.5694810000000  0.5118500000000 1.0
C      1  0.5692210000000  0.5117900000000  0.4297830000000 1.0
C      1  0.4307790000000  0.4297240000000  0.4874750000000 1.0
C      1  0.4432050000000  0.4694850000000  0.5008380000000 1.0
C      1  0.5567950000000  0.5007780000000  0.5297790000000 1.0
C      1  0.4432050000000  0.5297200000000  0.4984870000000 1.0
C      1  0.5567950000000  0.4984270000000  0.4695440000000 1.0
C      1  0.5344830000000  0.5623800000000  0.5588720000000 1.0
C      1  0.4655170000000  0.5588130000000  0.4368850000000 1.0
C      1  0.5344820000000  0.4368250000000  0.4404520000000 1.0
C      1  0.4655180000000  0.4403920000000  0.5624400000000 1.0
C      1  0.5859180000000  0.4848290000000  0.4965780000000 1.0
C      1  0.4140820000000  0.4965190000000  0.5144370000000 1.0
C      1  0.5859180000000  0.5143770000000  0.5027450000000 1.0
C      1  0.4140820000000  0.5026870000000  0.4848890000000 1.0
C      1  0.5415840000000  0.5199030000000  0.5455870000000 1.0
C      1  0.4584160000000  0.5455280000000  0.4793630000000 1.0
C      1  0.5415830000000  0.4793030000000  0.4537360000000 1.0
C      1  0.4584170000000  0.4536770000000  0.5199630000000 1.0
C      1  0.5440350000000  0.4996030000000  0.4996620000000 1.0
C      1  0.4559650000000  0.4996030000000  0.4996630000000 1.0
END
