TITL C-862129-6180-301 21878.9195329806 125000 -207.526033860687 0 0 39 (C1) n - 1
REM
REM in /home/nfs/bkarasulu/CARBON/AIRSS/Generating-Clusters/TERSOFF/Higher-Symm/FIRE-HFTN
REM
REM
REM
REM
REM
REM ./C.cell (b20cbc046b6831c77cfcea5457e17084)
REM AIRSS Version 0.9.1 bugfix July 2018 build 013d7b7c2542+ Fri, 06 Jul 2018 19:26:36 +0100
REM compiler GCC version 9.2.1 20190827 (Red Hat 9.2.1-1)
REM options -cpp -mtune=generic -march=x86-64 -g -O0 -fpre-include=/usr/include/finclude/math-vector-fortran.h
REM seed -1750435927 1459098257 1712201917 524214407 1216106292 -114495022 1037728018 -1463347384 -1046891837 -523200723 1531998720 -1384791646 1590347966 1865564691 733807811 478875138 -520543444 593880714 736984232 1927850795 1883985276 -1813683394 -1284037474 1202974588 -444206758 -412739214 1527285386 593638535 413173219 508617298 -1029865258 -1366782689 -285439844
REM
CELL 1.54180   50.00000   50.00000   50.00000   90.00000   90.00000   90.00000
LATT -1
SFAC C  
C      1  0.4811980000000  0.5701100000000  0.4545260000000 1.0
C      1  0.5477430000000  0.4663770000000  0.5305880000000 1.0
C      1  0.5018840000000  0.4087280000000  0.5266650000000 1.0
C      1  0.5659390000000  0.5197110000000  0.5296880000000 1.0
C      1  0.5345360000000  0.4452750000000  0.4537080000000 1.0
C      1  0.4781080000000  0.4904310000000  0.5398900000000 1.0
C      1  0.5014000000000  0.5455030000000  0.4941920000000 1.0
C      1  0.5298120000000  0.5472960000000  0.4821320000000 1.0
C      1  0.4702820000000  0.5338200000000  0.5324490000000 1.0
C      1  0.5306900000000  0.5681720000000  0.4601100000000 1.0
C      1  0.4208620000000  0.4957060000000  0.5262300000000 1.0
C      1  0.4539550000000  0.4763840000000  0.4489060000000 1.0
C      1  0.5042090000000  0.4855410000000  0.4441940000000 1.0
C      1  0.5556810000000  0.5017400000000  0.4825760000000 1.0
C      1  0.5199950000000  0.5366490000000  0.5408160000000 1.0
C      1  0.4841970000000  0.4192430000000  0.5063090000000 1.0
C      1  0.5375870000000  0.4584290000000  0.5032860000000 1.0
C      1  0.5078400000000  0.4618870000000  0.5082440000000 1.0
C      1  0.4930170000000  0.4441370000000  0.4652760000000 1.0
C      1  0.4496160000000  0.5030100000000  0.5680680000000 1.0
C      1  0.5740190000000  0.5113610000000  0.5031290000000 1.0
C      1  0.4602780000000  0.4608310000000  0.4973800000000 1.0
C      1  0.4661660000000  0.5253370000000  0.5599650000000 1.0
C      1  0.5074040000000  0.5777980000000  0.4460280000000 1.0
C      1  0.4483010000000  0.4778400000000  0.4772550000000 1.0
C      1  0.5495760000000  0.4731980000000  0.4812420000000 1.0
C      1  0.4766600000000  0.4887940000000  0.4359350000000 1.0
C      1  0.4344500000000  0.4862720000000  0.5499720000000 1.0
C      1  0.5491020000000  0.5547430000000  0.5037110000000 1.0
C      1  0.4784980000000  0.5535930000000  0.4778470000000 1.0
C      1  0.4474490000000  0.5380920000000  0.5149460000000 1.0
C      1  0.4973760000000  0.5384270000000  0.5224740000000 1.0
C      1  0.5036010000000  0.4792820000000  0.5319410000000 1.0
C      1  0.5304030000000  0.4873370000000  0.5436080000000 1.0
C      1  0.4863320000000  0.4465250000000  0.4943040000000 1.0
C      1  0.5394880000000  0.5151060000000  0.5410410000000 1.0
C      1  0.5215250000000  0.4639210000000  0.4357970000000 1.0
C      1  0.4230860000000  0.5224770000000  0.5154720000000 1.0
C      1  0.5377350000000  0.5209160000000  0.4700980000000 1.0
END
