TITL C-862134-6730-413 -3.13300948079041e-07 125000 -91.5326477446283 0 0 16 (Td) n - 1
REM
REM in /home/nfs/bkarasulu/CARBON/AIRSS/Generating-Clusters/TERSOFF/Higher-Symm/FIRE-HFTN
REM
REM
REM
REM
REM
REM ./C.cell (b20cbc046b6831c77cfcea5457e17084)
REM AIRSS Version 0.9.1 bugfix July 2018 build 013d7b7c2542+ Fri, 06 Jul 2018 19:26:36 +0100
REM compiler GCC version 9.2.1 20190827 (Red Hat 9.2.1-1)
REM options -cpp -mtune=generic -march=x86-64 -g -O0 -fpre-include=/usr/include/finclude/math-vector-fortran.h
REM seed -1138807471 -584705897 67525421 -1140927663 -1968607043 -370970123 -1884470652 1746120904 482173841 -731806423 1516457823 -1645819369 -589659941 -833509400 -582690856 -1837415116 -479751363 2058250036 674271215 -1491705650 2130656306 -408592870 688670745 -975806744 33926106 -1714424699 1880732896 1603079023 855021824 154259873 1145540680 817687571 -795146846
REM
CELL 1.54180   50.00000   50.00000   50.00000   90.00000   90.00000   90.00000
LATT -1
SFAC C  
C      1  0.4902820000000  0.5099780000000  0.5461050000000 1.0
C      1  0.5463610000000  0.4895110000000  0.5104930000000 1.0
C      1  0.5107490000000  0.5455890000000  0.4900260000000 1.0
C      1  0.5107490000000  0.4895110000000  0.5461050000000 1.0
C      1  0.5107490000000  0.5099780000000  0.4544150000000 1.0
C      1  0.4546700000000  0.5099780000000  0.5104930000000 1.0
C      1  0.4546700000000  0.4895110000000  0.4900260000000 1.0
C      1  0.5463610000000  0.5099780000000  0.4900260000000 1.0
C      1  0.4902820000000  0.4538990000000  0.4900260000000 1.0
C      1  0.4902820000000  0.5455890000000  0.5104930000000 1.0
C      1  0.5107490000000  0.4538990000000  0.5104930000000 1.0
C      1  0.4902820000000  0.4895110000000  0.4544150000000 1.0
C      1  0.5224830000000  0.5217120000000  0.4782920000000 1.0
C      1  0.4785480000000  0.5217120000000  0.5222270000000 1.0
C      1  0.5224830000000  0.4777770000000  0.5222270000000 1.0
C      1  0.4785480000000  0.4777770000000  0.4782920000000 1.0
END
