TITL C-862503-991-721 0.000139447613499995 125000 -498.75097724885 0 0 87 (Cs) n - 1
REM
REM in /home/nfs/bkarasulu/CARBON/AIRSS/Generating-Clusters/TERSOFF/Higher-Symm/FIRE-HFTN
REM
REM
REM
REM
REM
REM ./C.cell (b20cbc046b6831c77cfcea5457e17084)
REM AIRSS Version 0.9.1 bugfix July 2018 build 013d7b7c2542+ Fri, 06 Jul 2018 19:26:36 +0100
REM compiler GCC version 9.2.1 20190827 (Red Hat 9.2.1-1)
REM options -cpp -mtune=generic -march=x86-64 -g -O0 -fpre-include=/usr/include/finclude/math-vector-fortran.h
REM seed -1009090169 -464537683 211734144 1629969189 904849920 -29856601 -885985088 1090971073 -384617587 -811238579 73443461 -548293777 -1452154191 514763266 1691758110 1839263448 1039701114 1195150847 -1532936047 352425911 534028802 -140765122 -1242912879 1689679556 710995041 -2053277771 -343961629 1027719705 509725230 -105022745 -769691687 2280864 -243537154
REM
CELL 1.54180   50.00000   50.00000   50.00000   90.00000   90.00000   90.00000
LATT -1
SFAC C  
C      1  0.5628750000000  0.4438200000000  0.5167620000000 1.0
C      1  0.4376300000000  0.5570040000000  0.5167920000000 1.0
C      1  0.5628750000000  0.4438200000000  0.4816040000000 1.0
C      1  0.4376300000000  0.5570040000000  0.4815750000000 1.0
C      1  0.5411060000000  0.5122440000000  0.5668810000000 1.0
C      1  0.4593540000000  0.4875410000000  0.5669110000000 1.0
C      1  0.5411060000000  0.5122440000000  0.4314850000000 1.0
C      1  0.4593540000000  0.4875410000000  0.4314560000000 1.0
C      1  0.4915520000000  0.4827120000000  0.4750400000000 1.0
C      1  0.5092170000000  0.5206780000000  0.4727260000000 1.0
C      1  0.4915520000000  0.4827120000000  0.5233270000000 1.0
C      1  0.5092170000000  0.5206780000000  0.5256410000000 1.0
C      1  0.4773110000000  0.5446700000000  0.5557850000000 1.0
C      1  0.5232630000000  0.4559430000000  0.5556510000000 1.0
C      1  0.4773110000000  0.5446700000000  0.4425810000000 1.0
C      1  0.5232630000000  0.4559430000000  0.4427150000000 1.0
C      1  0.4625720000000  0.4305430000000  0.4838230000000 1.0
C      1  0.5386780000000  0.5704510000000  0.4837570000000 1.0
C      1  0.4625720000000  0.4305430000000  0.5145430000000 1.0
C      1  0.5386780000000  0.5704510000000  0.5146090000000 1.0
C      1  0.5125110000000  0.5719360000000  0.4690130000000 1.0
C      1  0.4884290000000  0.4283020000000  0.4689500000000 1.0
C      1  0.5125110000000  0.5719360000000  0.5293530000000 1.0
C      1  0.4884290000000  0.4283020000000  0.5294170000000 1.0
C      1  0.4495700000000  0.4554410000000  0.5238000000000 1.0
C      1  0.5523860000000  0.5456340000000  0.5237400000000 1.0
C      1  0.4495700000000  0.4554410000000  0.4745660000000 1.0
C      1  0.5523860000000  0.5456340000000  0.4746270000000 1.0
C      1  0.4429450000000  0.5022030000000  0.4738790000000 1.0
C      1  0.5573620000000  0.4984200000000  0.4740610000000 1.0
C      1  0.4429450000000  0.5022030000000  0.5244880000000 1.0
C      1  0.5573620000000  0.4984200000000  0.5243060000000 1.0
C      1  0.5140100000000  0.4639530000000  0.4839310000000 1.0
C      1  0.4859310000000  0.5362860000000  0.4841700000000 1.0
C      1  0.5140100000000  0.4639530000000  0.5144350000000 1.0
C      1  0.4859310000000  0.5362860000000  0.5141970000000 1.0
C      1  0.4342070000000  0.4889400000000  0.4462830000000 1.0
C      1  0.5664440000000  0.5106080000000  0.4460690000000 1.0
C      1  0.4342070000000  0.4889400000000  0.5520830000000 1.0
C      1  0.5664440000000  0.5106080000000  0.5522980000000 1.0
C      1  0.4627230000000  0.4799700000000  0.4837860000000 1.0
C      1  0.5384210000000  0.5214650000000  0.4836990000000 1.0
C      1  0.4627230000000  0.4799700000000  0.5145800000000 1.0
C      1  0.5384210000000  0.5214650000000  0.5146670000000 1.0
C      1  0.5289420000000  0.5402130000000  0.5704300000000 1.0
C      1  0.4718640000000  0.4597620000000  0.5705600000000 1.0
C      1  0.5289420000000  0.5402130000000  0.4279360000000 1.0
C      1  0.4718640000000  0.4597620000000  0.4278070000000 1.0
C      1  0.5222240000000  0.4886450000000  0.4367550000000 1.0
C      1  0.4777490000000  0.5117260000000  0.4362290000000 1.0
C      1  0.5222240000000  0.4886450000000  0.5616110000000 1.0
C      1  0.4777490000000  0.5117260000000  0.5621370000000 1.0
C      1  0.4212250000000  0.4616820000000  0.5351200000000 1.0
C      1  0.5802470000000  0.5378120000000  0.5354050000000 1.0
C      1  0.4212250000000  0.4616820000000  0.4632460000000 1.0
C      1  0.5802470000000  0.5378120000000  0.4629610000000 1.0
C      1  0.5850890000000  0.5117310000000  0.5140070000000 1.0
C      1  0.4158240000000  0.4878740000000  0.5139760000000 1.0
C      1  0.5850890000000  0.5117310000000  0.4843600000000 1.0
C      1  0.4158240000000  0.4878740000000  0.4843900000000 1.0
C      1  0.4534110000000  0.5289720000000  0.5156790000000 1.0
C      1  0.5467880000000  0.4716810000000  0.5154970000000 1.0
C      1  0.4534110000000  0.5289720000000  0.4826870000000 1.0
C      1  0.5467880000000  0.4716810000000  0.4828700000000 1.0
C      1  0.4866510000000  0.5782460000000  0.5146550000000 1.0
C      1  0.5142460000000  0.4219880000000  0.5146760000000 1.0
C      1  0.4866510000000  0.5782460000000  0.4837110000000 1.0
C      1  0.5142460000000  0.4219880000000  0.4836910000000 1.0
C      1  0.3867980000000  0.5621980000000  0.4847580000000 1.0
C      1  0.6137690000000  0.4392820000000  0.4847590000000 1.0
C      1  0.3867980000000  0.5621980000000  0.5136090000000 1.0
C      1  0.6137690000000  0.4392820000000  0.5136080000000 1.0
C      1  0.4630080000000  0.5664770000000  0.4664150000000 1.0
C      1  0.5376400000000  0.4341400000000  0.4664390000000 1.0
C      1  0.4630080000000  0.5664770000000  0.5319510000000 1.0
C      1  0.5376400000000  0.4341400000000  0.5319270000000 1.0
C      1  0.5894030000000  0.4414540000000  0.5290100000000 1.0
C      1  0.4111280000000  0.5597120000000  0.5290240000000 1.0
C      1  0.5894030000000  0.4414540000000  0.4693560000000 1.0
C      1  0.4111280000000  0.5597120000000  0.4693430000000 1.0
C      1  0.4937170000000  0.4471710000000  0.5532750000000 1.0
C      1  0.5071290000000  0.5529460000000  0.5531570000000 1.0
C      1  0.4937170000000  0.4471710000000  0.4450920000000 1.0
C      1  0.5071290000000  0.5529460000000  0.4452090000000 1.0
C      1  0.5000340000000  0.5006150000000  0.4514370000000 1.0
C      1  0.5000340000000  0.5006150000000  0.5469290000000 1.0
C      1  0.5046560000000  0.5018670000000  0.4991830000000 1.0
END
