TITL C-862506-1665-267 35.8221609063225 125000 -525.864664827172 0 0 91 (C1) n - 1
REM
REM in /home/nfs/bkarasulu/CARBON/AIRSS/Generating-Clusters/TERSOFF/Higher-Symm/FIRE-HFTN
REM
REM
REM
REM
REM
REM ./C.cell (b20cbc046b6831c77cfcea5457e17084)
REM AIRSS Version 0.9.1 bugfix July 2018 build 013d7b7c2542+ Fri, 06 Jul 2018 19:26:36 +0100
REM compiler GCC version 9.2.1 20190827 (Red Hat 9.2.1-1)
REM options -cpp -mtune=generic -march=x86-64 -g -O0 -fpre-include=/usr/include/finclude/math-vector-fortran.h
REM seed -675123173 -1155108669 998747051 -767709827 1802577772 1575661645 -586138843 -1978901313 874593201 -1913113816 -774825522 1368656779 1138063424 1750040618 -524467491 1456210290 1828554529 -539450871 -1885122204 2064065203 -695157989 -216472711 439112011 1798960748 1894951787 1094784505 -1780200138 -345345086 -645172124 -405428755 1913681365 430695245 -230962331
REM
CELL 1.54180   50.00000   50.00000   50.00000   90.00000   90.00000   90.00000
LATT -1
SFAC C  
C      1  0.5533690000000  0.3913670000000  0.5606870000000 1.0
C      1  0.5593370000000  0.5631880000000  0.5406910000000 1.0
C      1  0.5285730000000  0.4064520000000  0.4703630000000 1.0
C      1  0.5212510000000  0.5281050000000  0.4875580000000 1.0
C      1  0.4585290000000  0.4930960000000  0.4183240000000 1.0
C      1  0.4974760000000  0.5418420000000  0.4775830000000 1.0
C      1  0.5360260000000  0.5371930000000  0.5110190000000 1.0
C      1  0.5928340000000  0.5137190000000  0.4958380000000 1.0
C      1  0.5480300000000  0.4588470000000  0.4915840000000 1.0
C      1  0.4912110000000  0.5812480000000  0.5429760000000 1.0
C      1  0.5549820000000  0.5750180000000  0.4882750000000 1.0
C      1  0.4687420000000  0.5337350000000  0.4154820000000 1.0
C      1  0.5833210000000  0.5354790000000  0.5142960000000 1.0
C      1  0.5094230000000  0.4669160000000  0.5539430000000 1.0
C      1  0.4925700000000  0.5757730000000  0.4428200000000 1.0
C      1  0.4203240000000  0.4928960000000  0.5541420000000 1.0
C      1  0.5180770000000  0.5707830000000  0.5425950000000 1.0
C      1  0.4980610000000  0.4569650000000  0.5069000000000 1.0
C      1  0.5516860000000  0.4748100000000  0.5167620000000 1.0
C      1  0.4870910000000  0.4514040000000  0.4258940000000 1.0
C      1  0.4693290000000  0.5630770000000  0.5470330000000 1.0
C      1  0.4678860000000  0.5089790000000  0.5960560000000 1.0
C      1  0.5101190000000  0.4960850000000  0.4199540000000 1.0
C      1  0.5394630000000  0.5645410000000  0.4395190000000 1.0
C      1  0.5334700000000  0.5729740000000  0.4678620000000 1.0
C      1  0.5184880000000  0.4513870000000  0.4860620000000 1.0
C      1  0.4965050000000  0.5347260000000  0.4073580000000 1.0
C      1  0.5581730000000  0.5429550000000  0.4326020000000 1.0
C      1  0.4470520000000  0.5610770000000  0.5283500000000 1.0
C      1  0.5484270000000  0.4962770000000  0.4546990000000 1.0
C      1  0.4592220000000  0.5285360000000  0.4436220000000 1.0
C      1  0.4582870000000  0.5284970000000  0.4937930000000 1.0
C      1  0.4427920000000  0.4671510000000  0.4840750000000 1.0
C      1  0.4982470000000  0.5710680000000  0.4728530000000 1.0
C      1  0.4677920000000  0.4408630000000  0.5432930000000 1.0
C      1  0.4396850000000  0.4448570000000  0.5506930000000 1.0
C      1  0.4435670000000  0.5534240000000  0.4515950000000 1.0
C      1  0.5601080000000  0.5549150000000  0.5093340000000 1.0
C      1  0.4829650000000  0.5225110000000  0.4603910000000 1.0
C      1  0.5166660000000  0.5271680000000  0.5958990000000 1.0
C      1  0.4943390000000  0.5036970000000  0.5240790000000 1.0
C      1  0.4143390000000  0.5211050000000  0.5140800000000 1.0
C      1  0.4948510000000  0.5109750000000  0.6072940000000 1.0
C      1  0.4347880000000  0.5605910000000  0.4785440000000 1.0
C      1  0.4595100000000  0.5217610000000  0.5715120000000 1.0
C      1  0.4625230000000  0.4366450000000  0.4280360000000 1.0
C      1  0.4386420000000  0.4488480000000  0.4380500000000 1.0
C      1  0.5653030000000  0.5204950000000  0.4502380000000 1.0
C      1  0.5508340000000  0.4067530000000  0.4889460000000 1.0
C      1  0.4389290000000  0.4718910000000  0.4557230000000 1.0
C      1  0.4294770000000  0.4676970000000  0.5658890000000 1.0
C      1  0.5452840000000  0.4877250000000  0.5828060000000 1.0
C      1  0.5035670000000  0.4769520000000  0.5272880000000 1.0
C      1  0.5711340000000  0.4111430000000  0.5492390000000 1.0
C      1  0.4892970000000  0.4477190000000  0.5622000000000 1.0
C      1  0.4755090000000  0.4377560000000  0.5136500000000 1.0
C      1  0.5592990000000  0.4312930000000  0.5024360000000 1.0
C      1  0.4851870000000  0.4802760000000  0.4196970000000 1.0
C      1  0.5236560000000  0.5408580000000  0.5382030000000 1.0
C      1  0.5422950000000  0.5869890000000  0.5477240000000 1.0
C      1  0.3928140000000  0.5182900000000  0.4564610000000 1.0
C      1  0.4307370000000  0.5204720000000  0.4902720000000 1.0
C      1  0.4997360000000  0.5251020000000  0.5423620000000 1.0
C      1  0.4524020000000  0.5696210000000  0.4999650000000 1.0
C      1  0.4816090000000  0.4083270000000  0.5070220000000 1.0
C      1  0.5762620000000  0.5214430000000  0.5408770000000 1.0
C      1  0.5358830000000  0.4558990000000  0.4272780000000 1.0
C      1  0.5832820000000  0.4925280000000  0.5380140000000 1.0
C      1  0.5126360000000  0.4410760000000  0.4366800000000 1.0
C      1  0.4406900000000  0.5007670000000  0.4436840000000 1.0
C      1  0.4977300000000  0.4971160000000  0.4600700000000 1.0
C      1  0.5141200000000  0.4312070000000  0.4645280000000 1.0
C      1  0.4618340000000  0.3947460000000  0.4897890000000 1.0
C      1  0.5392320000000  0.5163990000000  0.5803550000000 1.0
C      1  0.4268340000000  0.5388810000000  0.5355640000000 1.0
C      1  0.5247030000000  0.5019140000000  0.4723980000000 1.0
C      1  0.5358000000000  0.4849370000000  0.4294160000000 1.0
C      1  0.4327780000000  0.5197220000000  0.5598240000000 1.0
C      1  0.5627320000000  0.4330570000000  0.5323000000000 1.0
C      1  0.5562270000000  0.4607190000000  0.5420870000000 1.0
C      1  0.4421210000000  0.4156860000000  0.4831930000000 1.0
C      1  0.4204880000000  0.5135440000000  0.4637990000000 1.0
C      1  0.5146430000000  0.5700600000000  0.4244660000000 1.0
C      1  0.5611020000000  0.4729700000000  0.4689560000000 1.0
C      1  0.5931640000000  0.4876060000000  0.5102830000000 1.0
C      1  0.4784500000000  0.5827010000000  0.4925730000000 1.0
C      1  0.5372860000000  0.4672990000000  0.5633950000000 1.0
C      1  0.4504690000000  0.4415050000000  0.4953730000000 1.0
C      1  0.5508200000000  0.5325780000000  0.5562640000000 1.0
C      1  0.4075020000000  0.4952850000000  0.5275190000000 1.0
C      1  0.4779940000000  0.5374700000000  0.5568250000000 1.0
END
