TITL C-862505-1648-97 -0.00232254230729539 125000 -765.361226200764 0 0 130 (D2) n - 1
REM
REM in /home/nfs/bkarasulu/CARBON/AIRSS/Generating-Clusters/TERSOFF/Higher-Symm/FIRE-HFTN
REM
REM
REM
REM
REM
REM ./C.cell (b20cbc046b6831c77cfcea5457e17084)
REM AIRSS Version 0.9.1 bugfix July 2018 build 013d7b7c2542+ Fri, 06 Jul 2018 19:26:36 +0100
REM compiler GCC version 9.2.1 20190827 (Red Hat 9.2.1-1)
REM options -cpp -mtune=generic -march=x86-64 -g -O0 -fpre-include=/usr/include/finclude/math-vector-fortran.h
REM seed -652411040 -608832755 1853755719 -1659848499 1033925125 -1254423349 -1732285702 688562020 1559375760 1706933402 1014715303 1881449247 -1333207563 -647391381 1369945842 872970202 -1745112771 1140198295 729238500 979863393 -984825764 1123951395 136252519 -414919947 969777425 -1677620345 1076777991 1079886529 -699319577 1966353893 787881535 1293211731 1943286297
REM
CELL 1.54180   50.00000   50.00000   50.00000   90.00000   90.00000   90.00000
LATT -1
SFAC C  
C      1  0.4302250000000  0.5148530000000  0.4540500000000 1.0
C      1  0.5079360000000  0.4582980000000  0.4303930000000 1.0
C      1  0.4562050000000  0.4408350000000  0.5118860000000 1.0
C      1  0.5702900000000  0.4853750000000  0.4540580000000 1.0
C      1  0.4302190000000  0.4853630000000  0.5464940000000 1.0
C      1  0.5702820000000  0.5148530000000  0.5465070000000 1.0
C      1  0.4925820000000  0.5419330000000  0.4303970000000 1.0
C      1  0.5079220000000  0.5419250000000  0.5701630000000 1.0
C      1  0.4925750000000  0.4582890000000  0.5701560000000 1.0
C      1  0.5443010000000  0.5593860000000  0.5119000000000 1.0
C      1  0.4562010000000  0.5593840000000  0.4886620000000 1.0
C      1  0.5443080000000  0.4408400000000  0.4886610000000 1.0
C      1  0.5456090000000  0.5908870000000  0.4601020000000 1.0
C      1  0.5926750000000  0.4612330000000  0.5462480000000 1.0
C      1  0.4569200000000  0.5435530000000  0.5942510000000 1.0
C      1  0.4549040000000  0.4093410000000  0.4600830000000 1.0
C      1  0.5456110000000  0.4093390000000  0.5404600000000 1.0
C      1  0.4548910000000  0.5908780000000  0.5404640000000 1.0
C      1  0.4078260000000  0.5389830000000  0.5462380000000 1.0
C      1  0.5926790000000  0.5389970000000  0.4543210000000 1.0
C      1  0.4078360000000  0.4612320000000  0.4543020000000 1.0
C      1  0.5435730000000  0.4566580000000  0.5942520000000 1.0
C      1  0.4569380000000  0.4566660000000  0.4062970000000 1.0
C      1  0.5435840000000  0.5435680000000  0.4063090000000 1.0
C      1  0.5719140000000  0.4969700000000  0.4247260000000 1.0
C      1  0.5022880000000  0.4293750000000  0.5705520000000 1.0
C      1  0.4293520000000  0.5655080000000  0.5017330000000 1.0
C      1  0.4286050000000  0.5032620000000  0.4247150000000 1.0
C      1  0.5719020000000  0.5032580000000  0.5758400000000 1.0
C      1  0.4285940000000  0.4969550000000  0.5758280000000 1.0
C      1  0.4982080000000  0.5708390000000  0.5705610000000 1.0
C      1  0.5022930000000  0.5708480000000  0.4300030000000 1.0
C      1  0.4982250000000  0.4293840000000  0.4299930000000 1.0
C      1  0.5711560000000  0.4347150000000  0.5017360000000 1.0
C      1  0.4293570000000  0.4347090000000  0.4988100000000 1.0
C      1  0.5711500000000  0.5655140000000  0.4988300000000 1.0
C      1  0.4789350000000  0.5644450000000  0.5945260000000 1.0
C      1  0.5667780000000  0.5890770000000  0.4810680000000 1.0
C      1  0.5952650000000  0.4836840000000  0.5665360000000 1.0
C      1  0.5215570000000  0.4357650000000  0.5945210000000 1.0
C      1  0.4789550000000  0.4357760000000  0.4060250000000 1.0
C      1  0.5215670000000  0.5644590000000  0.4060370000000 1.0
C      1  0.4337320000000  0.4111480000000  0.4810460000000 1.0
C      1  0.5667820000000  0.4111510000000  0.5194970000000 1.0
C      1  0.4337220000000  0.5890690000000  0.5194980000000 1.0
C      1  0.4052320000000  0.5165300000000  0.5665240000000 1.0
C      1  0.5952730000000  0.5165460000000  0.4340330000000 1.0
C      1  0.4052440000000  0.4836850000000  0.4340160000000 1.0
C      1  0.4755640000000  0.4943640000000  0.6009990000000 1.0
C      1  0.4960650000000  0.5902580000000  0.4761110000000 1.0
C      1  0.5986270000000  0.4756680000000  0.4960590000000 1.0
C      1  0.5249280000000  0.5058450000000  0.6010040000000 1.0
C      1  0.4755790000000  0.5058560000000  0.3995510000000 1.0
C      1  0.5249440000000  0.4943790000000  0.3995540000000 1.0
C      1  0.5044460000000  0.4099670000000  0.4761000000000 1.0
C      1  0.4960690000000  0.4099640000000  0.5244420000000 1.0
C      1  0.5044340000000  0.5902550000000  0.5244550000000 1.0
C      1  0.4018810000000  0.5245540000000  0.4960470000000 1.0
C      1  0.5986250000000  0.5245620000000  0.5045100000000 1.0
C      1  0.4018820000000  0.4756600000000  0.5044920000000 1.0
C      1  0.5901100000000  0.4677410000000  0.4687180000000 1.0
C      1  0.4715130000000  0.4687250000000  0.5884240000000 1.0
C      1  0.4699520000000  0.5790470000000  0.4699780000000 1.0
C      1  0.4104020000000  0.5324860000000  0.4687090000000 1.0
C      1  0.5901020000000  0.5324890000000  0.5318500000000 1.0
C      1  0.4104000000000  0.4677290000000  0.5318320000000 1.0
C      1  0.5289810000000  0.5314860000000  0.5884330000000 1.0
C      1  0.4715240000000  0.5314950000000  0.4121260000000 1.0
C      1  0.5289970000000  0.4687390000000  0.4121260000000 1.0
C      1  0.5305600000000  0.4211790000000  0.4699730000000 1.0
C      1  0.4699540000000  0.4211730000000  0.5305710000000 1.0
C      1  0.5305490000000  0.5790460000000  0.5305860000000 1.0
C      1  0.5548070000000  0.4774850000000  0.5170420000000 1.0
C      1  0.4710830000000  0.5102890000000  0.5567760000000 1.0
C      1  0.5172720000000  0.5477030000000  0.4707130000000 1.0
C      1  0.4456980000000  0.5227350000000  0.5170370000000 1.0
C      1  0.5548080000000  0.5227420000000  0.4835210000000 1.0
C      1  0.4457020000000  0.4774830000000  0.4835090000000 1.0
C      1  0.5294150000000  0.4899260000000  0.5567790000000 1.0
C      1  0.4710930000000  0.4899310000000  0.4437740000000 1.0
C      1  0.5294230000000  0.5102990000000  0.4437800000000 1.0
C      1  0.4832390000000  0.4525240000000  0.4707040000000 1.0
C      1  0.5172720000000  0.4525210000000  0.5298440000000 1.0
C      1  0.4832310000000  0.5476970000000  0.5298480000000 1.0
C      1  0.4930520000000  0.4725650000000  0.4513460000000 1.0
C      1  0.4685830000000  0.4624870000000  0.4947240000000 1.0
C      1  0.4519930000000  0.4985760000000  0.4649100000000 1.0
C      1  0.5074630000000  0.5276630000000  0.4513500000000 1.0
C      1  0.4930420000000  0.5276570000000  0.5492070000000 1.0
C      1  0.5074580000000  0.4725600000000  0.5492050000000 1.0
C      1  0.5319250000000  0.5377370000000  0.4947330000000 1.0
C      1  0.4685790000000  0.5377330000000  0.5058260000000 1.0
C      1  0.5319270000000  0.4624880000000  0.5058260000000 1.0
C      1  0.5485200000000  0.5016510000000  0.4649180000000 1.0
C      1  0.4519880000000  0.5016430000000  0.5356370000000 1.0
C      1  0.5485140000000  0.4985750000000  0.5356440000000 1.0
C      1  0.4817330000000  0.5770310000000  0.5398410000000 1.0
C      1  0.5812740000000  0.5369600000000  0.4825180000000 1.0
C      1  0.5416630000000  0.4855360000000  0.5847230000000 1.0
C      1  0.5187680000000  0.4231870000000  0.5398340000000 1.0
C      1  0.4817460000000  0.4231900000000  0.4607100000000 1.0
C      1  0.5187680000000  0.5770370000000  0.4607230000000 1.0
C      1  0.4192360000000  0.4632650000000  0.4825000000000 1.0
C      1  0.5812740000000  0.4632690000000  0.5180490000000 1.0
C      1  0.4192300000000  0.5369510000000  0.5180410000000 1.0
C      1  0.4588320000000  0.5146760000000  0.5847190000000 1.0
C      1  0.5416740000000  0.5146900000000  0.4158370000000 1.0
C      1  0.4588460000000  0.4855430000000  0.4158290000000 1.0
C      1  0.5580630000000  0.5320160000000  0.5828040000000 1.0
C      1  0.5286620000000  0.5770700000000  0.5603730000000 1.0
C      1  0.5850530000000  0.5616840000000  0.5262960000000 1.0
C      1  0.4424320000000  0.4681960000000  0.5827910000000 1.0
C      1  0.5580780000000  0.4682120000000  0.4177590000000 1.0
C      1  0.4424420000000  0.5320210000000  0.4177540000000 1.0
C      1  0.4718360000000  0.4231450000000  0.5603580000000 1.0
C      1  0.5286780000000  0.4231550000000  0.4401860000000 1.0
C      1  0.4718390000000  0.5770750000000  0.4401910000000 1.0
C      1  0.4154510000000  0.4385350000000  0.5262750000000 1.0
C      1  0.5850620000000  0.4385460000000  0.4742710000000 1.0
C      1  0.4154490000000  0.5616800000000  0.4742660000000 1.0
C      1  0.6122710000000  0.5001160000000  0.5002860000000 1.0
C      1  0.5002450000000  0.5001040000000  0.6144040000000 1.0
C      1  0.5002620000000  0.5001190000000  0.3861500000000 1.0
C      1  0.5002490000000  0.6039550000000  0.5002840000000 1.0
C      1  0.5002580000000  0.3962670000000  0.5002700000000 1.0
C      1  0.3882360000000  0.5001070000000  0.5002680000000 1.0
C      1  0.5151320000000  0.4842360000000  0.4957410000000 1.0
C      1  0.4853760000000  0.5159870000000  0.4957410000000 1.0
C      1  0.5151300000000  0.5159880000000  0.5048150000000 1.0
C      1  0.4853770000000  0.4842340000000  0.5048110000000 1.0
END
