TITL C-862133-5440-147 -0.250068851203475 125000 -1041.89936215559 0 0 191 (C5) n - 1
REM
REM in /home/nfs/bkarasulu/CARBON/AIRSS/Generating-Clusters/TERSOFF/Higher-Symm/FIRE-HFTN
REM
REM
REM
REM
REM
REM ./C.cell (b20cbc046b6831c77cfcea5457e17084)
REM AIRSS Version 0.9.1 bugfix July 2018 build 013d7b7c2542+ Fri, 06 Jul 2018 19:26:36 +0100
REM compiler GCC version 9.2.1 20190827 (Red Hat 9.2.1-1)
REM options -cpp -mtune=generic -march=x86-64 -g -O0 -fpre-include=/usr/include/finclude/math-vector-fortran.h
REM seed 1046760729 1212711110 -2021608648 1440732691 -1439245848 -304492914 671566061 -593277258 -684332002 -1423858264 -1583465523 -1629810200 -1770784554 1621722637 -990511342 867944229 -755232620 716256035 836386829 -1818705074 182202282 -254779651 -1331102936 -1255480215 -2057624765 1673646945 10002006 1179885577 324650890 -581150537 -865603971 -309582583 589444123
REM
CELL 1.54180   50.00000   50.00000   50.00000   90.00000   90.00000   90.00000
LATT -1
SFAC C  
C      1  0.4782520000000  0.5707610000000  0.5765520000000 1.0
C      1  0.5659950000000  0.5707600000000  0.5445870000000 1.0
C      1  0.5627080000000  0.5707600000000  0.4512610000000 1.0
C      1  0.4729340000000  0.5707600000000  0.4255470000000 1.0
C      1  0.4207370000000  0.5707610000000  0.5029810000000 1.0
C      1  0.5552850000000  0.5649830000000  0.4974930000000 1.0
C      1  0.5146100000000  0.5649830000000  0.4468940000000 1.0
C      1  0.4539180000000  0.5649830000000  0.4699420000000 1.0
C      1  0.4570830000000  0.5649830000000  0.5347860000000 1.0
C      1  0.5197310000000  0.5649830000000  0.5518130000000 1.0
C      1  0.5271710000000  0.5240150000000  0.4885570000000 1.0
C      1  0.4974230000000  0.5240150000000  0.4708700000000 1.0
C      1  0.4714100000000  0.5240150000000  0.4936960000000 1.0
C      1  0.4850800000000  0.5240150000000  0.5254900000000 1.0
C      1  0.5195420000000  0.5240150000000  0.5223140000000 1.0
C      1  0.4610810000000  0.5136650000000  0.4487310000000 1.0
C      1  0.4391240000000  0.5136650000000  0.5214180000000 1.0
C      1  0.5014680000000  0.5136650000000  0.5647630000000 1.0
C      1  0.5619560000000  0.5136650000000  0.5188640000000 1.0
C      1  0.5369960000000  0.5136650000000  0.4471520000000 1.0
C      1  0.4726050000000  0.5099300000000  0.5989910000000 1.0
C      1  0.5855900000000  0.5099300000000  0.5568910000000 1.0
C      1  0.5804660000000  0.5099300000000  0.4364260000000 1.0
C      1  0.4643130000000  0.5099300000000  0.4040740000000 1.0
C      1  0.3976510000000  0.5099300000000  0.5045450000000 1.0
C      1  0.5693440000000  0.4615420000000  0.4654740000000 1.0
C      1  0.4885020000000  0.4615420000000  0.4236280000000 1.0
C      1  0.4237230000000  0.4615420000000  0.4875820000000 1.0
C      1  0.4645290000000  0.4615420000000  0.5689540000000 1.0
C      1  0.5545270000000  0.4615420000000  0.5552900000000 1.0
C      1  0.4819890000000  0.6167910000000  0.4806890000000 1.0
C      1  0.4759790000000  0.6167910000000  0.5114090000000 1.0
C      1  0.5033380000000  0.6167910000000  0.5266180000000 1.0
C      1  0.5262570000000  0.6167910000000  0.5052980000000 1.0
C      1  0.5130630000000  0.6167910000000  0.4769130000000 1.0
C      1  0.5240950000000  0.4900840000000  0.4870280000000 1.0
C      1  0.4950180000000  0.4900840000000  0.4733230000000 1.0
C      1  0.4729990000000  0.4900840000000  0.4967420000000 1.0
C      1  0.4884670000000  0.4900840000000  0.5249200000000 1.0
C      1  0.5200460000000  0.4900840000000  0.5189160000000 1.0
C      1  0.4024100000000  0.4928070000000  0.5512480000000 1.0
C      1  0.5184920000000  0.4928070000000  0.6088970000000 1.0
C      1  0.6091910000000  0.4928070000000  0.5163110000000 1.0
C      1  0.5491640000000  0.4928070000000  0.4014400000000 1.0
C      1  0.4213670000000  0.4928070000000  0.4230320000000 1.0
C      1  0.5743500000000  0.4141370000000  0.4877850000000 1.0
C      1  0.5112680000000  0.4141370000000  0.4257610000000 1.0
C      1  0.4327870000000  0.4141370000000  0.4665900000000 1.0
C      1  0.4473640000000  0.4141370000000  0.5538470000000 1.0
C      1  0.5348560000000  0.4141370000000  0.5669460000000 1.0
C      1  0.4443840000000  0.5149590000000  0.5870570000000 1.0
C      1  0.5655200000000  0.5149590000000  0.5800430000000 1.0
C      1  0.5962820000000  0.5149590000000  0.4626690000000 1.0
C      1  0.4941590000000  0.5149590000000  0.3971410000000 1.0
C      1  0.4002800000000  0.5149590000000  0.4740170000000 1.0
C      1  0.4932810000000  0.3910290000000  0.4760740000000 1.0
C      1  0.4750780000000  0.3910290000000  0.4992440000000 1.0
C      1  0.4914890000000  0.3910290000000  0.5237160000000 1.0
C      1  0.5198350000000  0.3910290000000  0.5156700000000 1.0
C      1  0.5209420000000  0.3910290000000  0.4862260000000 1.0
C      1  0.5124180000000  0.4462270000000  0.4356940000000 1.0
C      1  0.4425880000000  0.4462270000000  0.4685660000000 1.0
C      1  0.4522730000000  0.4462270000000  0.5451350000000 1.0
C      1  0.5280870000000  0.4462270000000  0.5595860000000 1.0
C      1  0.5652590000000  0.4462270000000  0.4919480000000 1.0
C      1  0.5984390000000  0.5821260000000  0.4940880000000 1.0
C      1  0.5247070000000  0.5821260000000  0.4048000000000 1.0
C      1  0.4170040000000  0.5821260000000  0.4473310000000 1.0
C      1  0.4241720000000  0.5821270000000  0.5629060000000 1.0
C      1  0.5363050000000  0.5821260000000  0.5918030000000 1.0
C      1  0.4617130000000  0.4382550000000  0.4176560000000 1.0
C      1  0.4097640000000  0.4382550000000  0.5112150000000 1.0
C      1  0.4826910000000  0.4382560000000  0.5895320000000 1.0
C      1  0.5797110000000  0.4382550000000  0.5443760000000 1.0
C      1  0.5667460000000  0.4382550000000  0.4381500000000 1.0
C      1  0.5287630000000  0.5529270000000  0.4090010000000 1.0
C      1  0.4222530000000  0.5529280000000  0.4447720000000 1.0
C      1  0.4233600000000  0.5529280000000  0.5571230000000 1.0
C      1  0.5305540000000  0.5529280000000  0.5907880000000 1.0
C      1  0.5956960000000  0.5529270000000  0.4992440000000 1.0
C      1  0.5687040000000  0.4671020000000  0.5164160000000 1.0
C      1  0.5367530000000  0.4671020000000  0.4399790000000 1.0
C      1  0.4541840000000  0.4671020000000  0.4467460000000 1.0
C      1  0.4351040000000  0.4671020000000  0.5273650000000 1.0
C      1  0.5058810000000  0.4671020000000  0.5704230000000 1.0
C      1  0.4593210000000  0.4157330000000  0.4990370000000 1.0
C      1  0.4864230000000  0.4157330000000  0.5386380000000 1.0
C      1  0.5324620000000  0.4157330000000  0.5250990000000 1.0
C      1  0.5338120000000  0.4157330000000  0.4771310000000 1.0
C      1  0.4886080000000  0.4157330000000  0.4610230000000 1.0
C      1  0.5284280000000  0.5752570000000  0.4994530000000 1.0
C      1  0.5081750000000  0.5752570000000  0.4730420000000 1.0
C      1  0.4767970000000  0.5752570000000  0.4841420000000 1.0
C      1  0.4776580000000  0.5752570000000  0.5174140000000 1.0
C      1  0.5095680000000  0.5752570000000  0.5268770000000 1.0
C      1  0.4273440000000  0.5477400000000  0.5240190000000 1.0
C      1  0.5003020000000  0.5477400000000  0.5767690000000 1.0
C      1  0.5730150000000  0.5477400000000  0.5236830000000 1.0
C      1  0.5449970000000  0.5477400000000  0.4381240000000 1.0
C      1  0.4549670000000  0.5477400000000  0.4383320000000 1.0
C      1  0.5533530000000  0.4662150000000  0.5864880000000 1.0
C      1  0.5986520000000  0.4662150000000  0.4762320000000 1.0
C      1  0.5077900000000  0.4662150000000  0.3990790000000 1.0
C      1  0.4063360000000  0.4662150000000  0.4616520000000 1.0
C      1  0.4344950000000  0.4662150000000  0.5774770000000 1.0
C      1  0.5658090000000  0.4841120000000  0.4267760000000 1.0
C      1  0.4506060000000  0.4841120000000  0.4150320000000 1.0
C      1  0.4038370000000  0.4841120000000  0.5209670000000 1.0
C      1  0.4901350000000  0.4841120000000  0.5981830000000 1.0
C      1  0.5902390000000  0.4841120000000  0.5399700000000 1.0
C      1  0.4957430000000  0.5406670000000  0.4439350000000 1.0
C      1  0.4452730000000  0.5406670000000  0.4869710000000 1.0
C      1  0.4706070000000  0.5406680000000  0.5482690000000 1.0
C      1  0.5367340000000  0.5406670000000  0.5431180000000 1.0
C      1  0.5522690000000  0.5406670000000  0.4786350000000 1.0
C      1  0.5030600000000  0.5379780000000  0.4136240000000 1.0
C      1  0.4187070000000  0.5379780000000  0.4706450000000 1.0
C      1  0.4468710000000  0.5379780000000  0.5684900000000 1.0
C      1  0.5486300000000  0.5379780000000  0.5719410000000 1.0
C      1  0.5833570000000  0.5379780000000  0.4762280000000 1.0
C      1  0.5566950000000  0.4133790000000  0.4561930000000 1.0
C      1  0.4757670000000  0.4133790000000  0.4327900000000 1.0
C      1  0.4285010000000  0.4133790000000  0.5025250000000 1.0
C      1  0.4802170000000  0.4133790000000  0.5690280000000 1.0
C      1  0.5594460000000  0.4133790000000  0.5403930000000 1.0
C      1  0.5435510000000  0.4934210000000  0.5910490000000 1.0
C      1  0.5999610000000  0.4934200000000  0.4869630000000 1.0
C      1  0.5184010000000  0.4934200000000  0.4011500000000 1.0
C      1  0.4115840000000  0.4934210000000  0.4522010000000 1.0
C      1  0.4271280000000  0.4934210000000  0.5695650000000 1.0
C      1  0.5693730000000  0.5338980000000  0.4252740000000 1.0
C      1  0.4502790000000  0.5338980000000  0.4111780000000 1.0
C      1  0.4000700000000  0.5338980000000  0.5200870000000 1.0
C      1  0.4881340000000  0.5338980000000  0.6014930000000 1.0
C      1  0.5927690000000  0.5338980000000  0.5428960000000 1.0
C      1  0.5091210000000  0.3987380000000  0.5695930000000 1.0
C      1  0.5689150000000  0.3987380000000  0.5130780000000 1.0
C      1  0.5336440000000  0.3987380000000  0.4387470000000 1.0
C      1  0.4520510000000  0.3987380000000  0.4493220000000 1.0
C      1  0.4368950000000  0.3987380000000  0.5301890000000 1.0
C      1  0.4742880000000  0.4415270000000  0.4994500000000 1.0
C      1  0.4914410000000  0.4415270000000  0.5245310000000 1.0
C      1  0.5205950000000  0.4415270000000  0.5159680000000 1.0
C      1  0.5214600000000  0.4415270000000  0.4855940000000 1.0
C      1  0.4928410000000  0.4415270000000  0.4753860000000 1.0
C      1  0.6032320000000  0.4175930000000  0.4825090000000 1.0
C      1  0.5151750000000  0.4175930000000  0.3966630000000 1.0
C      1  0.4063190000000  0.4175930000000  0.4538820000000 1.0
C      1  0.4271000000000  0.4175930000000  0.5750920000000 1.0
C      1  0.5487990000000  0.4175930000000  0.5927840000000 1.0
C      1  0.6094550000000  0.4437980000000  0.4927920000000 1.0
C      1  0.5268780000000  0.4437980000000  0.3939220000000 1.0
C      1  0.4073290000000  0.4437980000000  0.4419050000000 1.0
C      1  0.4160210000000  0.4437980000000  0.5704300000000 1.0
C      1  0.5409420000000  0.4437980000000  0.6018800000000 1.0
C      1  0.5440290000000  0.4921340000000  0.5393130000000 1.0
C      1  0.5509040000000  0.4921340000000  0.4705210000000 1.0
C      1  0.4876040000000  0.4921340000000  0.4427250000000 1.0
C      1  0.4416070000000  0.4921340000000  0.4943370000000 1.0
C      1  0.4764800000000  0.4921340000000  0.5540320000000 1.0
C      1  0.5962760000000  0.4614900000000  0.5595170000000 1.0
C      1  0.5862640000000  0.4614900000000  0.4270750000000 1.0
C      1  0.4572110000000  0.4614900000000  0.3956700000000 1.0
C      1  0.3874640000000  0.4614900000000  0.5087020000000 1.0
C      1  0.4734100000000  0.4614900000000  0.6099650000000 1.0
C      1  0.5273160000000  0.6084660000000  0.4514510000000 1.0
C      1  0.4621790000000  0.6084660000000  0.4592650000000 1.0
C      1  0.4494820000000  0.6084660000000  0.5236300000000 1.0
C      1  0.5067720000000  0.6084660000000  0.5555950000000 1.0
C      1  0.5548770000000  0.6084660000000  0.5109860000000 1.0
C      1  0.5120070000000  0.4450760000000  0.6092980000000 1.0
C      1  0.6075690000000  0.4450760000000  0.5226030000000 1.0
C      1  0.5546470000000  0.4450750000000  0.4049280000000 1.0
C      1  0.4263780000000  0.4450760000000  0.4188960000000 1.0
C      1  0.4000250000000  0.4450760000000  0.5452030000000 1.0
C      1  0.4720460000000  0.5990440000000  0.4334150000000 1.0
C      1  0.4279450000000  0.5990440000000  0.5062570000000 1.0
C      1  0.4835950000000  0.5990440000000  0.5707090000000 1.0
C      1  0.5620890000000  0.5990440000000  0.5377000000000 1.0
C      1  0.5549510000000  0.5990440000000  0.4528470000000 1.0
C      1  0.5303860000000  0.5913910000000  0.5641350000000 1.0
C      1  0.5702960000000  0.5913910000000  0.4911670000000 1.0
C      1  0.5132320000000  0.5913910000000  0.4306620000000 1.0
C      1  0.4380550000000  0.5913910000000  0.4662370000000 1.0
C      1  0.4486570000000  0.5913910000000  0.5487270000000 1.0
C      1  0.5288980000000  0.5016700000000  0.5645510000000 1.0
C      1  0.5702310000000  0.5016700000000  0.4927110000000 1.0
C      1  0.5146810000000  0.5016700000000  0.4312010000000 1.0
C      1  0.4390150000000  0.5016700000000  0.4650250000000 1.0
C      1  0.4478010000000  0.5016700000000  0.5474400000000 1.0
C      1  0.5001250000000  0.5536880000000  0.5001860000000 1.0
END
