TITL C-862129-6180-1399 -2297680.20523501 125000 -943.491527354202 0 0 158 (C1) n - 1
REM
REM in /home/nfs/bkarasulu/CARBON/AIRSS/Generating-Clusters/TERSOFF/Higher-Symm/FIRE-HFTN
REM
REM
REM
REM
REM
REM ./C.cell (b20cbc046b6831c77cfcea5457e17084)
REM AIRSS Version 0.9.1 bugfix July 2018 build 013d7b7c2542+ Fri, 06 Jul 2018 19:26:36 +0100
REM compiler GCC version 9.2.1 20190827 (Red Hat 9.2.1-1)
REM options -cpp -mtune=generic -march=x86-64 -g -O0 -fpre-include=/usr/include/finclude/math-vector-fortran.h
REM seed 747215140 1613069937 1231077137 -752031158 971593019 963807155 -1999189171 1117484901 1297037909 1398817329 -971999800 -1109933382 -2078993053 -1587369954 1892991342 1588140690 961947861 -1760022377 -1461381510 1969201689 -1746811587 484823011 -718887301 1670647674 -839438912 628721997 448653960 -1697701908 469388950 158455281 272287061 -717463157 -811998690
REM
CELL 1.54180   50.00000   50.00000   50.00000   90.00000   90.00000   90.00000
LATT -1
SFAC C  
C      1  0.5840210000000  0.5115560000000  0.4365740000000 1.0
C      1  0.5839830000000  0.5113670000000  0.5643100000000 1.0
C      1  0.5921180000000  0.4576090000000  0.5171960000000 1.0
C      1  0.5918390000000  0.4575520000000  0.4807730000000 1.0
C      1  0.5545110000000  0.5427900000000  0.5147910000000 1.0
C      1  0.5547160000000  0.5427560000000  0.4857740000000 1.0
C      1  0.5538290000000  0.4547740000000  0.5856230000000 1.0
C      1  0.5547010000000  0.4545390000000  0.4137680000000 1.0
C      1  0.5667810000000  0.5054690000000  0.5924030000000 1.0
C      1  0.5670360000000  0.5055370000000  0.4083100000000 1.0
C      1  0.5495390000000  0.4279150000000  0.4825860000000 1.0
C      1  0.5498170000000  0.4276960000000  0.5152320000000 1.0
C      1  0.4172810000000  0.5073070000000  0.5162530000000 1.0
C      1  0.4171730000000  0.5068550000000  0.4844180000000 1.0
C      1  0.4871100000000  0.4400060000000  0.3990920000000 1.0
C      1  0.4859500000000  0.4403280000000  0.6004020000000 1.0
C      1  0.5282300000000  0.5853480000000  0.5157430000000 1.0
C      1  0.5280810000000  0.5849990000000  0.4847390000000 1.0
C      1  0.5089310000000  0.5740310000000  0.4392440000000 1.0
C      1  0.5089190000000  0.5744010000000  0.5611680000000 1.0
C      1  0.5066990000000  0.4250200000000  0.5835680000000 1.0
C      1  0.5068920000000  0.4249570000000  0.4172110000000 1.0
C      1  0.4388830000000  0.5381120000000  0.6074340000000 1.0
C      1  0.4391600000000  0.5376040000000  0.3923720000000 1.0
C      1  0.5341480000000  0.5838210000000  0.5753300000000 1.0
C      1  0.5341120000000  0.5837040000000  0.4253050000000 1.0
C      1  0.4581080000000  0.4360870000000  0.3967930000000 1.0
C      1  0.4568750000000  0.4365210000000  0.6017150000000 1.0
C      1  0.4351020000000  0.4512760000000  0.4735340000000 1.0
C      1  0.4340920000000  0.4538820000000  0.5311570000000 1.0
C      1  0.4673970000000  0.5008310000000  0.5928490000000 1.0
C      1  0.4679640000000  0.5005220000000  0.4061870000000 1.0
C      1  0.4852620000000  0.6097670000000  0.4697450000000 1.0
C      1  0.4854310000000  0.6102430000000  0.5304450000000 1.0
C      1  0.4930750000000  0.5666090000000  0.6036780000000 1.0
C      1  0.4932850000000  0.5663830000000  0.3965420000000 1.0
C      1  0.5202810000000  0.4729640000000  0.5321310000000 1.0
C      1  0.5201450000000  0.4732760000000  0.4674200000000 1.0
C      1  0.5356910000000  0.5238530000000  0.5281550000000 1.0
C      1  0.5358870000000  0.5239050000000  0.4721120000000 1.0
C      1  0.4871940000000  0.5410960000000  0.6159420000000 1.0
C      1  0.4875360000000  0.5410900000000  0.3837530000000 1.0
C      1  0.6090790000000  0.4435030000000  0.4612730000000 1.0
C      1  0.6082290000000  0.4421910000000  0.5368870000000 1.0
C      1  0.4761080000000  0.4599610000000  0.4711400000000 1.0
C      1  0.4756630000000  0.4595280000000  0.5292430000000 1.0
C      1  0.5973230000000  0.4334370000000  0.5627650000000 1.0
C      1  0.5991330000000  0.4339580000000  0.4352900000000 1.0
C      1  0.4707130000000  0.5816310000000  0.5906190000000 1.0
C      1  0.4707760000000  0.5811410000000  0.4095480000000 1.0
C      1  0.4317910000000  0.5469680000000  0.4183020000000 1.0
C      1  0.4313410000000  0.5480350000000  0.5817880000000 1.0
C      1  0.5481210000000  0.4695810000000  0.4564880000000 1.0
C      1  0.5484920000000  0.4688700000000  0.5423540000000 1.0
C      1  0.4364210000000  0.4061760000000  0.5154340000000 1.0
C      1  0.4452810000000  0.4034290000000  0.4875170000000 1.0
C      1  0.4452170000000  0.5821990000000  0.4532820000000 1.0
C      1  0.4453650000000  0.5826710000000  0.5466750000000 1.0
C      1  0.5043750000000  0.5503520000000  0.4858510000000 1.0
C      1  0.5039530000000  0.5511420000000  0.5139030000000 1.0
C      1  0.4874280000000  0.4079360000000  0.4731240000000 1.0
C      1  0.4885280000000  0.4076350000000  0.5265480000000 1.0
C      1  0.5647420000000  0.4508380000000  0.4709580000000 1.0
C      1  0.5649280000000  0.4506250000000  0.5270390000000 1.0
C      1  0.5213040000000  0.5761870000000  0.3988130000000 1.0
C      1  0.5211310000000  0.5762900000000  0.6016980000000 1.0
C      1  0.3912440000000  0.4763210000000  0.5322640000000 1.0
C      1  0.3930300000000  0.4754430000000  0.4691580000000 1.0
C      1  0.5509720000000  0.4016410000000  0.5286020000000 1.0
C      1  0.5500590000000  0.4020920000000  0.4687260000000 1.0
C      1  0.5303600000000  0.3818650000000  0.5266620000000 1.0
C      1  0.5293690000000  0.3823740000000  0.4708990000000 1.0
C      1  0.4945420000000  0.4687610000000  0.5527030000000 1.0
C      1  0.4942350000000  0.4689200000000  0.4469890000000 1.0
C      1  0.5226750000000  0.5301350000000  0.5963270000000 1.0
C      1  0.5228620000000  0.5301300000000  0.4039370000000 1.0
C      1  0.4591720000000  0.5306860000000  0.5157000000000 1.0
C      1  0.4592030000000  0.5304830000000  0.4844080000000 1.0
C      1  0.5219480000000  0.4467500000000  0.4841450000000 1.0
C      1  0.5218260000000  0.4465950000000  0.5149770000000 1.0
C      1  0.4407710000000  0.4855340000000  0.5883910000000 1.0
C      1  0.4416990000000  0.4848020000000  0.4108290000000 1.0
C      1  0.5354540000000  0.5299840000000  0.5563200000000 1.0
C      1  0.5355700000000  0.5301050000000  0.4440300000000 1.0
C      1  0.3977740000000  0.4798470000000  0.4401090000000 1.0
C      1  0.3953020000000  0.4825410000000  0.5609430000000 1.0
C      1  0.4644760000000  0.5248540000000  0.3900180000000 1.0
C      1  0.4641130000000  0.5251360000000  0.6093080000000 1.0
C      1  0.5231330000000  0.4994630000000  0.5152770000000 1.0
C      1  0.5231690000000  0.4996010000000  0.4847280000000 1.0
C      1  0.4103440000000  0.4610530000000  0.5164320000000 1.0
C      1  0.4105320000000  0.4594970000000  0.4864950000000 1.0
C      1  0.5894890000000  0.5110090000000  0.4670550000000 1.0
C      1  0.5888100000000  0.5107400000000  0.5337530000000 1.0
C      1  0.5623370000000  0.5398920000000  0.5688140000000 1.0
C      1  0.5624260000000  0.5400520000000  0.4317270000000 1.0
C      1  0.4193290000000  0.4970880000000  0.4286480000000 1.0
C      1  0.4178390000000  0.4987380000000  0.5718270000000 1.0
C      1  0.4843160000000  0.5363480000000  0.5282950000000 1.0
C      1  0.4844030000000  0.5357230000000  0.4716300000000 1.0
C      1  0.4367630000000  0.4585270000000  0.6006770000000 1.0
C      1  0.4378180000000  0.4579110000000  0.3982020000000 1.0
C      1  0.4144300000000  0.5332370000000  0.5346130000000 1.0
C      1  0.4145270000000  0.5323200000000  0.4653810000000 1.0
C      1  0.5550770000000  0.5689630000000  0.5581640000000 1.0
C      1  0.5551340000000  0.5689850000000  0.4424410000000 1.0
C      1  0.4628950000000  0.4224030000000  0.5563530000000 1.0
C      1  0.4619740000000  0.4228280000000  0.4432190000000 1.0
C      1  0.5046490000000  0.3877490000000  0.4846920000000 1.0
C      1  0.5052100000000  0.3875890000000  0.5138750000000 1.0
C      1  0.4895350000000  0.4344390000000  0.4406330000000 1.0
C      1  0.4904540000000  0.4340390000000  0.5591400000000 1.0
C      1  0.5195650000000  0.5005340000000  0.6010150000000 1.0
C      1  0.5200090000000  0.5005070000000  0.3989720000000 1.0
C      1  0.4930080000000  0.6330600000000  0.5142140000000 1.0
C      1  0.4929080000000  0.6328360000000  0.4855730000000 1.0
C      1  0.5836770000000  0.4511020000000  0.5821900000000 1.0
C      1  0.5846180000000  0.4506210000000  0.4155690000000 1.0
C      1  0.4620640000000  0.4801590000000  0.5141710000000 1.0
C      1  0.4624270000000  0.4804450000000  0.4862750000000 1.0
C      1  0.4195650000000  0.5262600000000  0.4366370000000 1.0
C      1  0.4188870000000  0.5276080000000  0.5635180000000 1.0
C      1  0.4476190000000  0.5030060000000  0.5247920000000 1.0
C      1  0.4475870000000  0.5029610000000  0.4757490000000 1.0
C      1  0.5533950000000  0.5338910000000  0.4022970000000 1.0
C      1  0.5531920000000  0.5338530000000  0.5982560000000 1.0
C      1  0.5461720000000  0.4839040000000  0.4057800000000 1.0
C      1  0.5458080000000  0.4839120000000  0.5947350000000 1.0
C      1  0.4495430000000  0.5700280000000  0.5722580000000 1.0
C      1  0.4497360000000  0.5693000000000  0.4278610000000 1.0
C      1  0.5818300000000  0.5351870000000  0.5214830000000 1.0
C      1  0.5822370000000  0.5353080000000  0.4794920000000 1.0
C      1  0.4576370000000  0.6073830000000  0.5384790000000 1.0
C      1  0.4575030000000  0.6069410000000  0.4614810000000 1.0
C      1  0.5102090000000  0.5417470000000  0.4316750000000 1.0
C      1  0.5101750000000  0.5419570000000  0.5685520000000 1.0
C      1  0.4937390000000  0.4880240000000  0.6022840000000 1.0
C      1  0.4942990000000  0.4878770000000  0.3971830000000 1.0
C      1  0.5989970000000  0.4883550000000  0.4843880000000 1.0
C      1  0.5998560000000  0.4888030000000  0.5164470000000 1.0
C      1  0.4366950000000  0.5487280000000  0.5235390000000 1.0
C      1  0.4365750000000  0.5482240000000  0.4763720000000 1.0
C      1  0.5046380000000  0.5880210000000  0.5339620000000 1.0
C      1  0.5044610000000  0.5875670000000  0.4664340000000 1.0
C      1  0.4450510000000  0.4248610000000  0.4672890000000 1.0
C      1  0.4447530000000  0.4274830000000  0.5338330000000 1.0
C      1  0.5366390000000  0.4293750000000  0.4154590000000 1.0
C      1  0.5362240000000  0.4294950000000  0.5871170000000 1.0
C      1  0.5499100000000  0.5690200000000  0.4726100000000 1.0
C      1  0.5498580000000  0.5691010000000  0.5279590000000 1.0
C      1  0.4948160000000  0.4648740000000  0.4122380000000 1.0
C      1  0.4942140000000  0.4649750000000  0.5872410000000 1.0
C      1  0.4903300000000  0.5262960000000  0.5541860000000 1.0
C      1  0.4898930000000  0.5262340000000  0.4453350000000 1.0
C      1  0.4809740000000  0.5002450000000  0.4350350000000 1.0
C      1  0.4811040000000  0.5002460000000  0.5641570000000 1.0
C      1  0.4814580000000  0.4337800000000  0.5144170000000 1.0
C      1  0.4816700000000  0.4340750000000  0.4856550000000 1.0
END
