TITL C-862500-986-1197 5.79704747817749 125000 -824.988181670516 0 0 143 (C1) n - 1
REM
REM in /home/nfs/bkarasulu/CARBON/AIRSS/Generating-Clusters/TERSOFF/Higher-Symm/FIRE-HFTN
REM
REM
REM
REM
REM
REM ./C.cell (b20cbc046b6831c77cfcea5457e17084)
REM AIRSS Version 0.9.1 bugfix July 2018 build 013d7b7c2542+ Fri, 06 Jul 2018 19:26:36 +0100
REM compiler GCC version 9.2.1 20190827 (Red Hat 9.2.1-1)
REM options -cpp -mtune=generic -march=x86-64 -g -O0 -fpre-include=/usr/include/finclude/math-vector-fortran.h
REM seed -1132226785 418963190 1615068779 -1313125299 1696203293 849143090 1918138145 1271790909 -1030641422 -1435884400 -10689555 -134980096 -253222757 1406462215 -62959472 2010132199 -1298082756 1427942925 496522972 -990957946 -934216999 176521322 -1832952845 -1440990904 -1678195483 1607637931 322185321 731187248 1986051023 -1357158120 648781611 1888906631 1524375630
REM
CELL 1.54180   50.00000   50.00000   50.00000   90.00000   90.00000   90.00000
LATT -1
SFAC C  
C      1  0.4944810000000  0.6044480000000  0.4721890000000 1.0
C      1  0.4099150000000  0.4924370000000  0.5609980000000 1.0
C      1  0.4753260000000  0.4619060000000  0.5590700000000 1.0
C      1  0.5783690000000  0.4676680000000  0.5031390000000 1.0
C      1  0.4169700000000  0.5682430000000  0.5389110000000 1.0
C      1  0.4538670000000  0.4207010000000  0.4435480000000 1.0
C      1  0.5097500000000  0.5319520000000  0.4044240000000 1.0
C      1  0.4947410000000  0.5780030000000  0.4285210000000 1.0
C      1  0.4424620000000  0.4886630000000  0.4740150000000 1.0
C      1  0.4964840000000  0.4519420000000  0.5043320000000 1.0
C      1  0.4801650000000  0.4863590000000  0.5218330000000 1.0
C      1  0.5434740000000  0.4627780000000  0.5331660000000 1.0
C      1  0.5818580000000  0.4974650000000  0.5123840000000 1.0
C      1  0.4415420000000  0.4218740000000  0.5063470000000 1.0
C      1  0.4457430000000  0.5032570000000  0.5388950000000 1.0
C      1  0.5418610000000  0.4739710000000  0.5909370000000 1.0
C      1  0.5275870000000  0.4381330000000  0.4307620000000 1.0
C      1  0.5483450000000  0.4510460000000  0.5037450000000 1.0
C      1  0.3892810000000  0.4774770000000  0.4909020000000 1.0
C      1  0.4338370000000  0.4554940000000  0.5881530000000 1.0
C      1  0.4783500000000  0.4965110000000  0.4500300000000 1.0
C      1  0.4421590000000  0.6057080000000  0.5098530000000 1.0
C      1  0.4526620000000  0.5333060000000  0.5309780000000 1.0
C      1  0.5818670000000  0.5540070000000  0.4766650000000 1.0
C      1  0.5334170000000  0.4417320000000  0.5517180000000 1.0
C      1  0.4718930000000  0.5065910000000  0.5810620000000 1.0
C      1  0.4715930000000  0.4078040000000  0.4649120000000 1.0
C      1  0.5754160000000  0.4463130000000  0.5631670000000 1.0
C      1  0.5453340000000  0.5251200000000  0.4054500000000 1.0
C      1  0.4828130000000  0.3988470000000  0.5118620000000 1.0
C      1  0.5027220000000  0.4826520000000  0.6033540000000 1.0
C      1  0.5214360000000  0.5981860000000  0.5082760000000 1.0
C      1  0.4598100000000  0.4028010000000  0.4926930000000 1.0
C      1  0.5148430000000  0.5299860000000  0.4790960000000 1.0
C      1  0.5007370000000  0.4908770000000  0.5424150000000 1.0
C      1  0.5993300000000  0.5317860000000  0.5291330000000 1.0
C      1  0.5974160000000  0.4797060000000  0.4776720000000 1.0
C      1  0.4991900000000  0.5404290000000  0.5914460000000 1.0
C      1  0.5083500000000  0.3979240000000  0.4970800000000 1.0
C      1  0.5190200000000  0.4859320000000  0.4222250000000 1.0
C      1  0.4955670000000  0.4497990000000  0.5354860000000 1.0
C      1  0.5380970000000  0.4897830000000  0.4915130000000 1.0
C      1  0.5490700000000  0.4475810000000  0.5770610000000 1.0
C      1  0.4176120000000  0.4355420000000  0.4964190000000 1.0
C      1  0.5800280000000  0.4597810000000  0.4162950000000 1.0
C      1  0.4463690000000  0.4857010000000  0.6265670000000 1.0
C      1  0.6075380000000  0.5089900000000  0.4812240000000 1.0
C      1  0.4134990000000  0.5540780000000  0.4637720000000 1.0
C      1  0.4605850000000  0.5909200000000  0.4929700000000 1.0
C      1  0.5445540000000  0.5126190000000  0.5373960000000 1.0
C      1  0.5935360000000  0.4883400000000  0.5518030000000 1.0
C      1  0.4651250000000  0.5086540000000  0.4274420000000 1.0
C      1  0.5375470000000  0.5729220000000  0.4620670000000 1.0
C      1  0.5176260000000  0.5415540000000  0.4323290000000 1.0
C      1  0.4828330000000  0.4602490000000  0.6012130000000 1.0
C      1  0.3917300000000  0.5265270000000  0.4991450000000 1.0
C      1  0.4581170000000  0.5662550000000  0.5698980000000 1.0
C      1  0.4540810000000  0.5376570000000  0.4292290000000 1.0
C      1  0.5421590000000  0.5946550000000  0.4854430000000 1.0
C      1  0.4654190000000  0.5315280000000  0.4815140000000 1.0
C      1  0.4441080000000  0.5138870000000  0.6206910000000 1.0
C      1  0.4602180000000  0.5504440000000  0.4601700000000 1.0
C      1  0.5560580000000  0.4721740000000  0.4034100000000 1.0
C      1  0.4815400000000  0.5529150000000  0.4142690000000 1.0
C      1  0.4344140000000  0.5478880000000  0.4074350000000 1.0
C      1  0.5541910000000  0.5023560000000  0.5877760000000 1.0
C      1  0.4571580000000  0.4365370000000  0.5253530000000 1.0
C      1  0.4912880000000  0.4332040000000  0.5919390000000 1.0
C      1  0.4261800000000  0.4683230000000  0.5630880000000 1.0
C      1  0.5557050000000  0.5230210000000  0.5634390000000 1.0
C      1  0.4916630000000  0.5891130000000  0.5002970000000 1.0
C      1  0.5472190000000  0.4156710000000  0.4274590000000 1.0
C      1  0.5132530000000  0.5880330000000  0.5844730000000 1.0
C      1  0.4194380000000  0.5046110000000  0.4636040000000 1.0
C      1  0.4820820000000  0.5959420000000  0.4471410000000 1.0
C      1  0.4512540000000  0.5770890000000  0.4685280000000 1.0
C      1  0.4782850000000  0.4634060000000  0.4168770000000 1.0
C      1  0.5917690000000  0.4672240000000  0.4495720000000 1.0
C      1  0.5511640000000  0.5730370000000  0.5457560000000 1.0
C      1  0.5224010000000  0.5700980000000  0.4358390000000 1.0
C      1  0.5600760000000  0.5407120000000  0.4989910000000 1.0
C      1  0.4098410000000  0.4630950000000  0.5048190000000 1.0
C      1  0.5062900000000  0.4070790000000  0.4662530000000 1.0
C      1  0.4711650000000  0.5408390000000  0.5080370000000 1.0
C      1  0.5450420000000  0.5524800000000  0.5672460000000 1.0
C      1  0.5392180000000  0.4036930000000  0.4553610000000 1.0
C      1  0.3841720000000  0.5216140000000  0.5269330000000 1.0
C      1  0.4541330000000  0.4656620000000  0.6065840000000 1.0
C      1  0.3888380000000  0.4966420000000  0.5412860000000 1.0
C      1  0.5291110000000  0.4889990000000  0.5375960000000 1.0
C      1  0.5294170000000  0.4613900000000  0.4128180000000 1.0
C      1  0.4567080000000  0.4665420000000  0.5217690000000 1.0
C      1  0.5203520000000  0.4164600000000  0.5408850000000 1.0
C      1  0.4453810000000  0.4586400000000  0.4714570000000 1.0
C      1  0.5146550000000  0.6042990000000  0.5605650000000 1.0
C      1  0.5147350000000  0.4375070000000  0.4596520000000 1.0
C      1  0.5362030000000  0.5478060000000  0.4811540000000 1.0
C      1  0.3953410000000  0.5036750000000  0.4807550000000 1.0
C      1  0.5307310000000  0.4062120000000  0.5144350000000 1.0
C      1  0.5566720000000  0.4214160000000  0.4731350000000 1.0
C      1  0.5459520000000  0.4788450000000  0.4656360000000 1.0
C      1  0.5308780000000  0.5957310000000  0.5381070000000 1.0
C      1  0.4542150000000  0.5243320000000  0.5957900000000 1.0
C      1  0.4590470000000  0.4411080000000  0.4150530000000 1.0
C      1  0.5524580000000  0.4213160000000  0.5022370000000 1.0
C      1  0.5644500000000  0.4508830000000  0.4610680000000 1.0
C      1  0.5611550000000  0.5161550000000  0.5146380000000 1.0
C      1  0.4850440000000  0.4192260000000  0.5404460000000 1.0
C      1  0.4738260000000  0.4927550000000  0.4026550000000 1.0
C      1  0.5884630000000  0.5241940000000  0.4364200000000 1.0
C      1  0.5970630000000  0.5297750000000  0.4637780000000 1.0
C      1  0.5147110000000  0.5062140000000  0.4940770000000 1.0
C      1  0.4089480000000  0.5732110000000  0.5110550000000 1.0
C      1  0.5501540000000  0.5640650000000  0.5172700000000 1.0
C      1  0.4627700000000  0.4900070000000  0.5603250000000 1.0
C      1  0.5209710000000  0.5595390000000  0.5848800000000 1.0
C      1  0.5646620000000  0.5393520000000  0.4263700000000 1.0
C      1  0.4884710000000  0.4947530000000  0.4964240000000 1.0
C      1  0.5354020000000  0.4956990000000  0.4436770000000 1.0
C      1  0.5009550000000  0.5087990000000  0.5875420000000 1.0
C      1  0.6172100000000  0.5196850000000  0.5079030000000 1.0
C      1  0.5852270000000  0.5160460000000  0.5500860000000 1.0
C      1  0.4780420000000  0.4174350000000  0.5704680000000 1.0
C      1  0.4421380000000  0.5555550000000  0.5470980000000 1.0
C      1  0.5563920000000  0.5001200000000  0.3917400000000 1.0
C      1  0.4685280000000  0.5031740000000  0.4764660000000 1.0
C      1  0.5634140000000  0.5600150000000  0.4515830000000 1.0
C      1  0.4305220000000  0.4806990000000  0.5200510000000 1.0
C      1  0.5023530000000  0.5026420000000  0.4055920000000 1.0
C      1  0.5204330000000  0.4519710000000  0.4871650000000 1.0
C      1  0.5043810000000  0.5290760000000  0.4535630000000 1.0
C      1  0.4739240000000  0.4524480000000  0.4661220000000 1.0
C      1  0.5685920000000  0.5816290000000  0.4957610000000 1.0
C      1  0.4284630000000  0.4407940000000  0.4535700000000 1.0
C      1  0.4032150000000  0.5522920000000  0.4911600000000 1.0
C      1  0.4942630000000  0.5599690000000  0.5109940000000 1.0
C      1  0.4868640000000  0.4687260000000  0.4453850000000 1.0
C      1  0.5790310000000  0.4653780000000  0.5393260000000 1.0
C      1  0.5704550000000  0.4349250000000  0.4333220000000 1.0
C      1  0.4292400000000  0.4478350000000  0.4230650000000 1.0
C      1  0.4692960000000  0.5497460000000  0.5917650000000 1.0
C      1  0.5207360000000  0.5500080000000  0.5201250000000 1.0
C      1  0.4247130000000  0.5309730000000  0.4492520000000 1.0
END
