TITL C-862132-7359-345 0.00951510889496628 125000 -134.608361485607 0 0 25 (C3) n - 1
REM
REM in /home/nfs/bkarasulu/CARBON/AIRSS/Generating-Clusters/TERSOFF/Higher-Symm/FIRE-HFTN
REM
REM
REM
REM
REM
REM ./C.cell (b20cbc046b6831c77cfcea5457e17084)
REM AIRSS Version 0.9.1 bugfix July 2018 build 013d7b7c2542+ Fri, 06 Jul 2018 19:26:36 +0100
REM compiler GCC version 9.2.1 20190827 (Red Hat 9.2.1-1)
REM options -cpp -mtune=generic -march=x86-64 -g -O0 -fpre-include=/usr/include/finclude/math-vector-fortran.h
REM seed -408872072 -641626367 1172985325 -1581191887 -1599556534 -983964770 579949704 1309479234 -1450061974 -2128929835 -651146552 -1843483214 -1060445789 655074758 -1121092217 -1602706887 -51353015 516550863 -1163772702 -793608382 -1574674367 -738758620 -758027163 -1475910747 -1793906657 -255194385 1592540423 -679142243 589774326 131886980 1781202667 23021396 -600347297
REM
CELL 1.54180   50.00000   50.00000   50.00000   90.00000   90.00000   90.00000
LATT -1
SFAC C  
C      1  0.5504520000000  0.4845520000000  0.5151420000000 1.0
C      1  0.4636180000000  0.4644390000000  0.5151420000000 1.0
C      1  0.4896170000000  0.5496960000000  0.5151420000000 1.0
C      1  0.5409200000000  0.5025800000000  0.4676290000000 1.0
C      1  0.4839970000000  0.4636800000000  0.4676290000000 1.0
C      1  0.4787700000000  0.5324270000000  0.4676290000000 1.0
C      1  0.4518660000000  0.5226770000000  0.4738120000000 1.0
C      1  0.5459290000000  0.5307540000000  0.4738120000000 1.0
C      1  0.5058920000000  0.4452550000000  0.4738120000000 1.0
C      1  0.5079750000000  0.4703230000000  0.5363220000000 1.0
C      1  0.4725340000000  0.5083410000000  0.5363220000000 1.0
C      1  0.5231790000000  0.5200240000000  0.5363210000000 1.0
C      1  0.4942570000000  0.5301310000000  0.5371150000000 1.0
C      1  0.5311880000000  0.4903160000000  0.5371150000000 1.0
C      1  0.4782420000000  0.4782400000000  0.5371150000000 1.0
C      1  0.5338750000000  0.4532700000000  0.4782810000000 1.0
C      1  0.4448160000000  0.4944370000000  0.4782820000000 1.0
C      1  0.5249970000000  0.5509800000000  0.4782810000000 1.0
C      1  0.5060070000000  0.4724320000000  0.5058300000000 1.0
C      1  0.4753450000000  0.5089900000000  0.5058300000000 1.0
C      1  0.5223350000000  0.5172650000000  0.5058300000000 1.0
C      1  0.4636710000000  0.4733960000000  0.4868620000000 1.0
C      1  0.4973480000000  0.5451710000000  0.4868610000000 1.0
C      1  0.5426680000000  0.4801190000000  0.4868610000000 1.0
C      1  0.5012290000000  0.4995620000000  0.4948650000000 1.0
END
