TITL C-862501-1041-926 -8.43459521338648e-05 125000 -371.375294006938 0 0 74 (C1) n - 1
REM
REM in /home/nfs/bkarasulu/CARBON/AIRSS/Generating-Clusters/TERSOFF/Higher-Symm/FIRE-HFTN
REM
REM
REM
REM
REM
REM ./C.cell (b20cbc046b6831c77cfcea5457e17084)
REM AIRSS Version 0.9.1 bugfix July 2018 build 013d7b7c2542+ Fri, 06 Jul 2018 19:26:36 +0100
REM compiler GCC version 9.2.1 20190827 (Red Hat 9.2.1-1)
REM options -cpp -mtune=generic -march=x86-64 -g -O0 -fpre-include=/usr/include/finclude/math-vector-fortran.h
REM seed -1248166841 -1949205097 1439632101 -91851954 -1306249915 -1327432464 14133425 -17393028 231121130 -20789933 -986627296 -1674203762 385304249 -258737611 -7528413 -390233294 17006949 -474782199 -1538286607 1925777997 -533792223 -686095462 -1447860146 1928309477 -387954217 -942518241 546166515 -337373792 -736382334 115649532 -734537913 437998254 -1291366909
REM
CELL 1.54180   50.00000   50.00000   50.00000   90.00000   90.00000   90.00000
LATT -1
SFAC C  
C      1  0.4350070000000  0.4557650000000  0.5039420000000 1.0
C      1  0.5669130000000  0.5428360000000  0.5035810000000 1.0
C      1  0.5666710000000  0.4573240000000  0.4947740000000 1.0
C      1  0.4330810000000  0.5428640000000  0.4944400000000 1.0
C      1  0.4574910000000  0.4333410000000  0.5036630000000 1.0
C      1  0.5439410000000  0.5647290000000  0.5040370000000 1.0
C      1  0.4558490000000  0.5649550000000  0.4942710000000 1.0
C      1  0.5438750000000  0.4351850000000  0.4946100000000 1.0
C      1  0.5268520000000  0.4514550000000  0.4739230000000 1.0
C      1  0.4732010000000  0.5488080000000  0.4737570000000 1.0
C      1  0.4737920000000  0.4508590000000  0.5241110000000 1.0
C      1  0.5260790000000  0.5491520000000  0.5245190000000 1.0
C      1  0.4507940000000  0.5265620000000  0.4741470000000 1.0
C      1  0.5490300000000  0.4734610000000  0.4742920000000 1.0
C      1  0.4513590000000  0.4728550000000  0.5245100000000 1.0
C      1  0.5487130000000  0.5273460000000  0.5240990000000 1.0
C      1  0.4777090000000  0.4510980000000  0.4605500000000 1.0
C      1  0.5229460000000  0.5475940000000  0.4608470000000 1.0
C      1  0.5228850000000  0.4531690000000  0.5375130000000 1.0
C      1  0.4768970000000  0.5470370000000  0.5372910000000 1.0
C      1  0.4524070000000  0.4768310000000  0.4608930000000 1.0
C      1  0.5489320000000  0.5225510000000  0.4605910000000 1.0
C      1  0.4503560000000  0.5225710000000  0.5376470000000 1.0
C      1  0.5494130000000  0.4776400000000  0.5378550000000 1.0
C      1  0.5010000000000  0.4653670000000  0.4826360000000 1.0
C      1  0.4988630000000  0.5349760000000  0.4828800000000 1.0
C      1  0.4991600000000  0.4652880000000  0.5151290000000 1.0
C      1  0.5007160000000  0.5349190000000  0.5152870000000 1.0
C      1  0.4648970000000  0.5009150000000  0.4831800000000 1.0
C      1  0.5348020000000  0.4992830000000  0.4829320000000 1.0
C      1  0.4649870000000  0.4989420000000  0.5156880000000 1.0
C      1  0.5348460000000  0.5012440000000  0.5155240000000 1.0
C      1  0.4625780000000  0.5656100000000  0.5642530000000 1.0
C      1  0.5371950000000  0.4346990000000  0.5645280000000 1.0
C      1  0.5381460000000  0.5658910000000  0.4340050000000 1.0
C      1  0.4580960000000  0.4433090000000  0.4362640000000 1.0
C      1  0.5565450000000  0.4576810000000  0.5621900000000 1.0
C      1  0.4432060000000  0.5426300000000  0.5619440000000 1.0
C      1  0.5566030000000  0.5422140000000  0.4363340000000 1.0
C      1  0.4342070000000  0.4614970000000  0.4340930000000 1.0
C      1  0.4754800000000  0.3997990000000  0.4701300000000 1.0
C      1  0.5274660000000  0.5990470000000  0.4705760000000 1.0
C      1  0.5265480000000  0.4015180000000  0.5282910000000 1.0
C      1  0.4728070000000  0.5986930000000  0.5281080000000 1.0
C      1  0.4009120000000  0.4728530000000  0.4706030000000 1.0
C      1  0.6002480000000  0.5243320000000  0.4701600000000 1.0
C      1  0.3991910000000  0.5251780000000  0.5277520000000 1.0
C      1  0.6005620000000  0.4751540000000  0.5279670000000 1.0
C      1  0.5281300000000  0.5498200000000  0.5560090000000 1.0
C      1  0.4716920000000  0.4502290000000  0.5555750000000 1.0
C      1  0.4719880000000  0.5504930000000  0.4423830000000 1.0
C      1  0.5286760000000  0.4484290000000  0.4426920000000 1.0
C      1  0.5524310000000  0.5281900000000  0.5551890000000 1.0
C      1  0.4474360000000  0.4719460000000  0.5555890000000 1.0
C      1  0.5519030000000  0.4717220000000  0.4430470000000 1.0
C      1  0.4492090000000  0.5276680000000  0.4427830000000 1.0
C      1  0.5516130000000  0.4993680000000  0.5609020000000 1.0
C      1  0.4482000000000  0.5009430000000  0.5609250000000 1.0
C      1  0.4528970000000  0.4989540000000  0.4373190000000 1.0
C      1  0.5502090000000  0.5007180000000  0.4374030000000 1.0
C      1  0.4991720000000  0.5452830000000  0.5609940000000 1.0
C      1  0.5004820000000  0.4547600000000  0.5609760000000 1.0
C      1  0.4995570000000  0.4499330000000  0.4372490000000 1.0
C      1  0.5008360000000  0.5468930000000  0.4371480000000 1.0
C      1  0.5731560000000  0.4699800000000  0.5199880000000 1.0
C      1  0.4266040000000  0.5302670000000  0.5197350000000 1.0
C      1  0.4283770000000  0.4683510000000  0.4787810000000 1.0
C      1  0.5729860000000  0.5299600000000  0.4783300000000 1.0
C      1  0.4683830000000  0.5713160000000  0.5195980000000 1.0
C      1  0.5312280000000  0.4288720000000  0.5198460000000 1.0
C      1  0.4701700000000  0.4271170000000  0.4783240000000 1.0
C      1  0.5315880000000  0.5715310000000  0.4787780000000 1.0
C      1  0.4999110000000  0.5001090000000  0.4763690000000 1.0
C      1  0.4999090000000  0.5001250000000  0.5219430000000 1.0
END
