TITL C-862501-1041-1196 0.00872903684701728 125000 -359.655471083721 0 0 61 (Cs) n - 1
REM
REM in /home/nfs/bkarasulu/CARBON/AIRSS/Generating-Clusters/TERSOFF/Higher-Symm/FIRE-HFTN
REM
REM
REM
REM
REM
REM ./C.cell (b20cbc046b6831c77cfcea5457e17084)
REM AIRSS Version 0.9.1 bugfix July 2018 build 013d7b7c2542+ Fri, 06 Jul 2018 19:26:36 +0100
REM compiler GCC version 9.2.1 20190827 (Red Hat 9.2.1-1)
REM options -cpp -mtune=generic -march=x86-64 -g -O0 -fpre-include=/usr/include/finclude/math-vector-fortran.h
REM seed 539094166 1685106915 549162870 -984316599 1085164426 -1714997896 1856813514 -1613094634 874819577 -380813524 861516664 508456094 -1486208516 -263814432 -791611660 -422666252 -231534536 -1689524820 -242969508 938530180 174876074 -1616688862 -7093505 1561857197 1771819380 1658209827 1782006019 -874582969 -39723274 -2005395517 -997056210 -1802289552 1189401781
REM
CELL 1.54180   50.00000   50.00000   50.00000   90.00000   90.00000   90.00000
LATT -1
SFAC C  
C      1  0.5067570000000  0.5550020000000  0.4600060000000 1.0
C      1  0.5068100000000  0.5550290000000  0.5395650000000 1.0
C      1  0.4422360000000  0.4942950000000  0.4717310000000 1.0
C      1  0.4422740000000  0.4943140000000  0.5279660000000 1.0
C      1  0.5302240000000  0.5094610000000  0.4598440000000 1.0
C      1  0.5302770000000  0.5094870000000  0.5397260000000 1.0
C      1  0.5043810000000  0.4818300000000  0.5844080000000 1.0
C      1  0.5042690000000  0.4817740000000  0.4152140000000 1.0
C      1  0.4961270000000  0.4431760000000  0.5294800000000 1.0
C      1  0.4960880000000  0.4431560000000  0.4701790000000 1.0
C      1  0.4852630000000  0.5170740000000  0.4847590000000 1.0
C      1  0.4852830000000  0.5170840000000  0.5148650000000 1.0
C      1  0.4857750000000  0.5732070000000  0.4686090000000 1.0
C      1  0.4858170000000  0.5732270000000  0.5309780000000 1.0
C      1  0.5281990000000  0.5635530000000  0.4425610000000 1.0
C      1  0.5282750000000  0.5635910000000  0.5569750000000 1.0
C      1  0.5454050000000  0.4517010000000  0.4695370000000 1.0
C      1  0.5454450000000  0.4517210000000  0.5300510000000 1.0
C      1  0.5201030000000  0.4512500000000  0.4550820000000 1.0
C      1  0.5201620000000  0.4512800000000  0.5445390000000 1.0
C      1  0.4661040000000  0.5306160000000  0.4187000000000 1.0
C      1  0.4662120000000  0.5306690000000  0.5809410000000 1.0
C      1  0.5533650000000  0.5005430000000  0.4743430000000 1.0
C      1  0.5533990000000  0.5005600000000  0.5252020000000 1.0
C      1  0.4631790000000  0.5657640000000  0.5143750000000 1.0
C      1  0.4631600000000  0.5657540000000  0.4852470000000 1.0
C      1  0.4805840000000  0.4637900000000  0.4844650000000 1.0
C      1  0.4806040000000  0.4638000000000  0.5152010000000 1.0
C      1  0.4220090000000  0.4247900000000  0.5142430000000 1.0
C      1  0.4219900000000  0.4247800000000  0.4855260000000 1.0
C      1  0.4578680000000  0.5351020000000  0.4463550000000 1.0
C      1  0.4579380000000  0.5351380000000  0.5532940000000 1.0
C      1  0.4938360000000  0.5307480000000  0.5902980000000 1.0
C      1  0.4937160000000  0.5306880000000  0.4093070000000 1.0
C      1  0.4612670000000  0.5158450000000  0.4681700000000 1.0
C      1  0.4613090000000  0.5158660000000  0.5314870000000 1.0
C      1  0.5702320000000  0.5441750000000  0.4628200000000 1.0
C      1  0.5702810000000  0.5441990000000  0.5366740000000 1.0
C      1  0.5192340000000  0.4589600000000  0.5731660000000 1.0
C      1  0.5191370000000  0.4589110000000  0.4264520000000 1.0
C      1  0.5135140000000  0.5101270000000  0.5841520000000 1.0
C      1  0.5134020000000  0.5100710000000  0.4154390000000 1.0
C      1  0.4347220000000  0.4449860000000  0.4691690000000 1.0
C      1  0.4347630000000  0.4450060000000  0.5305710000000 1.0
C      1  0.5707090000000  0.5222570000000  0.4840690000000 1.0
C      1  0.5707300000000  0.5222670000000  0.5154390000000 1.0
C      1  0.4336140000000  0.4432500000000  0.4401740000000 1.0
C      1  0.4336940000000  0.4432890000000  0.5595680000000 1.0
C      1  0.4971110000000  0.4179240000000  0.4852980000000 1.0
C      1  0.4971300000000  0.4179340000000  0.5143760000000 1.0
C      1  0.5366450000000  0.5171020000000  0.5669900000000 1.0
C      1  0.5365550000000  0.5170570000000  0.4325660000000 1.0
C      1  0.4489740000000  0.4675530000000  0.5174780000000 1.0
C      1  0.4489500000000  0.4675420000000  0.4822280000000 1.0
C      1  0.5502230000000  0.5446720000000  0.4390220000000 1.0
C      1  0.5503040000000  0.5447120000000  0.5604980000000 1.0
C      1  0.5547380000000  0.4739790000000  0.4852880000000 1.0
C      1  0.5547570000000  0.4739890000000  0.5142730000000 1.0
C      1  0.5111250000000  0.5285590000000  0.4740570000000 1.0
C      1  0.5111590000000  0.5285760000000  0.5255260000000 1.0
C      1  0.5241940000000  0.5349840000000  0.4997810000000 1.0
END
