TITL C-862127-1500-425 0.0401562924538286 125000 -148.377004637647 0 0 31 (C3) n - 1
REM
REM in /home/nfs/bkarasulu/CARBON/AIRSS/Generating-Clusters/TERSOFF/Higher-Symm/FIRE-HFTN
REM
REM
REM
REM
REM
REM ./C.cell (b20cbc046b6831c77cfcea5457e17084)
REM AIRSS Version 0.9.1 bugfix July 2018 build 013d7b7c2542+ Fri, 06 Jul 2018 19:26:36 +0100
REM compiler GCC version 9.2.1 20190827 (Red Hat 9.2.1-1)
REM options -cpp -mtune=generic -march=x86-64 -g -O0 -fpre-include=/usr/include/finclude/math-vector-fortran.h
REM seed -556098424 1351649335 1155236985 907662026 722068783 -1577203633 -851950886 931364187 -878356709 -1547405798 -839119473 -985149544 697941764 -1766789909 1923254977 386455745 -1257694965 876966266 -1550372887 759945850 783084503 -413144608 166699812 1483692062 -2063232567 -2039733155 -1204338177 427283267 1301409968 -865312268 -1709854119 -994590496 -565674448
REM
CELL 1.54180   50.00000   50.00000   50.00000   90.00000   90.00000   90.00000
LATT -1
SFAC C  
C      1  0.5321070000000  0.5053110000000  0.5051210000000 1.0
C      1  0.4786640000000  0.5053110000000  0.5265450000000 1.0
C      1  0.4868320000000  0.5053110000000  0.4695500000000 1.0
C      1  0.4914710000000  0.4743990000000  0.4708460000000 1.0
C      1  0.5286660000000  0.4743990000000  0.5084910000000 1.0
C      1  0.4774660000000  0.4743990000000  0.5218800000000 1.0
C      1  0.5482480000000  0.4963140000000  0.4785680000000 1.0
C      1  0.4935890000000  0.4963140000000  0.5538010000000 1.0
C      1  0.4557650000000  0.4963130000000  0.4688480000000 1.0
C      1  0.4527680000000  0.5183740000000  0.5332200000000 1.0
C      1  0.4939990000000  0.5183740000000  0.4437860000000 1.0
C      1  0.5508360000000  0.5183750000000  0.5242100000000 1.0
C      1  0.4764190000000  0.5355950000000  0.4285490000000 1.0
C      1  0.5728210000000  0.5355960000000  0.5166030000000 1.0
C      1  0.4483630000000  0.5355950000000  0.5560630000000 1.0
C      1  0.4615970000000  0.4635240000000  0.4763410000000 1.0
C      1  0.5388430000000  0.4635240000000  0.4798720000000 1.0
C      1  0.4971630000000  0.4635240000000  0.5450040000000 1.0
C      1  0.5380190000000  0.4894070000000  0.5517880000000 1.0
C      1  0.4352930000000  0.4894060000000  0.5083320000000 1.0
C      1  0.5242900000000  0.4894060000000  0.4410970000000 1.0
C      1  0.5359820000000  0.5125790000000  0.4565620000000 1.0
C      1  0.5187790000000  0.5125790000000  0.5541810000000 1.0
C      1  0.4428410000000  0.5125790000000  0.4904730000000 1.0
C      1  0.5194130000000  0.5313090000000  0.4746150000000 1.0
C      1  0.5114290000000  0.5313090000000  0.5308040000000 1.0
C      1  0.4667600000000  0.5313080000000  0.4957960000000 1.0
C      1  0.4537350000000  0.4654520000000  0.5062890000000 1.0
C      1  0.5168390000000  0.4654520000000  0.4580890000000 1.0
C      1  0.5270300000000  0.4654530000000  0.5368380000000 1.0
C      1  0.4992010000000  0.5200620000000  0.5004050000000 1.0
END
