TITL C-862127-1500-897 90349.8059380704 125000 -540.741038134241 0 0 93 (C1) n - 1
REM
REM in /home/nfs/bkarasulu/CARBON/AIRSS/Generating-Clusters/TERSOFF/Higher-Symm/FIRE-HFTN
REM
REM
REM
REM
REM
REM ./C.cell (b20cbc046b6831c77cfcea5457e17084)
REM AIRSS Version 0.9.1 bugfix July 2018 build 013d7b7c2542+ Fri, 06 Jul 2018 19:26:36 +0100
REM compiler GCC version 9.2.1 20190827 (Red Hat 9.2.1-1)
REM options -cpp -mtune=generic -march=x86-64 -g -O0 -fpre-include=/usr/include/finclude/math-vector-fortran.h
REM seed -1341758517 2095477180 -69808141 973210221 1045315390 98778612 1973582596 748046612 -1026521175 -714562006 1026839266 -1551971931 479930763 -45612365 1114093554 1510051042 1408535208 -633575183 -1086705760 1276743217 -320734649 1828626466 1653347829 109898669 637636700 -1438525805 1070118390 1005383646 -1573055210 -576866703 -1748349345 879144074 -964237485
REM
CELL 1.54180   50.00000   50.00000   50.00000   90.00000   90.00000   90.00000
LATT -1
SFAC C  
C      1  0.4351240000000  0.5623490000000  0.5012890000000 1.0
C      1  0.5637970000000  0.4378790000000  0.5015150000000 1.0
C      1  0.4350500000000  0.4378590000000  0.5014210000000 1.0
C      1  0.5637040000000  0.5623790000000  0.5014110000000 1.0
C      1  0.5221560000000  0.4784030000000  0.4958280000000 1.0
C      1  0.4766140000000  0.5216040000000  0.4956830000000 1.0
C      1  0.5221550000000  0.5216590000000  0.4957630000000 1.0
C      1  0.4765980000000  0.4784740000000  0.4957450000000 1.0
C      1  0.4625530000000  0.5128220000000  0.4118710000000 1.0
C      1  0.5408910000000  0.4848560000000  0.4150570000000 1.0
C      1  0.4578950000000  0.4844650000000  0.4149700000000 1.0
C      1  0.5364290000000  0.5132390000000  0.4119100000000 1.0
C      1  0.5272840000000  0.5301440000000  0.5794100000000 1.0
C      1  0.4714960000000  0.4702710000000  0.5794000000000 1.0
C      1  0.5272970000000  0.4702730000000  0.5794690000000 1.0
C      1  0.4714810000000  0.5301330000000  0.5793450000000 1.0
C      1  0.5598570000000  0.5562730000000  0.5488670000000 1.0
C      1  0.4389110000000  0.4440750000000  0.5489090000000 1.0
C      1  0.5599340000000  0.4441090000000  0.5490070000000 1.0
C      1  0.4389470000000  0.5562670000000  0.5487650000000 1.0
C      1  0.5782170000000  0.4651470000000  0.4986230000000 1.0
C      1  0.4205660000000  0.5351630000000  0.4986100000000 1.0
C      1  0.5782530000000  0.5351930000000  0.4987120000000 1.0
C      1  0.4205960000000  0.4651130000000  0.4985450000000 1.0
C      1  0.4448610000000  0.4720550000000  0.5382000000000 1.0
C      1  0.5539070000000  0.5282700000000  0.5382380000000 1.0
C      1  0.4448760000000  0.5282540000000  0.5381550000000 1.0
C      1  0.5539340000000  0.4720730000000  0.5382780000000 1.0
C      1  0.5891090000000  0.5144920000000  0.4527280000000 1.0
C      1  0.4082470000000  0.4850300000000  0.4524550000000 1.0
C      1  0.5905430000000  0.4851080000000  0.4525430000000 1.0
C      1  0.4097910000000  0.5144060000000  0.4526360000000 1.0
C      1  0.4654690000000  0.5726570000000  0.5486930000000 1.0
C      1  0.5334330000000  0.4276620000000  0.5489790000000 1.0
C      1  0.4654340000000  0.4276590000000  0.5488910000000 1.0
C      1  0.5333410000000  0.5726720000000  0.5487740000000 1.0
C      1  0.5290450000000  0.4689630000000  0.4687000000000 1.0
C      1  0.4696760000000  0.5308830000000  0.4684700000000 1.0
C      1  0.5290930000000  0.5309770000000  0.4685950000000 1.0
C      1  0.4696670000000  0.4691270000000  0.4685630000000 1.0
C      1  0.5740500000000  0.5154220000000  0.5209270000000 1.0
C      1  0.4247710000000  0.4849080000000  0.5208020000000 1.0
C      1  0.5740110000000  0.4849340000000  0.5208740000000 1.0
C      1  0.4247340000000  0.5154000000000  0.5208460000000 1.0
C      1  0.5357280000000  0.5666260000000  0.5161180000000 1.0
C      1  0.4630180000000  0.4335760000000  0.5161900000000 1.0
C      1  0.5358420000000  0.4335730000000  0.5162890000000 1.0
C      1  0.4630930000000  0.5666090000000  0.5160250000000 1.0
C      1  0.5148830000000  0.5163060000000  0.6019200000000 1.0
C      1  0.4838500000000  0.4841530000000  0.6019120000000 1.0
C      1  0.5148920000000  0.4841540000000  0.6019520000000 1.0
C      1  0.4838410000000  0.5163010000000  0.6018840000000 1.0
C      1  0.5962960000000  0.5294910000000  0.4766640000000 1.0
C      1  0.4018450000000  0.4704010000000  0.4769240000000 1.0
C      1  0.5969570000000  0.4704560000000  0.4769960000000 1.0
C      1  0.4025640000000  0.5294380000000  0.4765370000000 1.0
C      1  0.5146890000000  0.4449610000000  0.5678210000000 1.0
C      1  0.4841260000000  0.5554020000000  0.5676490000000 1.0
C      1  0.5146540000000  0.5554140000000  0.5676910000000 1.0
C      1  0.4841350000000  0.4449670000000  0.5677740000000 1.0
C      1  0.4549030000000  0.4859070000000  0.5614250000000 1.0
C      1  0.5438980000000  0.5144670000000  0.5614900000000 1.0
C      1  0.4548910000000  0.5144530000000  0.5614060000000 1.0
C      1  0.5438970000000  0.4859200000000  0.5615080000000 1.0
C      1  0.4553670000000  0.4441170000000  0.4652010000000 1.0
C      1  0.5433320000000  0.5560280000000  0.4652380000000 1.0
C      1  0.4554140000000  0.5559130000000  0.4650850000000 1.0
C      1  0.5432340000000  0.4438780000000  0.4653900000000 1.0
C      1  0.4851970000000  0.5209660000000  0.4462940000000 1.0
C      1  0.5136730000000  0.4789620000000  0.4464950000000 1.0
C      1  0.4852010000000  0.4789820000000  0.4464070000000 1.0
C      1  0.5137030000000  0.5209480000000  0.4463780000000 1.0
C      1  0.4437020000000  0.5334850000000  0.4190470000000 1.0
C      1  0.5658390000000  0.4713510000000  0.4094300000000 1.0
C      1  0.4328510000000  0.4711440000000  0.4093310000000 1.0
C      1  0.5554330000000  0.5337810000000  0.4190220000000 1.0
C      1  0.5144430000000  0.4045790000000  0.4819350000000 1.0
C      1  0.4858030000000  0.5928000000000  0.4840720000000 1.0
C      1  0.5145960000000  0.5956770000000  0.4810330000000 1.0
C      1  0.4856610000000  0.4075460000000  0.4849340000000 1.0
C      1  0.4679740000000  0.5820260000000  0.4638500000000 1.0
C      1  0.5305130000000  0.4180400000000  0.4618400000000 1.0
C      1  0.4678340000000  0.4179390000000  0.4645140000000 1.0
C      1  0.5306630000000  0.5818210000000  0.4612040000000 1.0
C      1  0.4675660000000  0.5369690000000  0.5186330000000 1.0
C      1  0.5312470000000  0.4631930000000  0.5188380000000 1.0
C      1  0.4675170000000  0.4632080000000  0.5187260000000 1.0
C      1  0.5311910000000  0.5369920000000  0.5187340000000 1.0
C      1  0.4100230000000  0.4705640000000  0.4271890000000 1.0
C      1  0.5823480000000  0.5288280000000  0.4283240000000 1.0
C      1  0.4167250000000  0.5287070000000  0.4282610000000 1.0
C      1  0.5886750000000  0.4706510000000  0.4272760000000 1.0
C      1  0.4994170000000  0.5000330000000  0.4992980000000 1.0
END
