TITL C-862501-1041-1189 0.278855209180113 125000 -375.638622111119 0 0 68 (C3) n - 1
REM
REM in /home/nfs/bkarasulu/CARBON/AIRSS/Generating-Clusters/TERSOFF/Higher-Symm/FIRE-HFTN
REM
REM
REM
REM
REM
REM ./C.cell (b20cbc046b6831c77cfcea5457e17084)
REM AIRSS Version 0.9.1 bugfix July 2018 build 013d7b7c2542+ Fri, 06 Jul 2018 19:26:36 +0100
REM compiler GCC version 9.2.1 20190827 (Red Hat 9.2.1-1)
REM options -cpp -mtune=generic -march=x86-64 -g -O0 -fpre-include=/usr/include/finclude/math-vector-fortran.h
REM seed 1167055351 -239596901 -1945007160 1797114616 627046496 610779750 -686075779 446678676 -9354987 302049822 2013583540 -1950074946 1555526089 1676219788 2088583043 -1696590534 -563211889 1523655962 -2078696930 -1536235450 -1673662547 -1325673241 1894751004 1430295766 1226789070 229063297 -1614501674 -660755342 -665481381 -2059495611 1546356426 -322402370 1414394621
REM
CELL 1.54180   50.00000   50.00000   50.00000   90.00000   90.00000   90.00000
LATT -1
SFAC C  
C      1  0.5265820000000  0.4330110000000  0.5556390000000 1.0
C      1  0.5444070000000  0.5584680000000  0.5556390000000 1.0
C      1  0.4268460000000  0.5111770000000  0.5556390000000 1.0
C      1  0.5485980000000  0.4474330000000  0.5130860000000 1.0
C      1  0.5209090000000  0.5703240000000  0.5130860000000 1.0
C      1  0.4283270000000  0.4848990000000  0.5130860000000 1.0
C      1  0.4515600000000  0.4657880000000  0.5528040000000 1.0
C      1  0.5535320000000  0.4771080000000  0.5528040000000 1.0
C      1  0.4927430000000  0.5597590000000  0.5528040000000 1.0
C      1  0.5604030000000  0.5422040000000  0.5034280000000 1.0
C      1  0.4329320000000  0.5331610000000  0.5034280000000 1.0
C      1  0.5044990000000  0.4272900000000  0.5034280000000 1.0
C      1  0.5158580000000  0.4270690000000  0.4760010000000 1.0
C      1  0.5549150000000  0.5521520000000  0.4760010000000 1.0
C      1  0.4270610000000  0.5234350000000  0.4760010000000 1.0
C      1  0.4784940000000  0.5497650000000  0.4943940000000 1.0
C      1  0.4673390000000  0.4584460000000  0.4943940000000 1.0
C      1  0.5520010000000  0.4944450000000  0.4943940000000 1.0
C      1  0.5872590000000  0.4751970000000  0.4622850000000 1.0
C      1  0.4775340000000  0.5899220000000  0.4622850000000 1.0
C      1  0.4330420000000  0.4375360000000  0.4622850000000 1.0
C      1  0.4298960000000  0.4848920000000  0.5418770000000 1.0
C      1  0.5478200000000  0.4487950000000  0.5418770000000 1.0
C      1  0.5201190000000  0.5689690000000  0.5418770000000 1.0
C      1  0.5169250000000  0.5274470000000  0.5194370000000 1.0
C      1  0.4674510000000  0.5028870000000  0.5194370000000 1.0
C      1  0.5134580000000  0.4723220000000  0.5194370000000 1.0
C      1  0.4756020000000  0.5142460000000  0.5600960000000 1.0
C      1  0.4995450000000  0.4737010000000  0.5600960000000 1.0
C      1  0.5226870000000  0.5147080000000  0.5600960000000 1.0
C      1  0.5240180000000  0.4864380000000  0.5499720000000 1.0
C      1  0.4994200000000  0.5295340000000  0.5499720000000 1.0
C      1  0.4743960000000  0.4866830000000  0.5499720000000 1.0
C      1  0.4496750000000  0.5290540000000  0.5621470000000 1.0
C      1  0.4996850000000  0.4438430000000  0.5621470000000 1.0
C      1  0.5484740000000  0.5297590000000  0.5621470000000 1.0
C      1  0.5380660000000  0.4485240000000  0.4699250000000 1.0
C      1  0.5252300000000  0.5606570000000  0.4699250000000 1.0
C      1  0.4345390000000  0.4934740000000  0.4699250000000 1.0
C      1  0.4895020000000  0.5281260000000  0.4334340000000 1.0
C      1  0.4805750000000  0.4787980000000  0.4334340000000 1.0
C      1  0.5277580000000  0.4957310000000  0.4334340000000 1.0
C      1  0.5730700000000  0.4972500000000  0.4745380000000 1.0
C      1  0.4655300000000  0.5666090000000  0.4745380000000 1.0
C      1  0.4592340000000  0.4387970000000  0.4745380000000 1.0
C      1  0.4752170000000  0.4444240000000  0.5423930000000 1.0
C      1  0.5602050000000  0.5082780000000  0.5423930000000 1.0
C      1  0.4624120000000  0.5499530000000  0.5423930000000 1.0
C      1  0.5344620000000  0.5204540000000  0.4505430000000 1.0
C      1  0.4647390000000  0.5215710000000  0.4505430000000 1.0
C      1  0.4986330000000  0.4606300000000  0.4505430000000 1.0
C      1  0.5355440000000  0.4691860000000  0.4951080000000 1.0
C      1  0.5085980000000  0.5481420000000  0.4951080000000 1.0
C      1  0.4536930000000  0.4853280000000  0.4951080000000 1.0
C      1  0.5300460000000  0.4657670000000  0.4434590000000 1.0
C      1  0.5143070000000  0.5450900000000  0.4434590000000 1.0
C      1  0.4534810000000  0.4917980000000  0.4434590000000 1.0
C      1  0.5479110000000  0.5165300000000  0.5153560000000 1.0
C      1  0.4614130000000  0.5351800000000  0.5153560000000 1.0
C      1  0.4885100000000  0.4509460000000  0.5153560000000 1.0
C      1  0.5192920000000  0.5199940000000  0.4782090000000 1.0
C      1  0.4727220000000  0.5086630000000  0.4782090000000 1.0
C      1  0.5058200000000  0.4739980000000  0.4782090000000 1.0
C      1  0.4407890000000  0.5392560000000  0.4544500000000 1.0
C      1  0.4952930000000  0.4310470000000  0.4544500000000 1.0
C      1  0.5617530000000  0.5323530000000  0.4544500000000 1.0
C      1  0.4992780000000  0.5008850000000  0.4238750000000 1.0
C      1  0.4992780000000  0.5008850000000  0.4808220000000 1.0
END
