TITL C-862500-986-1040 117.028518570231 125000 -160.357163183449 0 0 30 (C1) n - 1
REM
REM in /home/nfs/bkarasulu/CARBON/AIRSS/Generating-Clusters/TERSOFF/Higher-Symm/FIRE-HFTN
REM
REM
REM
REM
REM
REM ./C.cell (b20cbc046b6831c77cfcea5457e17084)
REM AIRSS Version 0.9.1 bugfix July 2018 build 013d7b7c2542+ Fri, 06 Jul 2018 19:26:36 +0100
REM compiler GCC version 9.2.1 20190827 (Red Hat 9.2.1-1)
REM options -cpp -mtune=generic -march=x86-64 -g -O0 -fpre-include=/usr/include/finclude/math-vector-fortran.h
REM seed 299216135 -1508087650 2007693997 976828081 -1317425923 -862156280 -1033635602 -1344959036 1340341615 1540224715 -1834199495 -2032346984 -1657851925 -1238205065 137895461 1701007037 -1879516688 1990894860 518567779 1733691332 -1292131567 1016689997 -869912908 -230251069 738222491 1747730115 1253237417 1224609695 991364168 1953611074 740262117 -1821357231 -1423403126
REM
CELL 1.54180   50.00000   50.00000   50.00000   90.00000   90.00000   90.00000
LATT -1
SFAC C  
C      1  0.4408640000000  0.4578850000000  0.4840430000000 1.0
C      1  0.5179180000000  0.5452180000000  0.5143100000000 1.0
C      1  0.5081590000000  0.4525470000000  0.5164060000000 1.0
C      1  0.4388460000000  0.4305510000000  0.4950540000000 1.0
C      1  0.5315420000000  0.5349590000000  0.5378620000000 1.0
C      1  0.5429650000000  0.5246480000000  0.4301980000000 1.0
C      1  0.4815930000000  0.4499990000000  0.5051430000000 1.0
C      1  0.4675000000000  0.4727620000000  0.4890210000000 1.0
C      1  0.5322920000000  0.4567790000000  0.5010020000000 1.0
C      1  0.4634220000000  0.4977420000000  0.5061610000000 1.0
C      1  0.5184680000000  0.5736910000000  0.5084400000000 1.0
C      1  0.5037440000000  0.5269960000000  0.4966290000000 1.0
C      1  0.5742670000000  0.5140900000000  0.4960680000000 1.0
C      1  0.4796520000000  0.5633770000000  0.5565760000000 1.0
C      1  0.5623380000000  0.5314110000000  0.4761890000000 1.0
C      1  0.5399590000000  0.5241230000000  0.4591150000000 1.0
C      1  0.4735140000000  0.5236390000000  0.4957630000000 1.0
C      1  0.4904760000000  0.5060910000000  0.4552730000000 1.0
C      1  0.4500450000000  0.4961350000000  0.5318870000000 1.0
C      1  0.5474140000000  0.5107640000000  0.5385320000000 1.0
C      1  0.4647630000000  0.4257920000000  0.5083330000000 1.0
C      1  0.4745530000000  0.3998470000000  0.5166250000000 1.0
C      1  0.5145700000000  0.5163060000000  0.4709500000000 1.0
C      1  0.4819440000000  0.4788970000000  0.4631650000000 1.0
C      1  0.4689900000000  0.5253190000000  0.4655720000000 1.0
C      1  0.5562720000000  0.4695050000000  0.5110390000000 1.0
C      1  0.5036680000000  0.5938470000000  0.5230160000000 1.0
C      1  0.4215570000000  0.4097950000000  0.4846600000000 1.0
C      1  0.4893470000000  0.5891750000000  0.5477300000000 1.0
C      1  0.5593580000000  0.4981100000000  0.5152380000000 1.0
END
