TITL C-862507-1800-1308 -108.192830200853 125000 -109.577570513238 0 0 23 (S4) n - 1
REM
REM in /home/nfs/bkarasulu/CARBON/AIRSS/Generating-Clusters/TERSOFF/Higher-Symm/FIRE-HFTN
REM
REM
REM
REM
REM
REM ./C.cell (b20cbc046b6831c77cfcea5457e17084)
REM AIRSS Version 0.9.1 bugfix July 2018 build 013d7b7c2542+ Fri, 06 Jul 2018 19:26:36 +0100
REM compiler GCC version 9.2.1 20190827 (Red Hat 9.2.1-1)
REM options -cpp -mtune=generic -march=x86-64 -g -O0 -fpre-include=/usr/include/finclude/math-vector-fortran.h
REM seed -400676378 778252837 1579251357 652919896 -322676670 -682824874 1857001028 2113266309 -291438345 1369589632 1595809829 280572857 -1756363929 -740412095 1991535870 -1332830263 -957774482 -1311704109 -1554028118 -2098197017 -932389516 -770539609 -663643656 1444087926 -1850272011 1626371544 -1234871880 -1531948179 1345520160 775397598 -1310138327 62418109 1858930908
REM
CELL 1.54180   50.00000   50.00000   50.00000   90.00000   90.00000   90.00000
LATT -1
SFAC C  
C      1  0.5034840000000  0.5256410000000  0.4506250000000 1.0
C      1  0.5490820000000  0.4735410000000  0.5045140000000 1.0
C      1  0.4951910000000  0.5256350000000  0.5501160000000 1.0
C      1  0.4495910000000  0.4735430000000  0.4962200000000 1.0
C      1  0.5251560000000  0.5479670000000  0.4852890000000 1.0
C      1  0.5144190000000  0.4512120000000  0.5261840000000 1.0
C      1  0.4735200000000  0.5479660000000  0.5154550000000 1.0
C      1  0.4842540000000  0.4512160000000  0.4745480000000 1.0
C      1  0.4582870000000  0.5276500000000  0.5301670000000 1.0
C      1  0.4695400000000  0.4715320000000  0.4593170000000 1.0
C      1  0.5403880000000  0.5276520000000  0.4705740000000 1.0
C      1  0.5291330000000  0.4715260000000  0.5414170000000 1.0
C      1  0.5095510000000  0.5184080000000  0.5249460000000 1.0
C      1  0.4747610000000  0.4807710000000  0.5105810000000 1.0
C      1  0.4891240000000  0.5184110000000  0.4757940000000 1.0
C      1  0.5239120000000  0.4807710000000  0.4901540000000 1.0
C      1  0.5319070000000  0.4994900000000  0.4671240000000 1.0
C      1  0.5325820000000  0.4996890000000  0.5329390000000 1.0
C      1  0.4667670000000  0.4994870000000  0.5336140000000 1.0
C      1  0.4660920000000  0.4996940000000  0.4677990000000 1.0
C      1  0.4993370000000  0.4577780000000  0.5003660000000 1.0
C      1  0.4993380000000  0.5414030000000  0.5003710000000 1.0
C      1  0.4993370000000  0.4995900000000  0.5003690000000 1.0
END
