TITL C-862134-6730-371 8.80089432904878e-05 125000 -331.593666650876 0 0 64 (C2) n - 1
REM
REM in /home/nfs/bkarasulu/CARBON/AIRSS/Generating-Clusters/TERSOFF/Higher-Symm/FIRE-HFTN
REM
REM
REM
REM
REM
REM ./C.cell (b20cbc046b6831c77cfcea5457e17084)
REM AIRSS Version 0.9.1 bugfix July 2018 build 013d7b7c2542+ Fri, 06 Jul 2018 19:26:36 +0100
REM compiler GCC version 9.2.1 20190827 (Red Hat 9.2.1-1)
REM options -cpp -mtune=generic -march=x86-64 -g -O0 -fpre-include=/usr/include/finclude/math-vector-fortran.h
REM seed -678268626 -351557182 1971355420 -899522881 -249935609 -1764837551 536565267 1012027425 -1377998792 -49523613 603114210 1665666687 29333048 1380060491 127843226 -1850919320 -1908492649 -230247991 200688271 -548272499 -1231019245 -1365556222 1831392489 367600183 588788928 -387848044 -530737968 1821513810 21484342 -2012446803 -1443819013 -269194840 -1271357371
REM
CELL 1.54180   50.00000   50.00000   50.00000   90.00000   90.00000   90.00000
LATT -1
SFAC C  
C      1  0.5417870000000  0.5058510000000  0.5205080000000 1.0
C      1  0.5369830000000  0.4785270000000  0.4808320000000 1.0
C      1  0.4625380000000  0.5247940000000  0.5118480000000 1.0
C      1  0.4538090000000  0.4905830000000  0.4870870000000 1.0
C      1  0.5461910000000  0.5094170000000  0.4870870000000 1.0
C      1  0.5374620000000  0.4752060000000  0.5118480000000 1.0
C      1  0.4630170000000  0.5214730000000  0.4808320000000 1.0
C      1  0.4582130000000  0.4941490000000  0.5205080000000 1.0
C      1  0.4724740000000  0.4475350000000  0.4696180000000 1.0
C      1  0.4635620000000  0.5603280000000  0.5342040000000 1.0
C      1  0.5335070000000  0.4396090000000  0.4656450000000 1.0
C      1  0.5259580000000  0.5542170000000  0.5305520000000 1.0
C      1  0.4740420000000  0.4457830000000  0.5305520000000 1.0
C      1  0.4664930000000  0.5603910000000  0.4656440000000 1.0
C      1  0.5364380000000  0.4396720000000  0.5342040000000 1.0
C      1  0.5275260000000  0.5524650000000  0.4696180000000 1.0
C      1  0.4829020000000  0.5773190000000  0.4832060000000 1.0
C      1  0.4882890000000  0.4259250000000  0.5147070000000 1.0
C      1  0.5139350000000  0.5738860000000  0.4837280000000 1.0
C      1  0.5196710000000  0.4216110000000  0.5176250000000 1.0
C      1  0.4803290000000  0.5783890000000  0.5176250000000 1.0
C      1  0.4860650000000  0.4261140000000  0.4837280000000 1.0
C      1  0.5117110000000  0.5740750000000  0.5147070000000 1.0
C      1  0.5170980000000  0.4226810000000  0.4832060000000 1.0
C      1  0.5603500000000  0.4543290000000  0.4807000000000 1.0
C      1  0.5519630000000  0.5398580000000  0.5179670000000 1.0
C      1  0.4458440000000  0.4595150000000  0.4817130000000 1.0
C      1  0.4388890000000  0.5451080000000  0.5172670000000 1.0
C      1  0.5611110000000  0.4548920000000  0.5172670000000 1.0
C      1  0.5541560000000  0.5404850000000  0.4817130000000 1.0
C      1  0.4480370000000  0.4601420000000  0.5179670000000 1.0
C      1  0.4396500000000  0.5456710000000  0.4807000000000 1.0
C      1  0.4670550000000  0.4849050000000  0.5631990000000 1.0
C      1  0.4605950000000  0.5176780000000  0.4387570000000 1.0
C      1  0.5394360000000  0.4844030000000  0.5581690000000 1.0
C      1  0.5351540000000  0.5133380000000  0.4376330000000 1.0
C      1  0.4648460000000  0.4866620000000  0.4376330000000 1.0
C      1  0.4605640000000  0.5155970000000  0.5581690000000 1.0
C      1  0.5394050000000  0.4823220000000  0.4387570000000 1.0
C      1  0.5329450000000  0.5150950000000  0.5631990000000 1.0
C      1  0.4915890000000  0.5358430000000  0.5149930000000 1.0
C      1  0.4843600000000  0.4862230000000  0.4886450000000 1.0
C      1  0.5095950000000  0.5113150000000  0.5209210000000 1.0
C      1  0.5070500000000  0.4663230000000  0.4842900000000 1.0
C      1  0.4929500000000  0.5336770000000  0.4842900000000 1.0
C      1  0.4904050000000  0.4886850000000  0.5209210000000 1.0
C      1  0.5156400000000  0.5137770000000  0.4886450000000 1.0
C      1  0.5084110000000  0.4641570000000  0.5149930000000 1.0
C      1  0.4819020000000  0.5397650000000  0.4443380000000 1.0
C      1  0.4886490000000  0.4615430000000  0.5527710000000 1.0
C      1  0.5133590000000  0.5358260000000  0.4477480000000 1.0
C      1  0.5200650000000  0.4601680000000  0.5550480000000 1.0
C      1  0.4799350000000  0.5398320000000  0.5550480000000 1.0
C      1  0.4866410000000  0.4641740000000  0.4477480000000 1.0
C      1  0.5113510000000  0.5384570000000  0.5527710000000 1.0
C      1  0.5180980000000  0.4602350000000  0.4443380000000 1.0
C      1  0.4350870000000  0.5242220000000  0.5435700000000 1.0
C      1  0.4415630000000  0.4717230000000  0.4516430000000 1.0
C      1  0.5558460000000  0.5320790000000  0.5500610000000 1.0
C      1  0.5654180000000  0.4709330000000  0.4510090000000 1.0
C      1  0.4345820000000  0.5290670000000  0.4510090000000 1.0
C      1  0.4441540000000  0.4679210000000  0.5500610000000 1.0
C      1  0.5584370000000  0.5282770000000  0.4516430000000 1.0
C      1  0.5649130000000  0.4757780000000  0.5435700000000 1.0
END
