TITL C-862505-1648-33 -1.1298189483062e-05 125000 -229.00104918989 0 0 46 (C3) n - 1
REM
REM in /home/nfs/bkarasulu/CARBON/AIRSS/Generating-Clusters/TERSOFF/Higher-Symm/FIRE-HFTN
REM
REM
REM
REM
REM
REM ./C.cell (b20cbc046b6831c77cfcea5457e17084)
REM AIRSS Version 0.9.1 bugfix July 2018 build 013d7b7c2542+ Fri, 06 Jul 2018 19:26:36 +0100
REM compiler GCC version 9.2.1 20190827 (Red Hat 9.2.1-1)
REM options -cpp -mtune=generic -march=x86-64 -g -O0 -fpre-include=/usr/include/finclude/math-vector-fortran.h
REM seed 1797513056 2097822286 -1096145216 -1243949770 754347825 40505093 -139059761 1427150323 -272310786 -1453677546 574922326 1621087655 1291927260 1077073378 1868227865 -2023494602 1138550011 804696146 1299813548 1901748849 -971405202 1028423605 1143515296 -1245427813 157712674 -917680033 1866343030 -542166543 856372018 -393457 991041423 -2062477037 -354536417
REM
CELL 1.54180   50.00000   50.00000   50.00000   90.00000   90.00000   90.00000
LATT -1
SFAC C  
C      1  0.5410710000000  0.4948440000000  0.4837090000000 1.0
C      1  0.4952080000000  0.4821520000000  0.5395980000000 1.0
C      1  0.4843600000000  0.5405360000000  0.4956780000000 1.0
C      1  0.4571020000000  0.4950750000000  0.5138820000000 1.0
C      1  0.4586430000000  0.5024300000000  0.4827560000000 1.0
C      1  0.5412880000000  0.5016150000000  0.5152970000000 1.0
C      1  0.5027920000000  0.4831060000000  0.4571700000000 1.0
C      1  0.5025650000000  0.5132780000000  0.5411390000000 1.0
C      1  0.4960220000000  0.5146940000000  0.4569540000000 1.0
C      1  0.5154870000000  0.5389940000000  0.5030330000000 1.0
C      1  0.5145310000000  0.4565660000000  0.4954490000000 1.0
C      1  0.4829430000000  0.4563510000000  0.5022190000000 1.0
C      1  0.4590050000000  0.4561720000000  0.4816220000000 1.0
C      1  0.4592820000000  0.4819550000000  0.4591670000000 1.0
C      1  0.4834060000000  0.4571780000000  0.4572620000000 1.0
C      1  0.5404600000000  0.4566570000000  0.5148340000000 1.0
C      1  0.5390750000000  0.5383540000000  0.4825580000000 1.0
C      1  0.4575510000000  0.5370470000000  0.5149080000000 1.0
C      1  0.5414660000000  0.4810170000000  0.5392350000000 1.0
C      1  0.5409790000000  0.5142300000000  0.4577810000000 1.0
C      1  0.4605920000000  0.5143050000000  0.5406920000000 1.0
C      1  0.5156830000000  0.4585630000000  0.5389580000000 1.0
C      1  0.5166200000000  0.5386320000000  0.4567750000000 1.0
C      1  0.4833350000000  0.5400880000000  0.5376500000000 1.0
C      1  0.5682170000000  0.5253410000000  0.4935260000000 1.0
C      1  0.5307860000000  0.4952520000000  0.5664510000000 1.0
C      1  0.4951990000000  0.5681600000000  0.5253910000000 1.0
C      1  0.4294780000000  0.5247890000000  0.5030450000000 1.0
C      1  0.4317890000000  0.4668540000000  0.4958560000000 1.0
C      1  0.5677240000000  0.4671430000000  0.5005530000000 1.0
C      1  0.4722950000000  0.4929240000000  0.4300250000000 1.0
C      1  0.4728510000000  0.5024410000000  0.5687640000000 1.0
C      1  0.5304930000000  0.4999490000000  0.4305160000000 1.0
C      1  0.5023860000000  0.5658480000000  0.4674560000000 1.0
C      1  0.5047130000000  0.4294210000000  0.5259450000000 1.0
C      1  0.4976860000000  0.4299130000000  0.4677480000000 1.0
C      1  0.4193050000000  0.4955120000000  0.4956070000000 1.0
C      1  0.5015270000000  0.4991120000000  0.4183860000000 1.0
C      1  0.4985240000000  0.4177830000000  0.4967130000000 1.0
C      1  0.5798550000000  0.4961080000000  0.4997150000000 1.0
C      1  0.5021280000000  0.4950030000000  0.5789360000000 1.0
C      1  0.5026360000000  0.5783330000000  0.4961140000000 1.0
C      1  0.4746290000000  0.4742760000000  0.5222930000000 1.0
C      1  0.4759480000000  0.5230080000000  0.4748790000000 1.0
C      1  0.5225660000000  0.4750710000000  0.4756750000000 1.0
C      1  0.5233630000000  0.5216890000000  0.5236110000000 1.0
END
