TITL C-862507-1800-391 2.88848578885857 125000 -726.160914475847 0 0 127 (C1) n - 1
REM
REM in /home/nfs/bkarasulu/CARBON/AIRSS/Generating-Clusters/TERSOFF/Higher-Symm/FIRE-HFTN
REM
REM
REM
REM
REM
REM ./C.cell (b20cbc046b6831c77cfcea5457e17084)
REM AIRSS Version 0.9.1 bugfix July 2018 build 013d7b7c2542+ Fri, 06 Jul 2018 19:26:36 +0100
REM compiler GCC version 9.2.1 20190827 (Red Hat 9.2.1-1)
REM options -cpp -mtune=generic -march=x86-64 -g -O0 -fpre-include=/usr/include/finclude/math-vector-fortran.h
REM seed -711777687 1186381009 -970921107 -2115726285 -1575537695 1083542203 -402283796 1012797456 785394501 -2047111894 -926333806 -1842423013 1106047788 791044659 -1035958920 -525466190 -1687742228 -804244403 756552040 1867718676 957543305 1980256817 -1764467426 1610296489 475870288 677899285 2012435547 897267306 423378057 1215388907 -980379744 199196899 -1976026911
REM
CELL 1.54180   50.00000   50.00000   50.00000   90.00000   90.00000   90.00000
LATT -1
SFAC C  
C      1  0.5091970000000  0.5813430000000  0.5456430000000 1.0
C      1  0.5265090000000  0.4805720000000  0.5029140000000 1.0
C      1  0.5802700000000  0.4598300000000  0.5134310000000 1.0
C      1  0.4583060000000  0.5555450000000  0.4231690000000 1.0
C      1  0.5992840000000  0.4973680000000  0.5311770000000 1.0
C      1  0.4236530000000  0.5790510000000  0.4530200000000 1.0
C      1  0.5086250000000  0.4333280000000  0.3973610000000 1.0
C      1  0.5595240000000  0.4147100000000  0.4768130000000 1.0
C      1  0.4733760000000  0.4277830000000  0.4344010000000 1.0
C      1  0.6007240000000  0.4904510000000  0.4746280000000 1.0
C      1  0.5894530000000  0.4904130000000  0.5575600000000 1.0
C      1  0.4183170000000  0.4625690000000  0.4750100000000 1.0
C      1  0.5211710000000  0.4123240000000  0.5095590000000 1.0
C      1  0.4464350000000  0.4049540000000  0.4810730000000 1.0
C      1  0.5398530000000  0.4295850000000  0.5506530000000 1.0
C      1  0.4401830000000  0.4469140000000  0.5577950000000 1.0
C      1  0.4702050000000  0.4537810000000  0.4161580000000 1.0
C      1  0.4252460000000  0.5296030000000  0.4548660000000 1.0
C      1  0.5677900000000  0.4230120000000  0.5469010000000 1.0
C      1  0.4349530000000  0.5318340000000  0.5293640000000 1.0
C      1  0.5521250000000  0.5596790000000  0.5635800000000 1.0
C      1  0.4251280000000  0.4688570000000  0.5428550000000 1.0
C      1  0.5509640000000  0.5112130000000  0.4094530000000 1.0
C      1  0.4824090000000  0.4526970000000  0.4967440000000 1.0
C      1  0.5366610000000  0.4833730000000  0.5295720000000 1.0
C      1  0.4331100000000  0.5101520000000  0.5717360000000 1.0
C      1  0.4875870000000  0.4462770000000  0.5764670000000 1.0
C      1  0.4776060000000  0.4246340000000  0.5011660000000 1.0
C      1  0.5105050000000  0.5394210000000  0.5439660000000 1.0
C      1  0.4978020000000  0.4061010000000  0.4958480000000 1.0
C      1  0.5347530000000  0.4578910000000  0.4844870000000 1.0
C      1  0.4584340000000  0.5700570000000  0.5079470000000 1.0
C      1  0.5816380000000  0.5007350000000  0.4361420000000 1.0
C      1  0.4616640000000  0.5192990000000  0.4916340000000 1.0
C      1  0.4611140000000  0.5895020000000  0.4863730000000 1.0
C      1  0.5413420000000  0.5785830000000  0.4726400000000 1.0
C      1  0.4796500000000  0.5135180000000  0.5321440000000 1.0
C      1  0.4538370000000  0.5296880000000  0.4391950000000 1.0
C      1  0.5076020000000  0.4585220000000  0.4381540000000 1.0
C      1  0.4784190000000  0.5079730000000  0.5814500000000 1.0
C      1  0.4939340000000  0.5581970000000  0.5618230000000 1.0
C      1  0.5805510000000  0.5534860000000  0.5545650000000 1.0
C      1  0.5831640000000  0.4676500000000  0.4342890000000 1.0
C      1  0.5882910000000  0.5471350000000  0.5265860000000 1.0
C      1  0.4422490000000  0.5093060000000  0.5121600000000 1.0
C      1  0.5320660000000  0.5885110000000  0.5001840000000 1.0
C      1  0.4657170000000  0.4669700000000  0.4788690000000 1.0
C      1  0.5137470000000  0.4604090000000  0.5788150000000 1.0
C      1  0.4887620000000  0.4993850000000  0.5552270000000 1.0
C      1  0.5046390000000  0.5514580000000  0.5884770000000 1.0
C      1  0.5068200000000  0.5140420000000  0.6214370000000 1.0
C      1  0.4760710000000  0.5454370000000  0.5023690000000 1.0
C      1  0.3928630000000  0.4874670000000  0.5104570000000 1.0
C      1  0.5422260000000  0.4339640000000  0.4323360000000 1.0
C      1  0.4994210000000  0.4579750000000  0.5347660000000 1.0
C      1  0.5056750000000  0.5843790000000  0.5148830000000 1.0
C      1  0.5299500000000  0.5074820000000  0.4481000000000 1.0
C      1  0.4534510000000  0.4929780000000  0.5867670000000 1.0
C      1  0.5396330000000  0.5317010000000  0.5559820000000 1.0
C      1  0.4600980000000  0.5788660000000  0.5367510000000 1.0
C      1  0.5343730000000  0.5571850000000  0.5902270000000 1.0
C      1  0.4321310000000  0.5560470000000  0.5143170000000 1.0
C      1  0.5895770000000  0.5198190000000  0.5149120000000 1.0
C      1  0.5173410000000  0.4964560000000  0.5523790000000 1.0
C      1  0.4439420000000  0.4508940000000  0.4714050000000 1.0
C      1  0.5176100000000  0.4147400000000  0.5391560000000 1.0
C      1  0.5043450000000  0.5424050000000  0.5142700000000 1.0
C      1  0.5395960000000  0.5820960000000  0.5484430000000 1.0
C      1  0.5529650000000  0.5114910000000  0.5361090000000 1.0
C      1  0.4611700000000  0.4637780000000  0.5734440000000 1.0
C      1  0.4937750000000  0.5609800000000  0.4583050000000 1.0
C      1  0.5538810000000  0.4926880000000  0.4509250000000 1.0
C      1  0.5255760000000  0.4705900000000  0.6044830000000 1.0
C      1  0.5848310000000  0.4343880000000  0.5264570000000 1.0
C      1  0.4730480000000  0.4811090000000  0.4553780000000 1.0
C      1  0.4164010000000  0.4733650000000  0.5020410000000 1.0
C      1  0.4056900000000  0.5073720000000  0.4556340000000 1.0
C      1  0.5144830000000  0.5164560000000  0.4698380000000 1.0
C      1  0.4131440000000  0.4954120000000  0.5538670000000 1.0
C      1  0.4279860000000  0.4739520000000  0.4291780000000 1.0
C      1  0.5728600000000  0.5361250000000  0.4667760000000 1.0
C      1  0.5636770000000  0.5303590000000  0.4352290000000 1.0
C      1  0.4641760000000  0.5591790000000  0.5584070000000 1.0
C      1  0.5438630000000  0.5163490000000  0.5886600000000 1.0
C      1  0.5481410000000  0.6029700000000  0.4564570000000 1.0
C      1  0.4732780000000  0.4736120000000  0.5437250000000 1.0
C      1  0.5095760000000  0.4637480000000  0.4667020000000 1.0
C      1  0.4832760000000  0.5041510000000  0.5049350000000 1.0
C      1  0.4792490000000  0.5858550000000  0.4640190000000 1.0
C      1  0.4648010000000  0.5055720000000  0.4222600000000 1.0
C      1  0.5082710000000  0.5006140000000  0.4928690000000 1.0
C      1  0.5093140000000  0.4285630000000  0.4283740000000 1.0
C      1  0.4789520000000  0.5353740000000  0.4570720000000 1.0
C      1  0.4121560000000  0.4796730000000  0.4519790000000 1.0
C      1  0.5234260000000  0.5610390000000  0.4554070000000 1.0
C      1  0.4922210000000  0.5268980000000  0.6003240000000 1.0
C      1  0.3885150000000  0.5375530000000  0.5104820000000 1.0
C      1  0.4447960000000  0.5340210000000  0.5564490000000 1.0
C      1  0.5512650000000  0.5905090000000  0.5227130000000 1.0
C      1  0.5868200000000  0.5151120000000  0.4851560000000 1.0
C      1  0.4164090000000  0.5546430000000  0.4674890000000 1.0
C      1  0.5555260000000  0.4604180000000  0.4233720000000 1.0
C      1  0.4098900000000  0.5548210000000  0.4966970000000 1.0
C      1  0.5013890000000  0.5337730000000  0.4050790000000 1.0
C      1  0.4574140000000  0.4240400000000  0.5425710000000 1.0
C      1  0.4924530000000  0.5073650000000  0.4137460000000 1.0
C      1  0.5293000000000  0.4565190000000  0.5524860000000 1.0
C      1  0.4428650000000  0.5791730000000  0.4310060000000 1.0
C      1  0.4834610000000  0.5569120000000  0.4077240000000 1.0
C      1  0.5093400000000  0.4818890000000  0.4143670000000 1.0
C      1  0.4937840000000  0.4591840000000  0.3985010000000 1.0
C      1  0.5569380000000  0.4703490000000  0.4686770000000 1.0
C      1  0.5637630000000  0.4781250000000  0.5629410000000 1.0
C      1  0.3943400000000  0.5109610000000  0.5284150000000 1.0
C      1  0.5866610000000  0.4647920000000  0.4661750000000 1.0
C      1  0.4452950000000  0.4793130000000  0.5213140000000 1.0
C      1  0.4500060000000  0.4251240000000  0.4588110000000 1.0
C      1  0.5361420000000  0.5462630000000  0.4332160000000 1.0
C      1  0.5409230000000  0.4289740000000  0.4940940000000 1.0
C      1  0.5669670000000  0.5628380000000  0.4777730000000 1.0
C      1  0.5400380000000  0.4925990000000  0.5713010000000 1.0
C      1  0.4514710000000  0.4146140000000  0.5123510000000 1.0
C      1  0.5579470000000  0.4148730000000  0.4479540000000 1.0
C      1  0.4872230000000  0.4230390000000  0.5546130000000 1.0
C      1  0.5294170000000  0.4995800000000  0.6112980000000 1.0
C      1  0.5389760000000  0.4839970000000  0.4126390000000 1.0
C      1  0.4568090000000  0.4773820000000  0.4287390000000 1.0
END
