TITL C-862507-1800-411 -0.0147363765915876 125000 -534.475092313595 0 0 97 (C2) n - 1
REM
REM in /home/nfs/bkarasulu/CARBON/AIRSS/Generating-Clusters/TERSOFF/Higher-Symm/FIRE-HFTN
REM
REM
REM
REM
REM
REM ./C.cell (b20cbc046b6831c77cfcea5457e17084)
REM AIRSS Version 0.9.1 bugfix July 2018 build 013d7b7c2542+ Fri, 06 Jul 2018 19:26:36 +0100
REM compiler GCC version 9.2.1 20190827 (Red Hat 9.2.1-1)
REM options -cpp -mtune=generic -march=x86-64 -g -O0 -fpre-include=/usr/include/finclude/math-vector-fortran.h
REM seed -1483472924 -135172779 -1468642344 -1495968618 -562933333 421052690 -101927282 497118661 -1082151179 209717407 1185927089 -1073655699 -242774983 -850783900 1526689642 269571097 -2050902586 853470623 -1941166638 993760439 -1675221937 1473460764 1627679675 -1343949669 953051583 366647125 348974630 1274027918 -176276808 1300337551 2072527889 -1831533072 452669768
REM
CELL 1.54180   50.00000   50.00000   50.00000   90.00000   90.00000   90.00000
LATT -1
SFAC C  
C      1  0.4855850000000  0.5030440000000  0.4192420000000 1.0
C      1  0.5136300000000  0.4977290000000  0.4192430000000 1.0
C      1  0.4903960000000  0.5483490000000  0.5684380000000 1.0
C      1  0.5088120000000  0.4524320000000  0.5684410000000 1.0
C      1  0.4454300000000  0.4647120000000  0.4341180000000 1.0
C      1  0.5537840000000  0.5360610000000  0.4341180000000 1.0
C      1  0.4806370000000  0.5874310000000  0.5098440000000 1.0
C      1  0.5185730000000  0.4133460000000  0.5098500000000 1.0
C      1  0.4811310000000  0.4422390000000  0.5717980000000 1.0
C      1  0.5180760000000  0.5585420000000  0.5717960000000 1.0
C      1  0.5368150000000  0.6025000000000  0.5074430000000 1.0
C      1  0.4623950000000  0.3982780000000  0.5074470000000 1.0
C      1  0.4506690000000  0.4419440000000  0.4562940000000 1.0
C      1  0.5485440000000  0.5588300000000  0.4562930000000 1.0
C      1  0.5230060000000  0.5868220000000  0.5637840000000 1.0
C      1  0.4762010000000  0.4139590000000  0.5637870000000 1.0
C      1  0.5618550000000  0.4541330000000  0.5095280000000 1.0
C      1  0.4373550000000  0.5466440000000  0.5095230000000 1.0
C      1  0.5001360000000  0.5977560000000  0.5303050000000 1.0
C      1  0.4990730000000  0.4030230000000  0.5303100000000 1.0
C      1  0.4659180000000  0.4109000000000  0.5340060000000 1.0
C      1  0.5332910000000  0.5898790000000  0.5340020000000 1.0
C      1  0.4498510000000  0.4391560000000  0.5345200000000 1.0
C      1  0.5493580000000  0.5616230000000  0.5345180000000 1.0
C      1  0.5228070000000  0.5905240000000  0.4861630000000 1.0
C      1  0.4764040000000  0.4102520000000  0.4861670000000 1.0
C      1  0.5189900000000  0.4723350000000  0.4389530000000 1.0
C      1  0.4802240000000  0.5284380000000  0.4389510000000 1.0
C      1  0.5123240000000  0.4951040000000  0.5638840000000 1.0
C      1  0.4868840000000  0.5056770000000  0.5638830000000 1.0
C      1  0.5302080000000  0.4408630000000  0.4447140000000 1.0
C      1  0.4690050000000  0.5599110000000  0.4447090000000 1.0
C      1  0.5033170000000  0.5265180000000  0.5220320000000 1.0
C      1  0.4958920000000  0.4742600000000  0.5220330000000 1.0
C      1  0.4334810000000  0.4387910000000  0.4828180000000 1.0
C      1  0.5657300000000  0.5619850000000  0.4828180000000 1.0
C      1  0.4677660000000  0.4955770000000  0.5445770000000 1.0
C      1  0.5314420000000  0.5052030000000  0.5445780000000 1.0
C      1  0.5576170000000  0.4883920000000  0.4425120000000 1.0
C      1  0.4415960000000  0.5123820000000  0.4425090000000 1.0
C      1  0.4467780000000  0.5117340000000  0.5796110000000 1.0
C      1  0.5524290000000  0.4890480000000  0.5796140000000 1.0
C      1  0.5426550000000  0.5461150000000  0.5583720000000 1.0
C      1  0.4565530000000  0.4546660000000  0.5583720000000 1.0
C      1  0.4890100000000  0.5788340000000  0.4561080000000 1.0
C      1  0.5102030000000  0.4219400000000  0.4561130000000 1.0
C      1  0.5250150000000  0.5395860000000  0.5014340000000 1.0
C      1  0.4741960000000  0.4611910000000  0.5014350000000 1.0
C      1  0.5347470000000  0.5190780000000  0.4117320000000 1.0
C      1  0.4644680000000  0.4816940000000  0.4117320000000 1.0
C      1  0.5553990000000  0.4715650000000  0.5519390000000 1.0
C      1  0.4438100000000  0.5292150000000  0.5519340000000 1.0
C      1  0.4309800000000  0.5330240000000  0.4612160000000 1.0
C      1  0.5682330000000  0.4677500000000  0.4612210000000 1.0
C      1  0.4571870000000  0.4831320000000  0.4826860000000 1.0
C      1  0.5420250000000  0.5176440000000  0.4826870000000 1.0
C      1  0.5122800000000  0.5342030000000  0.4438310000000 1.0
C      1  0.4869330000000  0.4665710000000  0.4438330000000 1.0
C      1  0.5231670000000  0.4721530000000  0.4727820000000 1.0
C      1  0.4760450000000  0.5286230000000  0.4727790000000 1.0
C      1  0.5244660000000  0.4853520000000  0.5892480000000 1.0
C      1  0.4747410000000  0.5154300000000  0.5892460000000 1.0
C      1  0.5322720000000  0.4431930000000  0.5142000000000 1.0
C      1  0.4669380000000  0.5575840000000  0.5141950000000 1.0
C      1  0.4818160000000  0.4388650000000  0.4559030000000 1.0
C      1  0.5173960000000  0.5619090000000  0.4559010000000 1.0
C      1  0.5472770000000  0.4727260000000  0.4184120000000 1.0
C      1  0.4519370000000  0.5280470000000  0.4184090000000 1.0
C      1  0.4345510000000  0.4521370000000  0.5118750000000 1.0
C      1  0.5646590000000  0.5486410000000  0.5118750000000 1.0
C      1  0.4290750000000  0.5256570000000  0.4887590000000 1.0
C      1  0.5701360000000  0.4751190000000  0.4887640000000 1.0
C      1  0.5388080000000  0.4912810000000  0.5188540000000 1.0
C      1  0.4604010000000  0.5094970000000  0.5188510000000 1.0
C      1  0.4311450000000  0.4957210000000  0.4921320000000 1.0
C      1  0.5680660000000  0.5050560000000  0.4921350000000 1.0
C      1  0.4234680000000  0.4821650000000  0.5160320000000 1.0
C      1  0.5757420000000  0.5186130000000  0.5160340000000 1.0
C      1  0.5249160000000  0.4950570000000  0.4914010000000 1.0
C      1  0.4742950000000  0.5057190000000  0.4913990000000 1.0
C      1  0.4260100000000  0.4986940000000  0.5420080000000 1.0
C      1  0.5731990000000  0.5020850000000  0.5420120000000 1.0
C      1  0.4816890000000  0.5967290000000  0.4803010000000 1.0
C      1  0.5175220000000  0.4040470000000  0.4803080000000 1.0
C      1  0.4869880000000  0.4392340000000  0.4864740000000 1.0
C      1  0.5122230000000  0.5615420000000  0.4864720000000 1.0
C      1  0.4832770000000  0.5518610000000  0.4877790000000 1.0
C      1  0.5159340000000  0.4489150000000  0.4877820000000 1.0
C      1  0.5575920000000  0.4415100000000  0.4545430000000 1.0
C      1  0.4416200000000  0.5592650000000  0.4545370000000 1.0
C      1  0.4765160000000  0.5410320000000  0.5412980000000 1.0
C      1  0.5226920000000  0.4597470000000  0.5413010000000 1.0
C      1  0.4447890000000  0.4827800000000  0.5627050000000 1.0
C      1  0.5544190000000  0.5180010000000  0.5627070000000 1.0
C      1  0.4589340000000  0.4868520000000  0.4530340000000 1.0
C      1  0.5402790000000  0.5139220000000  0.4530360000000 1.0
C      1  0.4996050000000  0.5003890000000  0.5069350000000 1.0
END
