TITL C-862127-1500-982 -34345.293163628 125000 -38.8882709408659 0 0 11 (C1) n - 1
REM
REM in /home/nfs/bkarasulu/CARBON/AIRSS/Generating-Clusters/TERSOFF/Higher-Symm/FIRE-HFTN
REM
REM
REM
REM
REM
REM ./C.cell (b20cbc046b6831c77cfcea5457e17084)
REM AIRSS Version 0.9.1 bugfix July 2018 build 013d7b7c2542+ Fri, 06 Jul 2018 19:26:36 +0100
REM compiler GCC version 9.2.1 20190827 (Red Hat 9.2.1-1)
REM options -cpp -mtune=generic -march=x86-64 -g -O0 -fpre-include=/usr/include/finclude/math-vector-fortran.h
REM seed -550793084 1627230363 1685564315 -1081780298 -1668142177 45925470 -63958734 1937859059 -600140103 771628919 -1842814327 -542207930 1846144761 -909628217 1005900778 441703841 -1333478654 -1702374561 -456067562 -337225004 -1887116537 1612067973 -1419601701 -542003098 -873175092 1670475653 -92318060 1800280865 -1164702718 -1232983818 -630250578 -1201971775 782497366
REM
CELL 1.54180   50.00000   50.00000   50.00000   90.00000   90.00000   90.00000
LATT -1
SFAC C  
C      1  0.4843690000000  0.4852590000000  0.4744890000000 1.0
C      1  0.5089330000000  0.5036170000000  0.5361410000000 1.0
C      1  0.5315270000000  0.5149180000000  0.5026540000000 1.0
C      1  0.4725130000000  0.4821660000000  0.5146090000000 1.0
C      1  0.4683050000000  0.5359600000000  0.5039500000000 1.0
C      1  0.5485380000000  0.4682420000000  0.4916420000000 1.0
C      1  0.5340700000000  0.5220970000000  0.5331870000000 1.0
C      1  0.4576840000000  0.4753550000000  0.4878910000000 1.0
C      1  0.4913600000000  0.5223570000000  0.4928960000000 1.0
C      1  0.5205900000000  0.4680750000000  0.4991300000000 1.0
C      1  0.5030350000000  0.4938170000000  0.5035960000000 1.0
END
