TITL C-862132-7359-287 1.05121950003257 125000 -657.161371635572 0 0 111 (D3) n - 1
REM
REM in /home/nfs/bkarasulu/CARBON/AIRSS/Generating-Clusters/TERSOFF/Higher-Symm/FIRE-HFTN
REM
REM
REM
REM
REM
REM ./C.cell (b20cbc046b6831c77cfcea5457e17084)
REM AIRSS Version 0.9.1 bugfix July 2018 build 013d7b7c2542+ Fri, 06 Jul 2018 19:26:36 +0100
REM compiler GCC version 9.2.1 20190827 (Red Hat 9.2.1-1)
REM options -cpp -mtune=generic -march=x86-64 -g -O0 -fpre-include=/usr/include/finclude/math-vector-fortran.h
REM seed 594148999 -600303057 -1312303130 -605462399 -1967719400 -1626581413 2034054052 873323182 -753549811 -258544622 -1207363898 255563444 -1107791531 1967805457 -1660136390 -1113904314 -26043274 -579044250 -1406679667 -133862693 1375039161 -556060936 1998844431 -1380854901 960978307 1299550202 1690341861 1438140399 869651231 -1254027385 -1965477736 1398668320 424339743
REM
CELL 1.54180   50.00000   50.00000   50.00000   90.00000   90.00000   90.00000
LATT -1
SFAC C  
C      1  0.4719770000000  0.5458370000000  0.4243940000000 1.0
C      1  0.4743150000000  0.4528140000000  0.4243940000000 1.0
C      1  0.5537070000000  0.5013490000000  0.4243930000000 1.0
C      1  0.5280230000000  0.5458370000000  0.5756410000000 1.0
C      1  0.5256850000000  0.4528130000000  0.5756410000000 1.0
C      1  0.4462930000000  0.5013490000000  0.5756410000000 1.0
C      1  0.4500380000000  0.4700400000000  0.4310570000000 1.0
C      1  0.5509270000000  0.4717120000000  0.4310560000000 1.0
C      1  0.4990340000000  0.5582490000000  0.4310570000000 1.0
C      1  0.5499620000000  0.4700400000000  0.5689780000000 1.0
C      1  0.4490730000000  0.4717120000000  0.5689780000000 1.0
C      1  0.5009660000000  0.5582490000000  0.5689780000000 1.0
C      1  0.5487040000000  0.4950050000000  0.4936230000000 1.0
C      1  0.4799740000000  0.5446760000000  0.4936240000000 1.0
C      1  0.4713220000000  0.4603190000000  0.4936240000000 1.0
C      1  0.4512960000000  0.4950050000000  0.5064120000000 1.0
C      1  0.5200260000000  0.5446760000000  0.5064110000000 1.0
C      1  0.5286780000000  0.4603190000000  0.5064110000000 1.0
C      1  0.4598290000000  0.4068200000000  0.5034620000000 1.0
C      1  0.6007820000000  0.5118010000000  0.5034610000000 1.0
C      1  0.4393890000000  0.5813790000000  0.5034620000000 1.0
C      1  0.5401710000000  0.4068200000000  0.4965730000000 1.0
C      1  0.3992180000000  0.5118010000000  0.4965740000000 1.0
C      1  0.5606110000000  0.5813790000000  0.4965730000000 1.0
C      1  0.4534850000000  0.5511760000000  0.5436520000000 1.0
C      1  0.4789380000000  0.4341290000000  0.5436510000000 1.0
C      1  0.5675780000000  0.5146950000000  0.5436510000000 1.0
C      1  0.5465150000000  0.5511760000000  0.4563830000000 1.0
C      1  0.5210620000000  0.4341290000000  0.4563830000000 1.0
C      1  0.4324220000000  0.5146950000000  0.4563840000000 1.0
C      1  0.5063700000000  0.5763200000000  0.5440130000000 1.0
C      1  0.4307210000000  0.4673560000000  0.5440130000000 1.0
C      1  0.5629100000000  0.4563240000000  0.5440130000000 1.0
C      1  0.4936300000000  0.5763200000000  0.4560220000000 1.0
C      1  0.5692790000000  0.4673560000000  0.4560210000000 1.0
C      1  0.4370890000000  0.4563240000000  0.4560220000000 1.0
C      1  0.4839420000000  0.5113150000000  0.6065600000000 1.0
C      1  0.4982310000000  0.4804350000000  0.6065600000000 1.0
C      1  0.5178290000000  0.5082500000000  0.6065590000000 1.0
C      1  0.5160580000000  0.5113150000000  0.3934750000000 1.0
C      1  0.5017690000000  0.4804360000000  0.3934750000000 1.0
C      1  0.4821710000000  0.5082500000000  0.3934750000000 1.0
C      1  0.4419900000000  0.5212470000000  0.5089440000000 1.0
C      1  0.5106050000000  0.4391390000000  0.5089430000000 1.0
C      1  0.5474050000000  0.5396150000000  0.5089430000000 1.0
C      1  0.5580100000000  0.5212470000000  0.4910910000000 1.0
C      1  0.4893950000000  0.4391390000000  0.4910910000000 1.0
C      1  0.4525950000000  0.5396150000000  0.4910920000000 1.0
C      1  0.5325450000000  0.5921980000000  0.5368310000000 1.0
C      1  0.4038820000000  0.4820860000000  0.5368310000000 1.0
C      1  0.5635730000000  0.4257170000000  0.5368300000000 1.0
C      1  0.4674550000000  0.5921980000000  0.4632040000000 1.0
C      1  0.5961180000000  0.4820860000000  0.4632030000000 1.0
C      1  0.4364270000000  0.4257170000000  0.4632040000000 1.0
C      1  0.3902250000000  0.4625810000000  0.5186270000000 1.0
C      1  0.5872940000000  0.4236410000000  0.5186260000000 1.0
C      1  0.5224820000000  0.6137780000000  0.5186260000000 1.0
C      1  0.6097750000000  0.4625810000000  0.4814080000000 1.0
C      1  0.4127060000000  0.4236410000000  0.4814090000000 1.0
C      1  0.4775180000000  0.6137780000000  0.4814090000000 1.0
C      1  0.4755220000000  0.4560500000000  0.5667310000000 1.0
C      1  0.5503010000000  0.5007760000000  0.5667300000000 1.0
C      1  0.4741780000000  0.5431740000000  0.5667310000000 1.0
C      1  0.5244780000000  0.4560500000000  0.4333040000000 1.0
C      1  0.4496990000000  0.5007760000000  0.4333050000000 1.0
C      1  0.5258220000000  0.5431740000000  0.4333040000000 1.0
C      1  0.5421320000000  0.4714440000000  0.5277510000000 1.0
C      1  0.5036640000000  0.5507650000000  0.5277510000000 1.0
C      1  0.4542040000000  0.4777910000000  0.5277510000000 1.0
C      1  0.4578680000000  0.4714440000000  0.4722840000000 1.0
C      1  0.4963360000000  0.5507650000000  0.4722840000000 1.0
C      1  0.5457960000000  0.4777910000000  0.4722830000000 1.0
C      1  0.5093050000000  0.4228840000000  0.5363560000000 1.0
C      1  0.5621320000000  0.5466170000000  0.5363550000000 1.0
C      1  0.4285630000000  0.5304990000000  0.5363560000000 1.0
C      1  0.4906940000000  0.4228840000000  0.4636790000000 1.0
C      1  0.4378680000000  0.5466170000000  0.4636790000000 1.0
C      1  0.5714370000000  0.5304990000000  0.4636780000000 1.0
C      1  0.4684390000000  0.5185320000000  0.5833990000000 1.0
C      1  0.4997320000000  0.4634010000000  0.5833990000000 1.0
C      1  0.5318300000000  0.5180670000000  0.5833980000000 1.0
C      1  0.5315610000000  0.5185320000000  0.4166360000000 1.0
C      1  0.5002680000000  0.4634010000000  0.4166360000000 1.0
C      1  0.4681700000000  0.5180670000000  0.4166360000000 1.0
C      1  0.4307200000000  0.4430690000000  0.5253070000000 1.0
C      1  0.5839440000000  0.4684670000000  0.5253060000000 1.0
C      1  0.4853360000000  0.5884640000000  0.5253070000000 1.0
C      1  0.5692800000000  0.4430690000000  0.4747280000000 1.0
C      1  0.4160560000000  0.4684670000000  0.4747290000000 1.0
C      1  0.5146640000000  0.5884640000000  0.4747280000000 1.0
C      1  0.5854130000000  0.4982820000000  0.5246750000000 1.0
C      1  0.4587810000000  0.5748280000000  0.5246760000000 1.0
C      1  0.4558060000000  0.4268890000000  0.5246760000000 1.0
C      1  0.4145870000000  0.4982820000000  0.4753590000000 1.0
C      1  0.5412190000000  0.5748280000000  0.4753590000000 1.0
C      1  0.5441940000000  0.4268890000000  0.4753590000000 1.0
C      1  0.5508370000000  0.5572620000000  0.5626040000000 1.0
C      1  0.4249920000000  0.5153950000000  0.5626040000000 1.0
C      1  0.5241730000000  0.4273430000000  0.5626040000000 1.0
C      1  0.4491630000000  0.5572620000000  0.4374310000000 1.0
C      1  0.5750080000000  0.5153950000000  0.4374300000000 1.0
C      1  0.4758270000000  0.4273440000000  0.4374310000000 1.0
C      1  0.5389760000000  0.4129420000000  0.5253730000000 1.0
C      1  0.5559070000000  0.5772830000000  0.5253730000000 1.0
C      1  0.4051180000000  0.5097750000000  0.5253740000000 1.0
C      1  0.4610240000000  0.4129420000000  0.4746610000000 1.0
C      1  0.4440930000000  0.5772830000000  0.4746620000000 1.0
C      1  0.5948820000000  0.5097750000000  0.4746610000000 1.0
C      1  0.4097140000000  0.4478730000000  0.5000180000000 1.0
C      1  0.5902860000000  0.4478730000000  0.5000170000000 1.0
C      1  0.5000000000000  0.6042530000000  0.5000170000000 1.0
END
