TITL C-862502-1143-1374 -0.000384177057746279 125000 -175.940546945894 0 0 34 (C1) n - 1
REM
REM in /home/nfs/bkarasulu/CARBON/AIRSS/Generating-Clusters/TERSOFF/Higher-Symm/FIRE-HFTN
REM
REM
REM
REM
REM
REM ./C.cell (b20cbc046b6831c77cfcea5457e17084)
REM AIRSS Version 0.9.1 bugfix July 2018 build 013d7b7c2542+ Fri, 06 Jul 2018 19:26:36 +0100
REM compiler GCC version 9.2.1 20190827 (Red Hat 9.2.1-1)
REM options -cpp -mtune=generic -march=x86-64 -g -O0 -fpre-include=/usr/include/finclude/math-vector-fortran.h
REM seed 677468449 1439943843 -530618746 263463375 -873584361 -1349215796 -1079140212 1255701965 -1980585336 1867096484 -1337562396 -171545892 353502090 1666416909 -1849581215 1049893988 -23355306 -1706643515 -1334963861 1398445323 1796646195 -854982462 1585151241 2016620513 209425473 293683396 -1350802627 -1447246389 1685264695 190036063 431029514 521878591 1631097608
REM
CELL 1.54180   50.00000   50.00000   50.00000   90.00000   90.00000   90.00000
LATT -1
SFAC C  
C      1  0.5483300000000  0.5186160000000  0.5311770000000 1.0
C      1  0.4458650000000  0.4926110000000  0.4991800000000 1.0
C      1  0.5183810000000  0.4625920000000  0.4599580000000 1.0
C      1  0.4844350000000  0.4512330000000  0.4818750000000 1.0
C      1  0.5154030000000  0.4441490000000  0.4849630000000 1.0
C      1  0.4955550000000  0.5256810000000  0.5523560000000 1.0
C      1  0.4937280000000  0.4516870000000  0.5285810000000 1.0
C      1  0.5271530000000  0.5334270000000  0.5162210000000 1.0
C      1  0.5160760000000  0.5502900000000  0.4730610000000 1.0
C      1  0.4774970000000  0.5053470000000  0.5108020000000 1.0
C      1  0.5560970000000  0.4848720000000  0.5013180000000 1.0
C      1  0.4541990000000  0.5250860000000  0.4613880000000 1.0
C      1  0.5397330000000  0.4952820000000  0.5467610000000 1.0
C      1  0.5240970000000  0.4843660000000  0.4992770000000 1.0
C      1  0.4636280000000  0.5444170000000  0.4877810000000 1.0
C      1  0.5643230000000  0.4789880000000  0.4734330000000 1.0
C      1  0.4322400000000  0.5171070000000  0.5110830000000 1.0
C      1  0.4398480000000  0.4868010000000  0.4709390000000 1.0
C      1  0.4481600000000  0.4672610000000  0.5139140000000 1.0
C      1  0.5585360000000  0.5678710000000  0.4945980000000 1.0
C      1  0.5084860000000  0.5080220000000  0.5048200000000 1.0
C      1  0.4584760000000  0.4741300000000  0.4533190000000 1.0
C      1  0.5116560000000  0.5453480000000  0.5384400000000 1.0
C      1  0.5463890000000  0.4691350000000  0.5313160000000 1.0
C      1  0.5442750000000  0.4738660000000  0.4532540000000 1.0
C      1  0.4841540000000  0.5101350000000  0.4555390000000 1.0
C      1  0.5126300000000  0.5011070000000  0.5595940000000 1.0
C      1  0.4884770000000  0.4782680000000  0.4579170000000 1.0
C      1  0.5348250000000  0.5512620000000  0.4944570000000 1.0
C      1  0.4709130000000  0.5211650000000  0.5362000000000 1.0
C      1  0.4925630000000  0.5338810000000  0.4758170000000 1.0
C      1  0.5198010000000  0.4558130000000  0.5151920000000 1.0
C      1  0.4714870000000  0.4514400000000  0.5094400000000 1.0
C      1  0.4525830000000  0.5387470000000  0.5160310000000 1.0
END
