TITL C-862133-5440-1042 15.6081887938701 125000 -989.542063669571 0 0 170 (C1) n - 1
REM
REM in /home/nfs/bkarasulu/CARBON/AIRSS/Generating-Clusters/TERSOFF/Higher-Symm/FIRE-HFTN
REM
REM
REM
REM
REM
REM ./C.cell (b20cbc046b6831c77cfcea5457e17084)
REM AIRSS Version 0.9.1 bugfix July 2018 build 013d7b7c2542+ Fri, 06 Jul 2018 19:26:36 +0100
REM compiler GCC version 9.2.1 20190827 (Red Hat 9.2.1-1)
REM options -cpp -mtune=generic -march=x86-64 -g -O0 -fpre-include=/usr/include/finclude/math-vector-fortran.h
REM seed -1813144632 -1185304311 -542563140 -2127461400 1014652411 647342023 -508873662 -1998238774 1903633131 -588456552 -538885543 -1724225611 -802919980 353270898 1733355889 -429185826 437212761 294439491 -1523137608 -91502988 -2002224806 -55184074 1795194439 -1180835877 620721158 48437424 -179142745 96557132 -573586994 -1681796176 -1309960170 -865192406 117560398
REM
CELL 1.54180   50.00000   50.00000   50.00000   90.00000   90.00000   90.00000
LATT -1
SFAC C  
C      1  0.4425450000000  0.3929030000000  0.4629690000000 1.0
C      1  0.4136960000000  0.5830340000000  0.5027890000000 1.0
C      1  0.4460150000000  0.4535040000000  0.5822880000000 1.0
C      1  0.4621150000000  0.5267050000000  0.4183630000000 1.0
C      1  0.5166480000000  0.5863570000000  0.4326170000000 1.0
C      1  0.4657520000000  0.6057630000000  0.4527170000000 1.0
C      1  0.4217800000000  0.4579580000000  0.5013630000000 1.0
C      1  0.3856090000000  0.5202010000000  0.4805040000000 1.0
C      1  0.5030040000000  0.5186690000000  0.5741850000000 1.0
C      1  0.4402000000000  0.4752750000000  0.4876710000000 1.0
C      1  0.3817970000000  0.5473860000000  0.5274130000000 1.0
C      1  0.3997740000000  0.5477510000000  0.4408220000000 1.0
C      1  0.5535040000000  0.5525200000000  0.5456830000000 1.0
C      1  0.4928760000000  0.4755660000000  0.4361790000000 1.0
C      1  0.5813850000000  0.4759660000000  0.4237420000000 1.0
C      1  0.5635850000000  0.4796540000000  0.3987560000000 1.0
C      1  0.4856150000000  0.3953150000000  0.4329250000000 1.0
C      1  0.5930800000000  0.4306580000000  0.5028290000000 1.0
C      1  0.5513600000000  0.3933270000000  0.5161420000000 1.0
C      1  0.4010130000000  0.5219630000000  0.4538530000000 1.0
C      1  0.4340140000000  0.4191050000000  0.5613950000000 1.0
C      1  0.4679870000000  0.4602260000000  0.5306290000000 1.0
C      1  0.4893750000000  0.4348820000000  0.5837530000000 1.0
C      1  0.5063740000000  0.5545030000000  0.5449120000000 1.0
C      1  0.4521770000000  0.5107170000000  0.5953840000000 1.0
C      1  0.4907410000000  0.4755930000000  0.4872860000000 1.0
C      1  0.6237710000000  0.4704290000000  0.4920890000000 1.0
C      1  0.4822240000000  0.4159080000000  0.4097430000000 1.0
C      1  0.5719150000000  0.4731640000000  0.4690220000000 1.0
C      1  0.4549320000000  0.5474450000000  0.4470210000000 1.0
C      1  0.5598600000000  0.3992440000000  0.4887960000000 1.0
C      1  0.4606510000000  0.5562840000000  0.4974020000000 1.0
C      1  0.5419960000000  0.5890660000000  0.4723480000000 1.0
C      1  0.4629240000000  0.5046220000000  0.5493730000000 1.0
C      1  0.5634850000000  0.5098490000000  0.3904730000000 1.0
C      1  0.4810270000000  0.4743480000000  0.5721600000000 1.0
C      1  0.4028630000000  0.4803890000000  0.5436180000000 1.0
C      1  0.5014900000000  0.4484540000000  0.4847020000000 1.0
C      1  0.4051710000000  0.5198050000000  0.5729020000000 1.0
C      1  0.4682780000000  0.5539820000000  0.5658900000000 1.0
C      1  0.4512110000000  0.5062000000000  0.4400530000000 1.0
C      1  0.5554230000000  0.4460640000000  0.4097940000000 1.0
C      1  0.4881700000000  0.6124340000000  0.5048650000000 1.0
C      1  0.5065200000000  0.5228800000000  0.5036340000000 1.0
C      1  0.4003250000000  0.4514200000000  0.5433900000000 1.0
C      1  0.4918510000000  0.4909120000000  0.3924280000000 1.0
C      1  0.4844130000000  0.5542950000000  0.4117730000000 1.0
C      1  0.5405650000000  0.4841430000000  0.5420130000000 1.0
C      1  0.4790040000000  0.4071830000000  0.5409250000000 1.0
C      1  0.5586400000000  0.5345080000000  0.4783190000000 1.0
C      1  0.5813040000000  0.5401650000000  0.5437440000000 1.0
C      1  0.5175270000000  0.5037670000000  0.3909330000000 1.0
C      1  0.4541680000000  0.5388150000000  0.4746380000000 1.0
C      1  0.5194060000000  0.4748110000000  0.4489490000000 1.0
C      1  0.5316710000000  0.4797600000000  0.5689380000000 1.0
C      1  0.5023590000000  0.4319540000000  0.5100640000000 1.0
C      1  0.4719830000000  0.3870140000000  0.5029230000000 1.0
C      1  0.5425680000000  0.5588530000000  0.5177500000000 1.0
C      1  0.4569670000000  0.4558720000000  0.6101880000000 1.0
C      1  0.4022540000000  0.5423220000000  0.5543530000000 1.0
C      1  0.4598430000000  0.6066460000000  0.5097000000000 1.0
C      1  0.5070340000000  0.3889460000000  0.4798660000000 1.0
C      1  0.5636410000000  0.5607480000000  0.4944990000000 1.0
C      1  0.5005050000000  0.5253730000000  0.6027920000000 1.0
C      1  0.4489900000000  0.5645520000000  0.5471580000000 1.0
C      1  0.5162730000000  0.5761800000000  0.4775400000000 1.0
C      1  0.4427850000000  0.4439050000000  0.5196950000000 1.0
C      1  0.4514590000000  0.4015220000000  0.4891740000000 1.0
C      1  0.5071260000000  0.4413410000000  0.5614700000000 1.0
C      1  0.5500310000000  0.4137110000000  0.5612970000000 1.0
C      1  0.4047180000000  0.4417290000000  0.4844030000000 1.0
C      1  0.4555990000000  0.4003240000000  0.4381870000000 1.0
C      1  0.5130590000000  0.5628300000000  0.4152950000000 1.0
C      1  0.4646540000000  0.5053180000000  0.3952340000000 1.0
C      1  0.5054580000000  0.4900220000000  0.5745580000000 1.0
C      1  0.5237230000000  0.3853320000000  0.5209880000000 1.0
C      1  0.5431350000000  0.5418860000000  0.5932670000000 1.0
C      1  0.4422460000000  0.5963530000000  0.4654060000000 1.0
C      1  0.4952440000000  0.5746930000000  0.5649490000000 1.0
C      1  0.5062960000000  0.4022670000000  0.4529110000000 1.0
C      1  0.5240140000000  0.4253620000000  0.4463930000000 1.0
C      1  0.5292370000000  0.4329760000000  0.4180140000000 1.0
C      1  0.5160680000000  0.5500550000000  0.6088480000000 1.0
C      1  0.5475370000000  0.5693060000000  0.5739280000000 1.0
C      1  0.5063830000000  0.4295750000000  0.4002740000000 1.0
C      1  0.5363600000000  0.6100520000000  0.5208680000000 1.0
C      1  0.4990020000000  0.4009290000000  0.5109840000000 1.0
C      1  0.5541330000000  0.5071690000000  0.6268510000000 1.0
C      1  0.5463990000000  0.4685770000000  0.5020290000000 1.0
C      1  0.5047200000000  0.4744290000000  0.6160250000000 1.0
C      1  0.4282300000000  0.5116290000000  0.5142970000000 1.0
C      1  0.5554560000000  0.5338400000000  0.4495960000000 1.0
C      1  0.5656060000000  0.5775140000000  0.4267500000000 1.0
C      1  0.5872250000000  0.4264540000000  0.5310170000000 1.0
C      1  0.5356180000000  0.5303140000000  0.5016150000000 1.0
C      1  0.4163420000000  0.4938970000000  0.5658170000000 1.0
C      1  0.4791840000000  0.5261030000000  0.5595210000000 1.0
C      1  0.5724640000000  0.4942610000000  0.4471640000000 1.0
C      1  0.5301100000000  0.5145210000000  0.4154860000000 1.0
C      1  0.5807830000000  0.4446180000000  0.4304810000000 1.0
C      1  0.4859690000000  0.4527640000000  0.6082860000000 1.0
C      1  0.5443100000000  0.5909210000000  0.4422330000000 1.0
C      1  0.5164160000000  0.5734120000000  0.5862130000000 1.0
C      1  0.5735970000000  0.5482470000000  0.4298600000000 1.0
C      1  0.6033690000000  0.5343940000000  0.4687560000000 1.0
C      1  0.5243900000000  0.4473850000000  0.4649770000000 1.0
C      1  0.4935100000000  0.5895940000000  0.4550400000000 1.0
C      1  0.4441910000000  0.5854560000000  0.4955180000000 1.0
C      1  0.4969830000000  0.5027740000000  0.6216870000000 1.0
C      1  0.4505160000000  0.4974040000000  0.5035540000000 1.0
C      1  0.4705290000000  0.4900520000000  0.5242700000000 1.0
C      1  0.4211750000000  0.5018750000000  0.4448990000000 1.0
C      1  0.6186400000000  0.4421220000000  0.4946470000000 1.0
C      1  0.5973830000000  0.4458860000000  0.5511170000000 1.0
C      1  0.5490530000000  0.6088710000000  0.4934000000000 1.0
C      1  0.4477320000000  0.4880590000000  0.5721410000000 1.0
C      1  0.4519290000000  0.4314760000000  0.4220020000000 1.0
C      1  0.4954110000000  0.6020520000000  0.5529180000000 1.0
C      1  0.4633750000000  0.4246970000000  0.5683760000000 1.0
C      1  0.4464620000000  0.4803350000000  0.3966520000000 1.0
C      1  0.4527520000000  0.4656730000000  0.4634700000000 1.0
C      1  0.5706050000000  0.4263790000000  0.4825430000000 1.0
C      1  0.5461500000000  0.4809980000000  0.6179590000000 1.0
C      1  0.4688640000000  0.4846020000000  0.4499310000000 1.0
C      1  0.4393380000000  0.4437910000000  0.4479290000000 1.0
C      1  0.4619550000000  0.4553210000000  0.4040640000000 1.0
C      1  0.4229680000000  0.4336860000000  0.5395730000000 1.0
C      1  0.4897270000000  0.5486690000000  0.5137340000000 1.0
C      1  0.6025000000000  0.5449440000000  0.4959950000000 1.0
C      1  0.5748800000000  0.4825640000000  0.5036940000000 1.0
C      1  0.5689510000000  0.4839200000000  0.5346090000000 1.0
C      1  0.4555760000000  0.5406800000000  0.5912770000000 1.0
C      1  0.5872110000000  0.4734550000000  0.5545610000000 1.0
C      1  0.5234200000000  0.4777070000000  0.5195110000000 1.0
C      1  0.5521710000000  0.4749920000000  0.5900720000000 1.0
C      1  0.3826850000000  0.5458870000000  0.4953850000000 1.0
C      1  0.6029140000000  0.4904350000000  0.4913770000000 1.0
C      1  0.5449470000000  0.4456260000000  0.4856780000000 1.0
C      1  0.5341990000000  0.5432230000000  0.4146160000000 1.0
C      1  0.5835420000000  0.5133380000000  0.5875330000000 1.0
C      1  0.5950650000000  0.5311080000000  0.5677720000000 1.0
C      1  0.3854980000000  0.4963400000000  0.4972450000000 1.0
C      1  0.4027880000000  0.5760370000000  0.5293920000000 1.0
C      1  0.5793520000000  0.5321200000000  0.4036820000000 1.0
C      1  0.5357330000000  0.4381600000000  0.5649310000000 1.0
C      1  0.5067890000000  0.6088070000000  0.5263700000000 1.0
C      1  0.5793980000000  0.4839510000000  0.5811900000000 1.0
C      1  0.4127870000000  0.6110370000000  0.4268750000000 1.0
C      1  0.4210930000000  0.5667960000000  0.5521230000000 1.0
C      1  0.4743980000000  0.5678150000000  0.4370080000000 1.0
C      1  0.5986200000000  0.5506290000000  0.4458990000000 1.0
C      1  0.4139500000000  0.4339600000000  0.4582890000000 1.0
C      1  0.4891300000000  0.4668820000000  0.4087310000000 1.0
C      1  0.5907910000000  0.5297160000000  0.5180850000000 1.0
C      1  0.5976300000000  0.5062790000000  0.4667360000000 1.0
C      1  0.5653260000000  0.4077780000000  0.5378600000000 1.0
C      1  0.5636130000000  0.5251380000000  0.6058060000000 1.0
C      1  0.4001870000000  0.5721650000000  0.4559830000000 1.0
C      1  0.4182000000000  0.5932570000000  0.4491820000000 1.0
C      1  0.4988730000000  0.4944550000000  0.5100120000000 1.0
C      1  0.3954710000000  0.5697450000000  0.4840400000000 1.0
C      1  0.4519590000000  0.4297030000000  0.4940290000000 1.0
C      1  0.5783860000000  0.4462820000000  0.4603210000000 1.0
C      1  0.4043140000000  0.4964470000000  0.5190150000000 1.0
C      1  0.5285350000000  0.5341760000000  0.5609860000000 1.0
C      1  0.4940060000000  0.4458450000000  0.5343110000000 1.0
C      1  0.4982750000000  0.6140950000000  0.4778900000000 1.0
C      1  0.5138270000000  0.5664630000000  0.5053490000000 1.0
C      1  0.5399320000000  0.4962650000000  0.4390940000000 1.0
C      1  0.5301470000000  0.5077610000000  0.3650130000000 1.0
END
