TITL C-862503-991-1393 0.170624523147355 125000 -892.982335732095 0 0 152 (C1) n - 1
REM
REM in /home/nfs/bkarasulu/CARBON/AIRSS/Generating-Clusters/TERSOFF/Higher-Symm/FIRE-HFTN
REM
REM
REM
REM
REM
REM ./C.cell (b20cbc046b6831c77cfcea5457e17084)
REM AIRSS Version 0.9.1 bugfix July 2018 build 013d7b7c2542+ Fri, 06 Jul 2018 19:26:36 +0100
REM compiler GCC version 9.2.1 20190827 (Red Hat 9.2.1-1)
REM options -cpp -mtune=generic -march=x86-64 -g -O0 -fpre-include=/usr/include/finclude/math-vector-fortran.h
REM seed -1605508162 980829133 382681689 522739643 507856252 -1029876224 969028875 -74579960 -279555155 1008865773 -1540896348 -2108586408 -1270396008 325192449 1645754613 -1491127775 -500174299 -387404205 1921306560 1901897449 -2037563130 -754780980 1171902816 -1091601853 519906020 1996318139 -888815487 -875228994 -265411584 -2003487613 -880724421 -1427054606 1350730611
REM
CELL 1.54180   50.00000   50.00000   50.00000   90.00000   90.00000   90.00000
LATT -1
SFAC C  
C      1  0.4454820000000  0.4399030000000  0.4342850000000 1.0
C      1  0.4956560000000  0.4725170000000  0.5376610000000 1.0
C      1  0.5223850000000  0.4965390000000  0.5805750000000 1.0
C      1  0.5340040000000  0.4584250000000  0.4098140000000 1.0
C      1  0.4387270000000  0.4374230000000  0.5548050000000 1.0
C      1  0.5588190000000  0.5934130000000  0.5441250000000 1.0
C      1  0.4342830000000  0.4850410000000  0.5800090000000 1.0
C      1  0.4971140000000  0.5544530000000  0.4332910000000 1.0
C      1  0.5231490000000  0.5896450000000  0.4519530000000 1.0
C      1  0.4039050000000  0.5175590000000  0.4688180000000 1.0
C      1  0.4428460000000  0.5351610000000  0.5177650000000 1.0
C      1  0.4723180000000  0.5869620000000  0.4544610000000 1.0
C      1  0.4931140000000  0.4165630000000  0.5170490000000 1.0
C      1  0.4840830000000  0.4379630000000  0.5893710000000 1.0
C      1  0.5307860000000  0.5970030000000  0.5515580000000 1.0
C      1  0.4071510000000  0.5450660000000  0.4618830000000 1.0
C      1  0.5006960000000  0.5339260000000  0.4545910000000 1.0
C      1  0.5163350000000  0.5054170000000  0.3996640000000 1.0
C      1  0.4259270000000  0.4991450000000  0.4593890000000 1.0
C      1  0.4412540000000  0.4647830000000  0.4185650000000 1.0
C      1  0.6069630000000  0.5155270000000  0.5117120000000 1.0
C      1  0.5239320000000  0.4358600000000  0.4253260000000 1.0
C      1  0.5018840000000  0.5289590000000  0.5400010000000 1.0
C      1  0.5755290000000  0.5093810000000  0.5532460000000 1.0
C      1  0.5815900000000  0.4451130000000  0.5400490000000 1.0
C      1  0.4468550000000  0.4799770000000  0.5321040000000 1.0
C      1  0.4318440000000  0.4813550000000  0.5078800000000 1.0
C      1  0.4760670000000  0.4573470000000  0.6095180000000 1.0
C      1  0.4198310000000  0.4361900000000  0.4831170000000 1.0
C      1  0.4039200000000  0.4743320000000  0.5105370000000 1.0
C      1  0.5737860000000  0.4440880000000  0.5705890000000 1.0
C      1  0.4746580000000  0.3932420000000  0.5089910000000 1.0
C      1  0.5224360000000  0.4148360000000  0.5675650000000 1.0
C      1  0.5387840000000  0.5115800000000  0.5043930000000 1.0
C      1  0.4307750000000  0.5593920000000  0.4722670000000 1.0
C      1  0.5272700000000  0.5813130000000  0.4794970000000 1.0
C      1  0.4309820000000  0.5191680000000  0.5547320000000 1.0
C      1  0.5331910000000  0.4460380000000  0.5416210000000 1.0
C      1  0.5470650000000  0.4542790000000  0.5845830000000 1.0
C      1  0.5805840000000  0.5451450000000  0.5252320000000 1.0
C      1  0.4288380000000  0.4214810000000  0.5313350000000 1.0
C      1  0.4549790000000  0.4000080000000  0.4895860000000 1.0
C      1  0.5954170000000  0.4984090000000  0.5327420000000 1.0
C      1  0.6030780000000  0.5098880000000  0.4833950000000 1.0
C      1  0.5483950000000  0.4707560000000  0.5386790000000 1.0
C      1  0.5964830000000  0.4678800000000  0.5260060000000 1.0
C      1  0.4676800000000  0.4364760000000  0.5151820000000 1.0
C      1  0.5410690000000  0.4186570000000  0.4441380000000 1.0
C      1  0.4650210000000  0.6017440000000  0.5078770000000 1.0
C      1  0.4219090000000  0.5837380000000  0.4871190000000 1.0
C      1  0.4739800000000  0.3988480000000  0.5632580000000 1.0
C      1  0.5109300000000  0.6084410000000  0.5322960000000 1.0
C      1  0.5686020000000  0.5699560000000  0.5617640000000 1.0
C      1  0.5661690000000  0.4242050000000  0.5236870000000 1.0
C      1  0.5775340000000  0.5787640000000  0.4933230000000 1.0
C      1  0.4724930000000  0.5007070000000  0.4846990000000 1.0
C      1  0.5464550000000  0.5317310000000  0.4785950000000 1.0
C      1  0.5453190000000  0.4153130000000  0.5463080000000 1.0
C      1  0.4812280000000  0.4798080000000  0.5914500000000 1.0
C      1  0.5164450000000  0.3958720000000  0.5119330000000 1.0
C      1  0.4397410000000  0.4241200000000  0.5021480000000 1.0
C      1  0.5422720000000  0.5505280000000  0.5737870000000 1.0
C      1  0.5263680000000  0.5225150000000  0.4581530000000 1.0
C      1  0.5359150000000  0.4826910000000  0.5004800000000 1.0
C      1  0.4036730000000  0.5094910000000  0.5439370000000 1.0
C      1  0.4864440000000  0.4669710000000  0.3911860000000 1.0
C      1  0.5490580000000  0.6169150000000  0.4981520000000 1.0
C      1  0.4821240000000  0.5984300000000  0.5327950000000 1.0
C      1  0.4886560000000  0.5187450000000  0.4032160000000 1.0
C      1  0.5481950000000  0.4842730000000  0.5862480000000 1.0
C      1  0.4639230000000  0.5259340000000  0.5870880000000 1.0
C      1  0.4549340000000  0.5126360000000  0.4018090000000 1.0
C      1  0.5326970000000  0.3909150000000  0.5346060000000 1.0
C      1  0.5676860000000  0.4866970000000  0.4360640000000 1.0
C      1  0.4800580000000  0.5281280000000  0.4747570000000 1.0
C      1  0.5965520000000  0.4822020000000  0.4777200000000 1.0
C      1  0.5156720000000  0.4421070000000  0.5795620000000 1.0
C      1  0.5030840000000  0.4745420000000  0.5692860000000 1.0
C      1  0.6049770000000  0.4627640000000  0.4980750000000 1.0
C      1  0.4185380000000  0.4820990000000  0.4326250000000 1.0
C      1  0.5596600000000  0.5142900000000  0.4319130000000 1.0
C      1  0.4367070000000  0.5964940000000  0.5084530000000 1.0
C      1  0.5219530000000  0.6218000000000  0.5084430000000 1.0
C      1  0.4545080000000  0.5086400000000  0.5374230000000 1.0
C      1  0.5018550000000  0.5814290000000  0.4923910000000 1.0
C      1  0.5128770000000  0.4387870000000  0.5055850000000 1.0
C      1  0.5612350000000  0.4854960000000  0.5603320000000 1.0
C      1  0.4650720000000  0.4006510000000  0.4617350000000 1.0
C      1  0.4630180000000  0.4749370000000  0.4529370000000 1.0
C      1  0.4907320000000  0.5370050000000  0.5934580000000 1.0
C      1  0.5202840000000  0.4024310000000  0.4613040000000 1.0
C      1  0.5718060000000  0.4773090000000  0.4635580000000 1.0
C      1  0.5574790000000  0.4175850000000  0.4930470000000 1.0
C      1  0.4413030000000  0.5355100000000  0.4891350000000 1.0
C      1  0.3962300000000  0.4529320000000  0.4924150000000 1.0
C      1  0.5678810000000  0.5354220000000  0.4536650000000 1.0
C      1  0.5676420000000  0.5998690000000  0.5153290000000 1.0
C      1  0.4013790000000  0.4572960000000  0.4432650000000 1.0
C      1  0.5488140000000  0.4676580000000  0.4781700000000 1.0
C      1  0.4693860000000  0.4622570000000  0.5298070000000 1.0
C      1  0.4977080000000  0.5819740000000  0.4397440000000 1.0
C      1  0.4432140000000  0.4935950000000  0.4848850000000 1.0
C      1  0.5417980000000  0.5205920000000  0.4081830000000 1.0
C      1  0.4946110000000  0.5742620000000  0.5745200000000 1.0
C      1  0.3922790000000  0.5234030000000  0.5200820000000 1.0
C      1  0.4023880000000  0.4786190000000  0.5413540000000 1.0
C      1  0.4631900000000  0.4246440000000  0.5711600000000 1.0
C      1  0.3883530000000  0.5108190000000  0.4933030000000 1.0
C      1  0.4819000000000  0.5105110000000  0.5489270000000 1.0
C      1  0.5006360000000  0.4800120000000  0.4349800000000 1.0
C      1  0.6209400000000  0.4395380000000  0.4911380000000 1.0
C      1  0.4618820000000  0.4798390000000  0.4033540000000 1.0
C      1  0.5546240000000  0.6114580000000  0.4691710000000 1.0
C      1  0.4556090000000  0.5364200000000  0.4299820000000 1.0
C      1  0.4295420000000  0.4684640000000  0.5555570000000 1.0
C      1  0.5901020000000  0.5545870000000  0.5502900000000 1.0
C      1  0.5021910000000  0.3937030000000  0.5660280000000 1.0
C      1  0.4511910000000  0.5639310000000  0.4506650000000 1.0
C      1  0.4913850000000  0.5536600000000  0.5317340000000 1.0
C      1  0.4490140000000  0.5656560000000  0.5562800000000 1.0
C      1  0.5542690000000  0.5519940000000  0.5157850000000 1.0
C      1  0.4246490000000  0.5028460000000  0.4094180000000 1.0
C      1  0.4773800000000  0.5733860000000  0.5509740000000 1.0
C      1  0.4923970000000  0.5580860000000  0.5043040000000 1.0
C      1  0.5578480000000  0.5713940000000  0.4170150000000 1.0
C      1  0.5099580000000  0.4690110000000  0.5101840000000 1.0
C      1  0.4800330000000  0.5980490000000  0.4822210000000 1.0
C      1  0.4843420000000  0.5030630000000  0.4301840000000 1.0
C      1  0.5036020000000  0.4668460000000  0.4600620000000 1.0
C      1  0.4597970000000  0.4972600000000  0.5869600000000 1.0
C      1  0.5227610000000  0.5765130000000  0.5709050000000 1.0
C      1  0.5609680000000  0.4677050000000  0.4152370000000 1.0
C      1  0.5958260000000  0.5307180000000  0.4643060000000 1.0
C      1  0.4568750000000  0.5071660000000  0.4462820000000 1.0
C      1  0.5657910000000  0.5651880000000  0.4442750000000 1.0
C      1  0.5622260000000  0.4284460000000  0.4646640000000 1.0
C      1  0.4425290000000  0.5414140000000  0.5729110000000 1.0
C      1  0.4358030000000  0.5594530000000  0.5315360000000 1.0
C      1  0.5147400000000  0.4762300000000  0.3956430000000 1.0
C      1  0.4952300000000  0.4314120000000  0.4312940000000 1.0
C      1  0.4926210000000  0.4783340000000  0.4848910000000 1.0
C      1  0.3834500000000  0.4609750000000  0.4666950000000 1.0
C      1  0.4218060000000  0.4351790000000  0.4521480000000 1.0
C      1  0.5303160000000  0.5217410000000  0.5322190000000 1.0
C      1  0.5284570000000  0.4533950000000  0.4639700000000 1.0
C      1  0.5319390000000  0.4017850000000  0.4888060000000 1.0
C      1  0.5488370000000  0.5621770000000  0.4881250000000 1.0
C      1  0.5514540000000  0.5290290000000  0.5508260000000 1.0
C      1  0.5720710000000  0.5872250000000  0.4637070000000 1.0
C      1  0.5169730000000  0.5266990000000  0.5826780000000 1.0
C      1  0.4925280000000  0.5464240000000  0.4070480000000 1.0
C      1  0.4915720000000  0.4119550000000  0.4533710000000 1.0
END
