TITL C-862129-6180-407 0.371722322255197 125000 -432.653422754323 0 0 80 (C2) n - 1
REM
REM in /home/nfs/bkarasulu/CARBON/AIRSS/Generating-Clusters/TERSOFF/Higher-Symm/FIRE-HFTN
REM
REM
REM
REM
REM
REM ./C.cell (b20cbc046b6831c77cfcea5457e17084)
REM AIRSS Version 0.9.1 bugfix July 2018 build 013d7b7c2542+ Fri, 06 Jul 2018 19:26:36 +0100
REM compiler GCC version 9.2.1 20190827 (Red Hat 9.2.1-1)
REM options -cpp -mtune=generic -march=x86-64 -g -O0 -fpre-include=/usr/include/finclude/math-vector-fortran.h
REM seed -2039714943 -157421630 -771418812 1088598963 -636176369 1238703791 160771717 -1206245889 304645014 1213733340 1917570334 1112757563 144628346 1367961842 2111550989 -732583020 -2136458717 2034240215 -1582434243 1673148776 154805095 -1020947326 -225629711 -677278617 617930104 -472445840 1701598964 -1721164393 1973458866 -390390453 -774507951 982274826 493965616
REM
CELL 1.54180   50.00000   50.00000   50.00000   90.00000   90.00000   90.00000
LATT -1
SFAC C  
C      1  0.5463370000000  0.4335230000000  0.5489560000000 1.0
C      1  0.4536630000000  0.4335230000000  0.4510440000000 1.0
C      1  0.4463680000000  0.4922290000000  0.4829050000000 1.0
C      1  0.5536320000000  0.4922290000000  0.5170950000000 1.0
C      1  0.4903390000000  0.4538520000000  0.5659410000000 1.0
C      1  0.5096610000000  0.4538520000000  0.4340590000000 1.0
C      1  0.4423720000000  0.4962230000000  0.4522890000000 1.0
C      1  0.5576280000000  0.4962240000000  0.5477110000000 1.0
C      1  0.4788300000000  0.5753230000000  0.5320580000000 1.0
C      1  0.5211700000000  0.5753230000000  0.4679420000000 1.0
C      1  0.5619180000000  0.5610780000000  0.4930520000000 1.0
C      1  0.4380820000000  0.5610780000000  0.5069480000000 1.0
C      1  0.4635240000000  0.4815280000000  0.4372500000000 1.0
C      1  0.5364760000000  0.4815280000000  0.5627500000000 1.0
C      1  0.4865000000000  0.5635860000000  0.5053380000000 1.0
C      1  0.5135010000000  0.5635860000000  0.4946620000000 1.0
C      1  0.4340160000000  0.5663140000000  0.4599080000000 1.0
C      1  0.5659840000000  0.5663140000000  0.5400920000000 1.0
C      1  0.4782460000000  0.4964460000000  0.5206890000000 1.0
C      1  0.5217540000000  0.4964460000000  0.4793110000000 1.0
C      1  0.4592590000000  0.4745920000000  0.5308750000000 1.0
C      1  0.5407410000000  0.4745920000000  0.4691250000000 1.0
C      1  0.5052780000000  0.4357590000000  0.5240000000000 1.0
C      1  0.4947220000000  0.4357590000000  0.4760000000000 1.0
C      1  0.5141530000000  0.5386740000000  0.4326560000000 1.0
C      1  0.4858470000000  0.5386740000000  0.5673440000000 1.0
C      1  0.4704080000000  0.4264310000000  0.5213820000000 1.0
C      1  0.5295920000000  0.4264310000000  0.4786180000000 1.0
C      1  0.4934410000000  0.5669900000000  0.5561020000000 1.0
C      1  0.5065590000000  0.5669900000000  0.4438980000000 1.0
C      1  0.4841970000000  0.4324240000000  0.4479190000000 1.0
C      1  0.5158030000000  0.4324240000000  0.5520810000000 1.0
C      1  0.4176280000000  0.4783060000000  0.4540650000000 1.0
C      1  0.5823720000000  0.4783060000000  0.5459350000000 1.0
C      1  0.5582750000000  0.5252870000000  0.5540730000000 1.0
C      1  0.4417250000000  0.5252870000000  0.4459270000000 1.0
C      1  0.4290110000000  0.4785540000000  0.5326350000000 1.0
C      1  0.5709890000000  0.4785540000000  0.4673650000000 1.0
C      1  0.5372960000000  0.5513130000000  0.5085230000000 1.0
C      1  0.4627040000000  0.5513130000000  0.4914770000000 1.0
C      1  0.5392430000000  0.5471830000000  0.5409410000000 1.0
C      1  0.4607570000000  0.5471830000000  0.4590580000000 1.0
C      1  0.4941930000000  0.5016750000000  0.5493550000000 1.0
C      1  0.5058070000000  0.5016750000000  0.4506450000000 1.0
C      1  0.5062780000000  0.5229760000000  0.4868000000000 1.0
C      1  0.4937220000000  0.5229760000000  0.5132000000000 1.0
C      1  0.5556270000000  0.4234430000000  0.4973370000000 1.0
C      1  0.4443720000000  0.4234430000000  0.5026630000000 1.0
C      1  0.4844540000000  0.4130560000000  0.4956310000000 1.0
C      1  0.5155460000000  0.4130560000000  0.5043690000000 1.0
C      1  0.4387300000000  0.4389390000000  0.4775510000000 1.0
C      1  0.5612700000000  0.4389390000000  0.5224490000000 1.0
C      1  0.5511940000000  0.5757710000000  0.4692370000000 1.0
C      1  0.4488060000000  0.5757710000000  0.5307630000000 1.0
C      1  0.4228250000000  0.4826700000000  0.5013440000000 1.0
C      1  0.5771750000000  0.4826700000000  0.4986560000000 1.0
C      1  0.5239360000000  0.5070080000000  0.4257490000000 1.0
C      1  0.4760640000000  0.5070080000000  0.5742510000000 1.0
C      1  0.4640270000000  0.5924180000000  0.4312610000000 1.0
C      1  0.5359730000000  0.5924180000000  0.5687390000000 1.0
C      1  0.5100890000000  0.4672260000000  0.5234010000000 1.0
C      1  0.4899110000000  0.4672260000000  0.4765990000000 1.0
C      1  0.5227630000000  0.5699790000000  0.5559490000000 1.0
C      1  0.4772370000000  0.5699790000000  0.4440510000000 1.0
C      1  0.5815250000000  0.4611300000000  0.5213810000000 1.0
C      1  0.4184750000000  0.4611300000000  0.4786190000000 1.0
C      1  0.5353190000000  0.4775500000000  0.4249020000000 1.0
C      1  0.4646810000000  0.4775500000000  0.5750980000000 1.0
C      1  0.4723890000000  0.4854610000000  0.4925120000000 1.0
C      1  0.5276110000000  0.4854610000000  0.5074880000000 1.0
C      1  0.5643270000000  0.4744480000000  0.4344270000000 1.0
C      1  0.4356730000000  0.4744480000000  0.5655730000000 1.0
C      1  0.4903780000000  0.4766620000000  0.4477030000000 1.0
C      1  0.5096220000000  0.4766620000000  0.5522970000000 1.0
C      1  0.4699720000000  0.4505620000000  0.5412220000000 1.0
C      1  0.5300270000000  0.4505620000000  0.4587780000000 1.0
C      1  0.5786100000000  0.5722990000000  0.5144770000000 1.0
C      1  0.4213900000000  0.5722990000000  0.4855230000000 1.0
C      1  0.4912320000000  0.5311090000000  0.4593760000000 1.0
C      1  0.5087680000000  0.5311090000000  0.5406240000000 1.0
END
