TITL C-862506-1665-34 -9.19501039159629e-07 125000 -248.163954543156 0 0 43 (C2v) n - 1
REM
REM in /home/nfs/bkarasulu/CARBON/AIRSS/Generating-Clusters/TERSOFF/Higher-Symm/FIRE-HFTN
REM
REM
REM
REM
REM
REM ./C.cell (b20cbc046b6831c77cfcea5457e17084)
REM AIRSS Version 0.9.1 bugfix July 2018 build 013d7b7c2542+ Fri, 06 Jul 2018 19:26:36 +0100
REM compiler GCC version 9.2.1 20190827 (Red Hat 9.2.1-1)
REM options -cpp -mtune=generic -march=x86-64 -g -O0 -fpre-include=/usr/include/finclude/math-vector-fortran.h
REM seed -945667735 -969324886 865949578 2002754575 -257537173 1106431832 1857565248 -1521060335 -186064619 1768344589 -750315624 -442340585 -221470917 68434514 -1545815302 1627579782 1581685731 1003119962 539749688 -1811768955 -1732888273 -1048005324 -1339765462 983411289 306224354 1543555689 1540721757 -958381002 -75623422 -943840363 1805251229 -894472265 -62941030
REM
CELL 1.54180   50.00000   50.00000   50.00000   90.00000   90.00000   90.00000
LATT -1
SFAC C  
C      1  0.5422910000000  0.4769130000000  0.5219060000000 1.0
C      1  0.5422910000000  0.5231200000000  0.4790680000000 1.0
C      1  0.5422910000000  0.5231200000000  0.5219060000000 1.0
C      1  0.5422910000000  0.4769130000000  0.4790680000000 1.0
C      1  0.4912530000000  0.4788950000000  0.4671370000000 1.0
C      1  0.4912530000000  0.5211380000000  0.5338360000000 1.0
C      1  0.4912530000000  0.5211380000000  0.4671370000000 1.0
C      1  0.4912530000000  0.4788950000000  0.5338360000000 1.0
C      1  0.4913480000000  0.5471180000000  0.5465480000000 1.0
C      1  0.4913490000000  0.4529160000000  0.4544250000000 1.0
C      1  0.4913480000000  0.4529160000000  0.5465480000000 1.0
C      1  0.4913490000000  0.5471180000000  0.4544250000000 1.0
C      1  0.5446110000000  0.5524400000000  0.5251820000000 1.0
C      1  0.5446120000000  0.4475940000000  0.4757920000000 1.0
C      1  0.5446110000000  0.4475940000000  0.5251820000000 1.0
C      1  0.5446120000000  0.5524400000000  0.4757920000000 1.0
C      1  0.5232780000000  0.5709500000000  0.5153470000000 1.0
C      1  0.5232780000000  0.4290840000000  0.4856260000000 1.0
C      1  0.5232780000000  0.4290840000000  0.5153470000000 1.0
C      1  0.5232780000000  0.5709500000000  0.4856260000000 1.0
C      1  0.4524980000000  0.4481620000000  0.5263040000000 1.0
C      1  0.4524990000000  0.5518720000000  0.4746690000000 1.0
C      1  0.4524980000000  0.5518720000000  0.5263040000000 1.0
C      1  0.4524990000000  0.4481620000000  0.4746690000000 1.0
C      1  0.4516720000000  0.5243910000000  0.5154150000000 1.0
C      1  0.4516730000000  0.4756420000000  0.4855580000000 1.0
C      1  0.4516720000000  0.4756420000000  0.5154150000000 1.0
C      1  0.4516730000000  0.5243910000000  0.4855580000000 1.0
C      1  0.5137930000000  0.4851390000000  0.5163850000000 1.0
C      1  0.5137930000000  0.5148950000000  0.4845880000000 1.0
C      1  0.5137930000000  0.5148950000000  0.5163850000000 1.0
C      1  0.5137930000000  0.4851390000000  0.4845880000000 1.0
C      1  0.4971040000000  0.4289730000000  0.4709980000000 1.0
C      1  0.4971040000000  0.5710610000000  0.5299750000000 1.0
C      1  0.4971040000000  0.5710610000000  0.4709980000000 1.0
C      1  0.4971040000000  0.4289730000000  0.5299750000000 1.0
C      1  0.4710350000000  0.4275130000000  0.5152870000000 1.0
C      1  0.4710350000000  0.5725210000000  0.4856860000000 1.0
C      1  0.4710350000000  0.5725210000000  0.5152870000000 1.0
C      1  0.4710350000000  0.4275130000000  0.4856860000000 1.0
C      1  0.4647250000000  0.5000170000000  0.5319230000000 1.0
C      1  0.4647250000000  0.5000170000000  0.4690500000000 1.0
C      1  0.5599450000000  0.5000170000000  0.5004870000000 1.0
END
