TITL C-862130-1496-934 0.432799310855959 125000 -1102.45069599089 0 0 188 (C3) n - 1
REM
REM in /home/nfs/bkarasulu/CARBON/AIRSS/Generating-Clusters/TERSOFF/Higher-Symm/FIRE-HFTN
REM
REM
REM
REM
REM
REM ./C.cell (b20cbc046b6831c77cfcea5457e17084)
REM AIRSS Version 0.9.1 bugfix July 2018 build 013d7b7c2542+ Fri, 06 Jul 2018 19:26:36 +0100
REM compiler GCC version 9.2.1 20190827 (Red Hat 9.2.1-1)
REM options -cpp -mtune=generic -march=x86-64 -g -O0 -fpre-include=/usr/include/finclude/math-vector-fortran.h
REM seed 1444872035 370355670 1758956544 1061908341 -1225812811 -320618238 -1879101581 -529515008 2146292837 -986477233 -1774313020 145838333 -919009069 -2073287908 -1727721116 -391619858 -436753946 289144406 -1849977814 1922779692 -1990018144 683913196 -939784308 1146722412 -1312751454 1323790526 1387633550 1780645363 -1889642703 -1704712363 213699997 -893055052 1461444117
REM
CELL 1.54180   50.00000   50.00000   50.00000   90.00000   90.00000   90.00000
LATT -1
SFAC C  
C      1  0.5036050000000  0.5408310000000  0.4952780000000 1.0
C      1  0.4624650000000  0.4826230000000  0.4952780000000 1.0
C      1  0.5334440000000  0.4760990000000  0.4952790000000 1.0
C      1  0.6041450000000  0.5681740000000  0.5126290000000 1.0
C      1  0.3885150000000  0.5560220000000  0.5126290000000 1.0
C      1  0.5068540000000  0.3753570000000  0.5126290000000 1.0
C      1  0.4874550000000  0.4169100000000  0.5445250000000 1.0
C      1  0.5778590000000  0.5305970000000  0.5445260000000 1.0
C      1  0.4342010000000  0.5520460000000  0.5445250000000 1.0
C      1  0.5131920000000  0.5658570000000  0.4537640000000 1.0
C      1  0.4359990000000  0.4784130000000  0.4537640000000 1.0
C      1  0.5503240000000  0.4552830000000  0.4537640000000 1.0
C      1  0.6083710000000  0.5273290000000  0.5463620000000 1.0
C      1  0.4217760000000  0.5801050000000  0.5463610000000 1.0
C      1  0.4693680000000  0.3921200000000  0.5463610000000 1.0
C      1  0.5543560000000  0.4732350000000  0.6067290000000 1.0
C      1  0.4956290000000  0.5603740000000  0.6067290000000 1.0
C      1  0.4495280000000  0.4659450000000  0.6067290000000 1.0
C      1  0.6370040000000  0.4843950000000  0.5471750000000 1.0
C      1  0.4446410000000  0.6263690000000  0.5471740000000 1.0
C      1  0.4178690000000  0.3887900000000  0.5471740000000 1.0
C      1  0.4632320000000  0.4933330000000  0.5228300000000 1.0
C      1  0.5237860000000  0.4714080000000  0.5228300000000 1.0
C      1  0.5124970000000  0.5348120000000  0.5228300000000 1.0
C      1  0.5331960000000  0.4708620000000  0.4350300000000 1.0
C      1  0.5082660000000  0.5432340000000  0.4350290000000 1.0
C      1  0.4580550000000  0.4854580000000  0.4350290000000 1.0
C      1  0.5521210000000  0.5877410000000  0.4469580000000 1.0
C      1  0.3975830000000  0.5011840000000  0.4469580000000 1.0
C      1  0.5498120000000  0.4106280000000  0.4469580000000 1.0
C      1  0.4876580000000  0.3706420000000  0.5350180000000 1.0
C      1  0.6178260000000  0.5539070000000  0.5350180000000 1.0
C      1  0.3940300000000  0.5750040000000  0.5350170000000 1.0
C      1  0.4732850000000  0.5199400000000  0.5295710000000 1.0
C      1  0.4957170000000  0.4668110000000  0.5295710000000 1.0
C      1  0.5305120000000  0.5128020000000  0.5295710000000 1.0
C      1  0.4950840000000  0.6230630000000  0.5380430000000 1.0
C      1  0.3955110000000  0.4341280000000  0.5380430000000 1.0
C      1  0.6089200000000  0.4423620000000  0.5380430000000 1.0
C      1  0.5791620000000  0.5486100000000  0.4258540000000 1.0
C      1  0.4179510000000  0.5441680000000  0.4258540000000 1.0
C      1  0.5024030000000  0.4067760000000  0.4258540000000 1.0
C      1  0.5335510000000  0.3855190000000  0.5196250000000 1.0
C      1  0.5819960000000  0.5862130000000  0.5196250000000 1.0
C      1  0.3839670000000  0.5278210000000  0.5196250000000 1.0
C      1  0.4732660000000  0.5154020000000  0.3963900000000 1.0
C      1  0.4996580000000  0.4690630000000  0.3963900000000 1.0
C      1  0.5265920000000  0.5150880000000  0.3963900000000 1.0
C      1  0.4537310000000  0.4198420000000  0.4494800000000 1.0
C      1  0.5921820000000  0.4999250000000  0.4494800000000 1.0
C      1  0.4536030000000  0.5797860000000  0.4494800000000 1.0
C      1  0.5215800000000  0.5255390000000  0.5744230000000 1.0
C      1  0.4667210000000  0.5058370000000  0.5744220000000 1.0
C      1  0.5112130000000  0.4681780000000  0.5744230000000 1.0
C      1  0.4326700000000  0.4412840000000  0.5152560000000 1.0
C      1  0.5841430000000  0.4709650000000  0.5152560000000 1.0
C      1  0.4827020000000  0.5873040000000  0.5152560000000 1.0
C      1  0.5550020000000  0.4301510000000  0.5036090000000 1.0
C      1  0.5326180000000  0.5824740000000  0.5036090000000 1.0
C      1  0.4118950000000  0.4869280000000  0.5036080000000 1.0
C      1  0.5701940000000  0.4356210000000  0.4412560000000 1.0
C      1  0.5202860000000  0.5928950000000  0.4412560000000 1.0
C      1  0.4090360000000  0.4710370000000  0.4412550000000 1.0
C      1  0.5678330000000  0.4479030000000  0.4114000000000 1.0
C      1  0.5108300000000  0.5847100000000  0.4114000000000 1.0
C      1  0.4208530000000  0.4669400000000  0.4114000000000 1.0
C      1  0.5382710000000  0.4223040000000  0.5545860000000 1.0
C      1  0.5477790000000  0.5719080000000  0.5545860000000 1.0
C      1  0.4134640000000  0.5053410000000  0.5545850000000 1.0
C      1  0.4882600000000  0.5211360000000  0.4786820000000 1.0
C      1  0.4871940000000  0.4791820000000  0.4786820000000 1.0
C      1  0.5240610000000  0.4992360000000  0.4786820000000 1.0
C      1  0.5071430000000  0.6015130000000  0.5040740000000 1.0
C      1  0.4081440000000  0.4553460000000  0.5040740000000 1.0
C      1  0.5842270000000  0.4426940000000  0.5040750000000 1.0
C      1  0.4793650000000  0.4663830000000  0.4330220000000 1.0
C      1  0.5390600000000  0.4988540000000  0.4330230000000 1.0
C      1  0.4810910000000  0.5343160000000  0.4330220000000 1.0
C      1  0.4960220000000  0.3851980000000  0.4878420000000 1.0
C      1  0.6010390000000  0.5538720000000  0.4878420000000 1.0
C      1  0.4024540000000  0.5604830000000  0.4878410000000 1.0
C      1  0.6170130000000  0.4894470000000  0.4587980000000 1.0
C      1  0.4502620000000  0.6065290000000  0.4587970000000 1.0
C      1  0.4322410000000  0.4035770000000  0.4587980000000 1.0
C      1  0.4299230000000  0.5795980000000  0.5760940000000 1.0
C      1  0.4657330000000  0.3994290000000  0.5760940000000 1.0
C      1  0.6038580000000  0.5205260000000  0.5760940000000 1.0
C      1  0.6205500000000  0.5028630000000  0.5320780000000 1.0
C      1  0.4368740000000  0.6028850000000  0.5320770000000 1.0
C      1  0.4420900000000  0.3938050000000  0.5320770000000 1.0
C      1  0.5782350000000  0.5103990000000  0.5022230000000 1.0
C      1  0.4515060000000  0.5624700000000  0.5022220000000 1.0
C      1  0.4697750000000  0.4266840000000  0.5022220000000 1.0
C      1  0.5056530000000  0.4207750000000  0.5939700000000 1.0
C      1  0.5654120000000  0.5444260000000  0.5939700000000 1.0
C      1  0.4284480000000  0.5343530000000  0.5939700000000 1.0
C      1  0.5427090000000  0.5130750000000  0.4592580000000 1.0
C      1  0.4669510000000  0.5303660000000  0.4592580000000 1.0
C      1  0.4898550000000  0.4561120000000  0.4592580000000 1.0
C      1  0.3795950000000  0.5060700000000  0.4706020000000 1.0
C      1  0.5545750000000  0.3926080000000  0.4706020000000 1.0
C      1  0.5653460000000  0.6008760000000  0.4706020000000 1.0
C      1  0.4680400000000  0.5468310000000  0.4079110000000 1.0
C      1  0.4750520000000  0.4488220000000  0.4079110000000 1.0
C      1  0.5564240000000  0.5039000000000  0.4079110000000 1.0
C      1  0.5426130000000  0.4408240000000  0.3980230000000 1.0
C      1  0.5295710000000  0.5664080000000  0.3980230000000 1.0
C      1  0.4273330000000  0.4923210000000  0.3980220000000 1.0
C      1  0.4516280000000  0.4493380000000  0.5372820000000 1.0
C      1  0.5676890000000  0.4833560000000  0.5372820000000 1.0
C      1  0.4801980000000  0.5668590000000  0.5372820000000 1.0
C      1  0.3950310000000  0.4482780000000  0.4545360000000 1.0
C      1  0.5969060000000  0.4348720000000  0.4545360000000 1.0
C      1  0.5075790000000  0.6164030000000  0.4545360000000 1.0
C      1  0.4595590000000  0.4384410000000  0.6092370000000 1.0
C      1  0.5731610000000  0.4956740000000  0.6092370000000 1.0
C      1  0.4667950000000  0.5654390000000  0.6092370000000 1.0
C      1  0.4534240000000  0.5958850000000  0.5083100000000 1.0
C      1  0.4398780000000  0.4116380000000  0.5083110000000 1.0
C      1  0.6062140000000  0.4920300000000  0.5083110000000 1.0
C      1  0.5836500000000  0.4345770000000  0.5502270000000 1.0
C      1  0.5144620000000  0.6050710000000  0.5502260000000 1.0
C      1  0.4014030000000  0.4599050000000  0.5502260000000 1.0
C      1  0.4764100000000  0.4246710000000  0.5887460000000 1.0
C      1  0.5766600000000  0.5171520000000  0.5887460000000 1.0
C      1  0.4464440000000  0.5577300000000  0.5887460000000 1.0
C      1  0.5754350000000  0.4771880000000  0.4053670000000 1.0
C      1  0.4816670000000  0.5766510000000  0.4053670000000 1.0
C      1  0.4424140000000  0.4457140000000  0.4053670000000 1.0
C      1  0.5559930000000  0.4379810000000  0.5379050000000 1.0
C      1  0.5253420000000  0.5794180000000  0.5379050000000 1.0
C      1  0.4181800000000  0.4821540000000  0.5379050000000 1.0
C      1  0.6168690000000  0.4743940000000  0.4834080000000 1.0
C      1  0.4633690000000  0.6139310000000  0.4834080000000 1.0
C      1  0.4192770000000  0.4112270000000  0.4834080000000 1.0
C      1  0.5232150000000  0.4356930000000  0.5763530000000 1.0
C      1  0.5437120000000  0.5521760000000  0.5763530000000 1.0
C      1  0.4325870000000  0.5116850000000  0.5763530000000 1.0
C      1  0.6302490000000  0.4566480000000  0.5517160000000 1.0
C      1  0.4720480000000  0.6343920000000  0.5517150000000 1.0
C      1  0.3972170000000  0.4085140000000  0.5517150000000 1.0
C      1  0.4821150000000  0.5641940000000  0.4915610000000 1.0
C      1  0.4529780000000  0.4523310000000  0.4915610000000 1.0
C      1  0.5644230000000  0.4830290000000  0.4915610000000 1.0
C      1  0.5460800000000  0.5418750000000  0.4639430000000 1.0
C      1  0.4403240000000  0.5188850000000  0.4639430000000 1.0
C      1  0.5131120000000  0.4387930000000  0.4639430000000 1.0
C      1  0.4023200000000  0.4370920000000  0.4809350000000 1.0
C      1  0.6029490000000  0.4467770000000  0.4809360000000 1.0
C      1  0.4942460000000  0.6156840000000  0.4809360000000 1.0
C      1  0.5512080000000  0.5112540000000  0.5705930000000 1.0
C      1  0.4642780000000  0.5386370000000  0.5705920000000 1.0
C      1  0.4840290000000  0.4496620000000  0.5705920000000 1.0
C      1  0.4799400000000  0.4405300000000  0.5294250000000 1.0
C      1  0.5611610000000  0.5122790000000  0.5294260000000 1.0
C      1  0.4584140000000  0.5467440000000  0.5294250000000 1.0
C      1  0.5672490000000  0.4967540000000  0.4640780000000 1.0
C      1  0.4688160000000  0.5597780000000  0.4640780000000 1.0
C      1  0.4634510000000  0.4430210000000  0.4640780000000 1.0
C      1  0.4876740000000  0.4212230000000  0.4050390000000 1.0
C      1  0.5740150000000  0.5286300000000  0.4050390000000 1.0
C      1  0.4378270000000  0.5497000000000  0.4050390000000 1.0
C      1  0.5230010000000  0.4578990000000  0.4107120000000 1.0
C      1  0.5245900000000  0.5408860000000  0.4107120000000 1.0
C      1  0.4519260000000  0.5007680000000  0.4107120000000 1.0
C      1  0.4662900000000  0.4895500000000  0.6014490000000 1.0
C      1  0.5255340000000  0.4759480000000  0.6014500000000 1.0
C      1  0.5076910000000  0.5340560000000  0.6014500000000 1.0
C      1  0.5592760000000  0.5588450000000  0.4444710000000 1.0
C      1  0.4190290000000  0.5218290000000  0.4444710000000 1.0
C      1  0.5212100000000  0.4188790000000  0.4444710000000 1.0
C      1  0.5376490000000  0.4490930000000  0.4819650000000 1.0
C      1  0.5248910000000  0.5579750000000  0.4819650000000 1.0
C      1  0.4369760000000  0.4924850000000  0.4819650000000 1.0
C      1  0.5352920000000  0.3945510000000  0.5474830000000 1.0
C      1  0.5733040000000  0.5832050000000  0.5474830000000 1.0
C      1  0.3909180000000  0.5217970000000  0.5474820000000 1.0
C      1  0.5601050000000  0.5928730000000  0.4987680000000 1.0
C      1  0.3891450000000  0.5055330000000  0.4987680000000 1.0
C      1  0.5502650000000  0.4011470000000  0.4987680000000 1.0
C      1  0.4472490000000  0.4774290000000  0.5409540000000 1.0
C      1  0.5455510000000  0.4655180000000  0.5409550000000 1.0
C      1  0.5067150000000  0.5566060000000  0.5409550000000 1.0
C      1  0.5817590000000  0.5329250000000  0.4841570000000 1.0
C      1  0.4302350000000  0.5542600000000  0.4841560000000 1.0
C      1  0.4875200000000  0.4123690000000  0.4841560000000 1.0
C      1  0.4998390000000  0.4998510000000  0.3936430000000 1.0
C      1  0.4998380000000  0.4998510000000  0.5683340000000 1.0
END
