TITL C-862506-1665-654 -0.392857444730204 125000 -15.9241984028127 0 0 5 (D(inf)h) n - 1
REM
REM in /home/nfs/bkarasulu/CARBON/AIRSS/Generating-Clusters/TERSOFF/Higher-Symm/FIRE-HFTN
REM
REM
REM
REM
REM
REM ./C.cell (b20cbc046b6831c77cfcea5457e17084)
REM AIRSS Version 0.9.1 bugfix July 2018 build 013d7b7c2542+ Fri, 06 Jul 2018 19:26:36 +0100
REM compiler GCC version 9.2.1 20190827 (Red Hat 9.2.1-1)
REM options -cpp -mtune=generic -march=x86-64 -g -O0 -fpre-include=/usr/include/finclude/math-vector-fortran.h
REM seed -906728609 640401745 -1769555405 925165307 130892660 -688468866 -102370435 -1104992259 -1649484193 -1560447665 -1217138490 1361947979 -1310050941 1002624260 157943583 -1358740978 -313087745 -1720709006 707440046 -994966736 -1920318308 -1275133588 -1219238303 -2035783203 -1689933130 1348041474 -1869596004 -1522124240 898916273 1382913007 1686809449 1346074227 92243044
REM
CELL 1.54180   50.00000   50.00000   50.00000   90.00000   90.00000   90.00000
LATT -1
SFAC C  
C      1  0.5000960000000  0.5309890000000  0.5015600000000 1.0
C      1  0.5000960000000  0.4690110000000  0.5015600000000 1.0
C      1  0.5000960000000  0.5000000000000  0.5015600000000 1.0
C      1  0.5000960000000  0.5609220000000  0.5015600000000 1.0
C      1  0.5000960000000  0.4390780000000  0.5015600000000 1.0
END
