TITL C-862130-1496-527 -0.00109268481873891 125000 -393.394979500963 0 0 74 (C3i) n - 1
REM
REM in /home/nfs/bkarasulu/CARBON/AIRSS/Generating-Clusters/TERSOFF/Higher-Symm/FIRE-HFTN
REM
REM
REM
REM
REM
REM ./C.cell (b20cbc046b6831c77cfcea5457e17084)
REM AIRSS Version 0.9.1 bugfix July 2018 build 013d7b7c2542+ Fri, 06 Jul 2018 19:26:36 +0100
REM compiler GCC version 9.2.1 20190827 (Red Hat 9.2.1-1)
REM options -cpp -mtune=generic -march=x86-64 -g -O0 -fpre-include=/usr/include/finclude/math-vector-fortran.h
REM seed -1991349842 -912407094 -1932999825 -597269730 -302013658 337411700 -1690206998 -406218690 -774598791 -264036035 1596952740 306533660 2093732586 1115722126 -520127791 1803757990 1632459982 -1815864774 352728077 -1518453612 903260942 1751758400 -354685864 614970337 669093773 -1882899310 -1280026886 1910538088 -1923093625 -1427914155 -1740335059 -1094252220 -1654083968
REM
CELL 1.54180   50.00000   50.00000   50.00000   90.00000   90.00000   90.00000
LATT -1
SFAC C  
C      1  0.4390320000000  0.5130390000000  0.5753140000000 1.0
C      1  0.5609680000000  0.4407070000000  0.5495560000000 1.0
C      1  0.4390320000000  0.4268480000000  0.4740350000000 1.0
C      1  0.5609680000000  0.4853210000000  0.4242730000000 1.0
C      1  0.4390320000000  0.5576530000000  0.4500310000000 1.0
C      1  0.5609680000000  0.5715120000000  0.5255510000000 1.0
C      1  0.4870470000000  0.5669010000000  0.5066240000000 1.0
C      1  0.5129530000000  0.5271250000000  0.5618570000000 1.0
C      1  0.4870470000000  0.4594040000000  0.5550260000000 1.0
C      1  0.5129530000000  0.4314590000000  0.4929630000000 1.0
C      1  0.4870470000000  0.4712350000000  0.4377300000000 1.0
C      1  0.5129530000000  0.5389560000000  0.4445600000000 1.0
C      1  0.5670780000000  0.5068890000000  0.5295090000000 1.0
C      1  0.4329220000000  0.4773000000000  0.5213270000000 1.0
C      1  0.5670780000000  0.4695920000000  0.4916110000000 1.0
C      1  0.4329220000000  0.4914720000000  0.4700780000000 1.0
C      1  0.5670780000000  0.5210600000000  0.4782600000000 1.0
C      1  0.4329220000000  0.5287690000000  0.5079750000000 1.0
C      1  0.4642260000000  0.4622000000000  0.5312000000000 1.0
C      1  0.5357740000000  0.4534910000000  0.4834710000000 1.0
C      1  0.4642260000000  0.4904710000000  0.4520630000000 1.0
C      1  0.5357740000000  0.5361610000000  0.4683860000000 1.0
C      1  0.4642260000000  0.5448700000000  0.5161160000000 1.0
C      1  0.5357740000000  0.5078890000000  0.5475230000000 1.0
C      1  0.5112410000000  0.5651190000000  0.5247870000000 1.0
C      1  0.4887590000000  0.5105040000000  0.5693950000000 1.0
C      1  0.5112410000000  0.4445660000000  0.5444010000000 1.0
C      1  0.4887590000000  0.4332420000000  0.4747990000000 1.0
C      1  0.5112410000000  0.4878560000000  0.4301920000000 1.0
C      1  0.4887590000000  0.5537950000000  0.4551860000000 1.0
C      1  0.4292060000000  0.5759810000000  0.4701630000000 1.0
C      1  0.5707950000000  0.5632400000000  0.5514890000000 1.0
C      1  0.4292060000000  0.4864400000000  0.5811200000000 1.0
C      1  0.5707930000000  0.4223780000000  0.5294240000000 1.0
C      1  0.4292060000000  0.4351190000000  0.4480970000000 1.0
C      1  0.5707950000000  0.5119200000000  0.4184680000000 1.0
C      1  0.5773320000000  0.5262900000000  0.5070450000000 1.0
C      1  0.4226680000000  0.5064550000000  0.5268960000000 1.0
C      1  0.5773320000000  0.4793450000000  0.5196450000000 1.0
C      1  0.4226680000000  0.4720710000000  0.4925410000000 1.0
C      1  0.5773320000000  0.4919060000000  0.4726900000000 1.0
C      1  0.4226680000000  0.5190150000000  0.4799420000000 1.0
C      1  0.5376050000000  0.4825300000000  0.5628740000000 1.0
C      1  0.4623950000000  0.4362250000000  0.5169140000000 1.0
C      1  0.5376050000000  0.4528760000000  0.4538330000000 1.0
C      1  0.4623950000000  0.5158310000000  0.4367120000000 1.0
C      1  0.5376050000000  0.5621350000000  0.4826720000000 1.0
C      1  0.4623950000000  0.5454850000000  0.5457530000000 1.0
C      1  0.5086420000000  0.4249910000000  0.5219890000000 1.0
C      1  0.4913580000000  0.4428630000000  0.4466410000000 1.0
C      1  0.5086420000000  0.5170530000000  0.4244450000000 1.0
C      1  0.4913580000000  0.5733700000000  0.4775970000000 1.0
C      1  0.5086420000000  0.5554970000000  0.5529450000000 1.0
C      1  0.4913580000000  0.4813080000000  0.5751410000000 1.0
C      1  0.4622930000000  0.4385210000000  0.4876450000000 1.0
C      1  0.5377070000000  0.4793710000000  0.4411860000000 1.0
C      1  0.4622930000000  0.5400310000000  0.4533350000000 1.0
C      1  0.5377070000000  0.5598400000000  0.5119410000000 1.0
C      1  0.4622930000000  0.5189890000000  0.5584000000000 1.0
C      1  0.5377070000000  0.4583300000000  0.5462520000000 1.0
C      1  0.4940830000000  0.4772050000000  0.5176830000000 1.0
C      1  0.5059170000000  0.4726990000000  0.4897070000000 1.0
C      1  0.4940830000000  0.4946750000000  0.4718170000000 1.0
C      1  0.5059170000000  0.5211560000000  0.4819030000000 1.0
C      1  0.4940830000000  0.5256610000000  0.5098800000000 1.0
C      1  0.5059170000000  0.5036860000000  0.5277700000000 1.0
C      1  0.4642230000000  0.5036850000000  0.5306980000000 1.0
C      1  0.5357770000000  0.4746680000000  0.5191470000000 1.0
C      1  0.4642230000000  0.4701630000000  0.4882420000000 1.0
C      1  0.5357770000000  0.4946760000000  0.4688880000000 1.0
C      1  0.4642230000000  0.5236930000000  0.4804400000000 1.0
C      1  0.5357770000000  0.5281970000000  0.5113450000000 1.0
C      1  0.5371120000000  0.4991800000000  0.4997930000000 1.0
C      1  0.4628880000000  0.4991800000000  0.4997930000000 1.0
END
