TITL C-862507-1800-1065 -0.00308186086269849 125000 -1047.86714146896 0 0 194 (S8) n - 1
REM
REM in /home/nfs/bkarasulu/CARBON/AIRSS/Generating-Clusters/TERSOFF/Higher-Symm/FIRE-HFTN
REM
REM
REM
REM
REM
REM ./C.cell (b20cbc046b6831c77cfcea5457e17084)
REM AIRSS Version 0.9.1 bugfix July 2018 build 013d7b7c2542+ Fri, 06 Jul 2018 19:26:36 +0100
REM compiler GCC version 9.2.1 20190827 (Red Hat 9.2.1-1)
REM options -cpp -mtune=generic -march=x86-64 -g -O0 -fpre-include=/usr/include/finclude/math-vector-fortran.h
REM seed 1466616214 -430830072 1579781643 -1792149401 -2143379050 -446327984 -2023807507 -713325245 1152629247 1586882781 972933330 1871936610 611626175 1043151259 -1195306789 -638810297 -1918404270 1654440915 -413828049 1977146082 184400672 -257640726 -1454743329 537165988 981243264 -59136454 -2129757642 -288526451 -1726078226 165207569 1978398269 1428939122 -1559150775
REM
CELL 1.54180   50.00000   50.00000   50.00000   90.00000   90.00000   90.00000
LATT -1
SFAC C  
C      1  0.4775620000000  0.5320030000000  0.4564410000000 1.0
C      1  0.5224330000000  0.5534410000000  0.4918830000000 1.0
C      1  0.4775580000000  0.5435340000000  0.5320960000000 1.0
C      1  0.5224340000000  0.5080990000000  0.5535320000000 1.0
C      1  0.4775630000000  0.4678800000000  0.5436270000000 1.0
C      1  0.5224410000000  0.4464490000000  0.5081900000000 1.0
C      1  0.4775680000000  0.4563480000000  0.4679730000000 1.0
C      1  0.5224400000000  0.4917910000000  0.4465410000000 1.0
C      1  0.4499150000000  0.5868500000000  0.4872930000000 1.0
C      1  0.5500700000000  0.5704110000000  0.5524850000000 1.0
C      1  0.4499170000000  0.5126790000000  0.5869440000000 1.0
C      1  0.5500790000000  0.4475000000000  0.5705020000000 1.0
C      1  0.4499280000000  0.4130280000000  0.5127730000000 1.0
C      1  0.5500860000000  0.4294830000000  0.4475910000000 1.0
C      1  0.4499270000000  0.4871990000000  0.4131220000000 1.0
C      1  0.5500770000000  0.5523940000000  0.4295740000000 1.0
C      1  0.5521530000000  0.4940410000000  0.6052530000000 1.0
C      1  0.4478460000000  0.4213640000000  0.5702550000000 1.0
C      1  0.5521660000000  0.3947320000000  0.4941320000000 1.0
C      1  0.4478520000000  0.4297170000000  0.4214580000000 1.0
C      1  0.5521620000000  0.5058540000000  0.3948230000000 1.0
C      1  0.4478400000000  0.5785140000000  0.4298110000000 1.0
C      1  0.5521490000000  0.6051630000000  0.5059440000000 1.0
C      1  0.4478340000000  0.5701610000000  0.5786080000000 1.0
C      1  0.5078960000000  0.4336840000000  0.6105100000000 1.0
C      1  0.4921130000000  0.3749730000000  0.5312990000000 1.0
C      1  0.5079070000000  0.3894700000000  0.4337760000000 1.0
C      1  0.4921130000000  0.4686780000000  0.3750650000000 1.0
C      1  0.5078950000000  0.5662040000000  0.3895620000000 1.0
C      1  0.4920960000000  0.6249120000000  0.4687710000000 1.0
C      1  0.5078840000000  0.6104180000000  0.5662960000000 1.0
C      1  0.4920960000000  0.5312070000000  0.6250050000000 1.0
C      1  0.5221350000000  0.5025310000000  0.6071930000000 1.0
C      1  0.4778620000000  0.4259990000000  0.5776340000000 1.0
C      1  0.5221490000000  0.3927880000000  0.5026230000000 1.0
C      1  0.4778700000000  0.4223410000000  0.4260920000000 1.0
C      1  0.5221450000000  0.4973590000000  0.3928800000000 1.0
C      1  0.4778580000000  0.5738840000000  0.4224340000000 1.0
C      1  0.5221320000000  0.6071010000000  0.4974500000000 1.0
C      1  0.4778500000000  0.5775410000000  0.5739770000000 1.0
C      1  0.5335700000000  0.4596910000000  0.5898530000000 1.0
C      1  0.4664340000000  0.4079660000000  0.5350790000000 1.0
C      1  0.5335800000000  0.4101300000000  0.4597820000000 1.0
C      1  0.4664360000000  0.4648960000000  0.4080600000000 1.0
C      1  0.5335720000000  0.5402010000000  0.4102210000000 1.0
C      1  0.4664230000000  0.5919150000000  0.4649890000000 1.0
C      1  0.5335620000000  0.5897620000000  0.5402920000000 1.0
C      1  0.4664220000000  0.5349860000000  0.5920080000000 1.0
C      1  0.4856620000000  0.4763460000000  0.5733590000000 1.0
C      1  0.5143400000000  0.4314110000000  0.5351990000000 1.0
C      1  0.4856700000000  0.4266180000000  0.4764380000000 1.0
C      1  0.5143430000000  0.4647820000000  0.4315030000000 1.0
C      1  0.4856650000000  0.5235390000000  0.4267110000000 1.0
C      1  0.5143330000000  0.5684780000000  0.4648730000000 1.0
C      1  0.4856560000000  0.5732660000000  0.5236310000000 1.0
C      1  0.5143310000000  0.5351070000000  0.5685690000000 1.0
C      1  0.4546780000000  0.5308380000000  0.5494100000000 1.0
C      1  0.5453150000000  0.4868810000000  0.5568010000000 1.0
C      1  0.4546850000000  0.4505630000000  0.5309320000000 1.0
C      1  0.5453220000000  0.4431840000000  0.4869720000000 1.0
C      1  0.4546880000000  0.4690410000000  0.4506570000000 1.0
C      1  0.5453190000000  0.5130130000000  0.4432750000000 1.0
C      1  0.4546810000000  0.5493160000000  0.4691350000000 1.0
C      1  0.5453120000000  0.5567100000000  0.5131030000000 1.0
C      1  0.4680480000000  0.4902120000000  0.5937550000000 1.0
C      1  0.5319510000000  0.4267950000000  0.5594290000000 1.0
C      1  0.4680590000000  0.4062190000000  0.4903050000000 1.0
C      1  0.5319570000000  0.4405540000000  0.4268870000000 1.0
C      1  0.4680550000000  0.5096690000000  0.4063130000000 1.0
C      1  0.5319450000000  0.5730960000000  0.4406450000000 1.0
C      1  0.4680440000000  0.5936620000000  0.5097630000000 1.0
C      1  0.5319400000000  0.5593370000000  0.5731870000000 1.0
C      1  0.4855840000000  0.5460960000000  0.5732410000000 1.0
C      1  0.5144060000000  0.4808160000000  0.5844370000000 1.0
C      1  0.4855950000000  0.4267360000000  0.5461890000000 1.0
C      1  0.5144160000000  0.4155440000000  0.4809080000000 1.0
C      1  0.4855990000000  0.4537880000000  0.4268290000000 1.0
C      1  0.5144110000000  0.5190730000000  0.4156360000000 1.0
C      1  0.4855880000000  0.5731480000000  0.4538810000000 1.0
C      1  0.5144010000000  0.5843450000000  0.5191650000000 1.0
C      1  0.4193460000000  0.4168490000000  0.5164650000000 1.0
C      1  0.5806680000000  0.4295780000000  0.4529080000000 1.0
C      1  0.4193450000000  0.4835030000000  0.4169440000000 1.0
C      1  0.5806600000000  0.5470810000000  0.4296670000000 1.0
C      1  0.4193340000000  0.5830240000000  0.4835980000000 1.0
C      1  0.5806520000000  0.5703220000000  0.5471710000000 1.0
C      1  0.4193350000000  0.5163700000000  0.5831190000000 1.0
C      1  0.5806610000000  0.4528180000000  0.5704110000000 1.0
C      1  0.4665180000000  0.5522580000000  0.4028780000000 1.0
C      1  0.5334750000000  0.6056390000000  0.4683320000000 1.0
C      1  0.4665080000000  0.5970960000000  0.5523510000000 1.0
C      1  0.5334750000000  0.5316510000000  0.6057310000000 1.0
C      1  0.4665170000000  0.4476230000000  0.5971890000000 1.0
C      1  0.5334890000000  0.3942520000000  0.5317420000000 1.0
C      1  0.4665280000000  0.4027850000000  0.4477160000000 1.0
C      1  0.5334900000000  0.4682410000000  0.3943440000000 1.0
C      1  0.4021310000000  0.4517820000000  0.4645070000000 1.0
C      1  0.5978780000000  0.4910210000000  0.4408720000000 1.0
C      1  0.4021250000000  0.5354590000000  0.4518780000000 1.0
C      1  0.5978700000000  0.5591200000000  0.4911100000000 1.0
C      1  0.4021200000000  0.5480880000000  0.5355550000000 1.0
C      1  0.5978710000000  0.5088810000000  0.5592090000000 1.0
C      1  0.4021260000000  0.4644110000000  0.5481840000000 1.0
C      1  0.5978780000000  0.4407820000000  0.5089700000000 1.0
C      1  0.5632900000000  0.4946540000000  0.5783030000000 1.0
C      1  0.4367090000000  0.4408530000000  0.5516300000000 1.0
C      1  0.5633000000000  0.4216840000000  0.4947440000000 1.0
C      1  0.4367130000000  0.4483410000000  0.4409480000000 1.0
C      1  0.5632970000000  0.5052430000000  0.4217740000000 1.0
C      1  0.4367040000000  0.5590230000000  0.4484350000000 1.0
C      1  0.5632870000000  0.5782120000000  0.5053330000000 1.0
C      1  0.4366990000000  0.5515360000000  0.5591170000000 1.0
C      1  0.4393830000000  0.5402540000000  0.4081720000000 1.0
C      1  0.5606130000000  0.5934110000000  0.4635900000000 1.0
C      1  0.4393720000000  0.5917990000000  0.5403480000000 1.0
C      1  0.5606110000000  0.5363960000000  0.5935010000000 1.0
C      1  0.4393800000000  0.4596230000000  0.5918940000000 1.0
C      1  0.5606240000000  0.4064850000000  0.5364870000000 1.0
C      1  0.4393910000000  0.4080770000000  0.4597170000000 1.0
C      1  0.5606260000000  0.4635000000000  0.4065760000000 1.0
C      1  0.4299310000000  0.4361760000000  0.4692250000000 1.0
C      1  0.5700810000000  0.4766470000000  0.4331680000000 1.0
C      1  0.4299250000000  0.5307450000000  0.4362710000000 1.0
C      1  0.5700710000000  0.5668190000000  0.4767370000000 1.0
C      1  0.4299180000000  0.5636990000000  0.5308400000000 1.0
C      1  0.5700710000000  0.5232510000000  0.5669090000000 1.0
C      1  0.4299240000000  0.4691300000000  0.5637930000000 1.0
C      1  0.5700800000000  0.4330780000000  0.5233410000000 1.0
C      1  0.5101740000000  0.4706730000000  0.5046530000000 1.0
C      1  0.4898310000000  0.4759800000000  0.4826020000000 1.0
C      1  0.5101740000000  0.4953270000000  0.4707650000000 1.0
C      1  0.4898280000000  0.5173750000000  0.4760720000000 1.0
C      1  0.5101700000000  0.5292150000000  0.4954190000000 1.0
C      1  0.4898250000000  0.5239050000000  0.5174680000000 1.0
C      1  0.5101700000000  0.5045610000000  0.5293070000000 1.0
C      1  0.4898280000000  0.4825090000000  0.5239980000000 1.0
C      1  0.6013300000000  0.5134290000000  0.5176030000000 1.0
C      1  0.3986670000000  0.4970460000000  0.5219800000000 1.0
C      1  0.6013330000000  0.4823880000000  0.5135180000000 1.0
C      1  0.3986700000000  0.4779860000000  0.4971420000000 1.0
C      1  0.6013340000000  0.4864740000000  0.4824770000000 1.0
C      1  0.3986690000000  0.5028240000000  0.4780820000000 1.0
C      1  0.6013310000000  0.5175140000000  0.4865630000000 1.0
C      1  0.3986660000000  0.5218840000000  0.5029200000000 1.0
C      1  0.5092170000000  0.4194540000000  0.4137940000000 1.0
C      1  0.4907990000000  0.5040100000000  0.3821380000000 1.0
C      1  0.5092040000000  0.5861860000000  0.4195460000000 1.0
C      1  0.4907840000000  0.6178390000000  0.5041020000000 1.0
C      1  0.5091960000000  0.5804340000000  0.5862780000000 1.0
C      1  0.4907880000000  0.4958750000000  0.6179320000000 1.0
C      1  0.5092100000000  0.4137020000000  0.5805260000000 1.0
C      1  0.4908030000000  0.3820460000000  0.4959680000000 1.0
C      1  0.6135590000000  0.4607620000000  0.5289440000000 1.0
C      1  0.3864470000000  0.4517850000000  0.4927560000000 1.0
C      1  0.6135610000000  0.4710490000000  0.4608510000000 1.0
C      1  0.3864450000000  0.5072080000000  0.4518810000000 1.0
C      1  0.6135550000000  0.5391430000000  0.4711380000000 1.0
C      1  0.3864390000000  0.5480840000000  0.5073040000000 1.0
C      1  0.6135530000000  0.5288550000000  0.5392310000000 1.0
C      1  0.3864410000000  0.4926600000000  0.5481790000000 1.0
C      1  0.5980400000000  0.4456260000000  0.4732820000000 1.0
C      1  0.4019700000000  0.4804420000000  0.4426970000000 1.0
C      1  0.5980350000000  0.5267090000000  0.4457150000000 1.0
C      1  0.4019620000000  0.5572700000000  0.4805380000000 1.0
C      1  0.5980290000000  0.5542760000000  0.5267980000000 1.0
C      1  0.4019610000000  0.5194280000000  0.5573650000000 1.0
C      1  0.5980340000000  0.4731930000000  0.5543650000000 1.0
C      1  0.4019690000000  0.4426010000000  0.5195240000000 1.0
C      1  0.5123030000000  0.6096830000000  0.4469280000000 1.0
C      1  0.4876800000000  0.6150930000000  0.5400790000000 1.0
C      1  0.5123000000000  0.5530530000000  0.6097750000000 1.0
C      1  0.4876880000000  0.4598990000000  0.6151850000000 1.0
C      1  0.5123160000000  0.3902050000000  0.5531450000000 1.0
C      1  0.4877020000000  0.3847920000000  0.4599910000000 1.0
C      1  0.5123190000000  0.4468360000000  0.3902970000000 1.0
C      1  0.4876930000000  0.5399860000000  0.3848840000000 1.0
C      1  0.4455010000000  0.4976210000000  0.5480720000000 1.0
C      1  0.5544980000000  0.4643400000000  0.5323680000000 1.0
C      1  0.4455070000000  0.4519000000000  0.4977150000000 1.0
C      1  0.5545010000000  0.4676180000000  0.4644310000000 1.0
C      1  0.4455050000000  0.5022560000000  0.4519940000000 1.0
C      1  0.5544960000000  0.5355550000000  0.4677080000000 1.0
C      1  0.4454990000000  0.5479780000000  0.5023510000000 1.0
C      1  0.5544930000000  0.5322770000000  0.5356460000000 1.0
C      1  0.4308450000000  0.4772670000000  0.4985020000000 1.0
C      1  0.5691590000000  0.4850000000000  0.4829260000000 1.0
C      1  0.4308440000000  0.5014680000000  0.4773610000000 1.0
C      1  0.5691570000000  0.5170620000000  0.4850900000000 1.0
C      1  0.4308410000000  0.5226090000000  0.5015630000000 1.0
C      1  0.5691550000000  0.5148970000000  0.5171520000000 1.0
C      1  0.4308420000000  0.4984070000000  0.5227030000000 1.0
C      1  0.5691580000000  0.4828360000000  0.5149870000000 1.0
C      1  0.4717700000000  0.4999410000000  0.5000340000000 1.0
C      1  0.5282300000000  0.4999450000000  0.5000370000000 1.0
END
