TITL C-862507-1800-614 0.00467644844395238 125000 -753.951806651098 0 0 141 (C5) n - 1
REM
REM in /home/nfs/bkarasulu/CARBON/AIRSS/Generating-Clusters/TERSOFF/Higher-Symm/FIRE-HFTN
REM
REM
REM
REM
REM
REM ./C.cell (b20cbc046b6831c77cfcea5457e17084)
REM AIRSS Version 0.9.1 bugfix July 2018 build 013d7b7c2542+ Fri, 06 Jul 2018 19:26:36 +0100
REM compiler GCC version 9.2.1 20190827 (Red Hat 9.2.1-1)
REM options -cpp -mtune=generic -march=x86-64 -g -O0 -fpre-include=/usr/include/finclude/math-vector-fortran.h
REM seed 855122450 -1800692416 1217664207 -656860152 -1273051852 -842878880 -1606907968 -949203653 -247235177 1126444754 1144052479 -103697225 -686433634 1501983367 63107412 1461738392 1617281185 1232201322 -62706587 -1457361203 1804299608 1452374325 -1313259816 62027872 383738099 -839398045 -1835721647 -1998893018 1060724636 -123667464 -1855252080 1379049889 -114475998
REM
CELL 1.54180   50.00000   50.00000   50.00000   90.00000   90.00000   90.00000
LATT -1
SFAC C  
C      1  0.5148220000000  0.5243210000000  0.4596850000000 1.0
C      1  0.4815100000000  0.5220360000000  0.4596850000000 1.0
C      1  0.4733900000000  0.4896490000000  0.4596850000000 1.0
C      1  0.5016820000000  0.4719180000000  0.4596850000000 1.0
C      1  0.5272890000000  0.4933460000000  0.4596850000000 1.0
C      1  0.5657220000000  0.5413030000000  0.4667790000000 1.0
C      1  0.4810880000000  0.5756930000000  0.4667780000000 1.0
C      1  0.4222290000000  0.5058290000000  0.4667780000000 1.0
C      1  0.4704850000000  0.4282610000000  0.4667780000000 1.0
C      1  0.5591680000000  0.4501850000000  0.4667790000000 1.0
C      1  0.4928910000000  0.3910580000000  0.4942680000000 1.0
C      1  0.6014740000000  0.4599990000000  0.4942680000000 1.0
C      1  0.5694620000000  0.5845710000000  0.4942680000000 1.0
C      1  0.4410940000000  0.5926200000000  0.4942680000000 1.0
C      1  0.3937700000000  0.4730220000000  0.4942670000000 1.0
C      1  0.5288110000000  0.5312510000000  0.5564460000000 1.0
C      1  0.4792420000000  0.5374820000000  0.5564450000000 1.0
C      1  0.4579980000000  0.4922660000000  0.5564450000000 1.0
C      1  0.4944370000000  0.4580890000000  0.5564450000000 1.0
C      1  0.5382020000000  0.4821830000000  0.5564460000000 1.0
C      1  0.5275070000000  0.5594290000000  0.5633710000000 1.0
C      1  0.4520400000000  0.5449500000000  0.5633710000000 1.0
C      1  0.4424900000000  0.4687030000000  0.5633710000000 1.0
C      1  0.5120550000000  0.4360580000000  0.5633710000000 1.0
C      1  0.5645980000000  0.4921300000000  0.5633710000000 1.0
C      1  0.5887300000000  0.4808340000000  0.5503720000000 1.0
C      1  0.5457080000000  0.5788900000000  0.5503720000000 1.0
C      1  0.4391570000000  0.5682740000000  0.5503710000000 1.0
C      1  0.4163270000000  0.4636570000000  0.5503710000000 1.0
C      1  0.5087690000000  0.4096160000000  0.5503710000000 1.0
C      1  0.5743090000000  0.4164780000000  0.4995780000000 1.0
C      1  0.6024580000000  0.5452870000000  0.4995780000000 1.0
C      1  0.4886520000000  0.6118620000000  0.4995780000000 1.0
C      1  0.3901670000000  0.5241990000000  0.4995780000000 1.0
C      1  0.4431060000000  0.4034450000000  0.4995780000000 1.0
C      1  0.4076180000000  0.5332010000000  0.4748530000000 1.0
C      1  0.4399370000000  0.4228240000000  0.4748530000000 1.0
C      1  0.5548990000000  0.4194520000000  0.4748540000000 1.0
C      1  0.5936310000000  0.5277460000000  0.4748540000000 1.0
C      1  0.5026060000000  0.5980470000000  0.4748540000000 1.0
C      1  0.5996340000000  0.4987870000000  0.5296410000000 1.0
C      1  0.5320030000000  0.5948070000000  0.5296410000000 1.0
C      1  0.4197830000000  0.5601580000000  0.5296400000000 1.0
C      1  0.4180590000000  0.4427230000000  0.5296400000000 1.0
C      1  0.5292130000000  0.4047940000000  0.5296410000000 1.0
C      1  0.4614100000000  0.5429260000000  0.4494420000000 1.0
C      1  0.4473110000000  0.4769880000000  0.4494420000000 1.0
C      1  0.5056650000000  0.4432030000000  0.4494420000000 1.0
C      1  0.5558290000000  0.4882610000000  0.4494420000000 1.0
C      1  0.5284770000000  0.5498930000000  0.4494420000000 1.0
C      1  0.5396610000000  0.5225910000000  0.4196080000000 1.0
C      1  0.4908320000000  0.5451250000000  0.4196080000000 1.0
C      1  0.4543120000000  0.5056490000000  0.4196080000000 1.0
C      1  0.4805700000000  0.4587180000000  0.4196080000000 1.0
C      1  0.5333180000000  0.4691880000000  0.4196080000000 1.0
C      1  0.4292530000000  0.5126730000000  0.4367230000000 1.0
C      1  0.4661460000000  0.4370570000000  0.4367230000000 1.0
C      1  0.5494620000000  0.4487770000000  0.4367240000000 1.0
C      1  0.5640620000000  0.5316370000000  0.4367240000000 1.0
C      1  0.4897690000000  0.5711270000000  0.4367240000000 1.0
C      1  0.4659670000000  0.4449500000000  0.4990700000000 1.0
C      1  0.5419000000000  0.4510450000000  0.4990700000000 1.0
C      1  0.5595670000000  0.5251460000000  0.4990700000000 1.0
C      1  0.4945530000000  0.5648470000000  0.4990700000000 1.0
C      1  0.4367050000000  0.5152830000000  0.4990690000000 1.0
C      1  0.5601360000000  0.5714400000000  0.4689860000000 1.0
C      1  0.4507010000000  0.5796940000000  0.4689860000000 1.0
C      1  0.4090340000000  0.4781650000000  0.4689860000000 1.0
C      1  0.4927170000000  0.4071630000000  0.4689860000000 1.0
C      1  0.5861040000000  0.4648100000000  0.4689860000000 1.0
C      1  0.5232290000000  0.4898450000000  0.5322930000000 1.0
C      1  0.5168970000000  0.5193780000000  0.5322930000000 1.0
C      1  0.4868520000000  0.5224830000000  0.5322930000000 1.0
C      1  0.4746150000000  0.4948680000000  0.5322930000000 1.0
C      1  0.4970970000000  0.4746960000000  0.5322930000000 1.0
C      1  0.5582460000000  0.4390490000000  0.5537620000000 1.0
C      1  0.5760270000000  0.5369850000000  0.5537620000000 1.0
C      1  0.4883800000000  0.5841590000000  0.5537620000000 1.0
C      1  0.4164290000000  0.5153800000000  0.5537620000000 1.0
C      1  0.4596090000000  0.4256970000000  0.5537620000000 1.0
C      1  0.5304280000000  0.5831780000000  0.4597710000000 1.0
C      1  0.4303560000000  0.5550660000000  0.4597700000000 1.0
C      1  0.4261690000000  0.4512060000000  0.4597700000000 1.0
C      1  0.5236520000000  0.4151280000000  0.4597700000000 1.0
C      1  0.5880870000000  0.4966920000000  0.4597710000000 1.0
C      1  0.5041120000000  0.5849250000000  0.5278390000000 1.0
C      1  0.4205630000000  0.5305790000000  0.5278390000000 1.0
C      1  0.4464310000000  0.4343240000000  0.5278390000000 1.0
C      1  0.5459680000000  0.4291830000000  0.5278390000000 1.0
C      1  0.5816170000000  0.5222590000000  0.5278400000000 1.0
C      1  0.4845060000000  0.4734080000000  0.5829470000000 1.0
C      1  0.5205620000000  0.4774710000000  0.5829480000000 1.0
C      1  0.5278410000000  0.5130190000000  0.5829480000000 1.0
C      1  0.4962820000000  0.5309260000000  0.5829480000000 1.0
C      1  0.4694990000000  0.5064450000000  0.5829470000000 1.0
C      1  0.5899910000000  0.4397480000000  0.5124660000000 1.0
C      1  0.5851730000000  0.5673920000000  0.5124660000000 1.0
C      1  0.4622870000000  0.6022540000000  0.5124660000000 1.0
C      1  0.3911580000000  0.4961560000000  0.5124650000000 1.0
C      1  0.4700830000000  0.3957210000000  0.5124650000000 1.0
C      1  0.4157170000000  0.4543470000000  0.5028950000000 1.0
C      1  0.5174340000000  0.4061590000000  0.5028960000000 1.0
C      1  0.5946960000000  0.4880070000000  0.5028960000000 1.0
C      1  0.5407290000000  0.5867800000000  0.5028960000000 1.0
C      1  0.4301140000000  0.5659770000000  0.5028950000000 1.0
C      1  0.5634000000000  0.5191890000000  0.5766760000000 1.0
C      1  0.5014020000000  0.5666510000000  0.5766760000000 1.0
C      1  0.4371050000000  0.5223550000000  0.5766760000000 1.0
C      1  0.4593640000000  0.4475160000000  0.5766760000000 1.0
C      1  0.5374190000000  0.4455590000000  0.5766760000000 1.0
C      1  0.4881730000000  0.4347480000000  0.5183280000000 1.0
C      1  0.5584650000000  0.4690130000000  0.5183280000000 1.0
C      1  0.5475980000000  0.5464520000000  0.5183280000000 1.0
C      1  0.4705910000000  0.5600470000000  0.5183280000000 1.0
C      1  0.4338640000000  0.4910100000000  0.5183280000000 1.0
C      1  0.5639040000000  0.4945940000000  0.4992050000000 1.0
C      1  0.5249490000000  0.5595300000000  0.4992050000000 1.0
C      1  0.4511540000000  0.5425490000000  0.4992050000000 1.0
C      1  0.4445000000000  0.4671170000000  0.4992050000000 1.0
C      1  0.5141840000000  0.4374800000000  0.4992050000000 1.0
C      1  0.5077340000000  0.4546640000000  0.4091000000000 1.0
C      1  0.5455680000000  0.4937700000000  0.4091000000000 1.0
C      1  0.5200670000000  0.5418370000000  0.4091000000000 1.0
C      1  0.4664730000000  0.5324380000000  0.4091000000000 1.0
C      1  0.4588500000000  0.4785620000000  0.4091000000000 1.0
C      1  0.4100740000000  0.4902640000000  0.5378430000000 1.0
C      1  0.4815320000000  0.4118910000000  0.5378430000000 1.0
C      1  0.5781500000000  0.4556330000000  0.5378440000000 1.0
C      1  0.5664060000000  0.5610390000000  0.5378440000000 1.0
C      1  0.4625290000000  0.5824420000000  0.5378430000000 1.0
C      1  0.5316680000000  0.4845540000000  0.4900790000000 1.0
C      1  0.5245370000000  0.5257700000000  0.4900790000000 1.0
C      1  0.4831340000000  0.5317240000000  0.4900790000000 1.0
C      1  0.4646780000000  0.4941870000000  0.4900790000000 1.0
C      1  0.4946740000000  0.4650350000000  0.4900790000000 1.0
C      1  0.5258430000000  0.4283270000000  0.4257520000000 1.0
C      1  0.5762110000000  0.5028540000000  0.4257530000000 1.0
C      1  0.5208970000000  0.5737880000000  0.4257520000000 1.0
C      1  0.4363420000000  0.5431000000000  0.4257520000000 1.0
C      1  0.4393990000000  0.4532010000000  0.4257520000000 1.0
C      1  0.4997380000000  0.5002540000000  0.4991120000000 1.0
END
