TITL C-862128-1543-708 14.7892284979127 125000 -129.906415952965 0 0 28 (Cs) n - 1
REM
REM in /home/nfs/bkarasulu/CARBON/AIRSS/Generating-Clusters/TERSOFF/Higher-Symm/FIRE-HFTN
REM
REM
REM
REM
REM
REM ./C.cell (b20cbc046b6831c77cfcea5457e17084)
REM AIRSS Version 0.9.1 bugfix July 2018 build 013d7b7c2542+ Fri, 06 Jul 2018 19:26:36 +0100
REM compiler GCC version 9.2.1 20190827 (Red Hat 9.2.1-1)
REM options -cpp -mtune=generic -march=x86-64 -g -O0 -fpre-include=/usr/include/finclude/math-vector-fortran.h
REM seed 456440394 -505130237 -1837329491 -271863097 263523921 -1135469858 -480483505 -133234943 -1783477024 1994941808 2026234317 -1772082372 -1677192903 -1364564097 1172475065 -1713880034 -489730595 -1538821845 -1645745207 -2075268891 1346791196 1442356130 46190931 469414130 -874303385 -269973524 390435565 -1650083045 1493434398 2105508919 -179914054 -1912550542 1486875305
REM
CELL 1.54180   50.00000   50.00000   50.00000   90.00000   90.00000   90.00000
LATT -1
SFAC C  
C      1  0.5379160000000  0.5077110000000  0.4593650000000 1.0
C      1  0.4999110000000  0.4753710000000  0.5404930000000 1.0
C      1  0.4998550000000  0.4755930000000  0.4593040000000 1.0
C      1  0.5379720000000  0.5074900000000  0.5405550000000 1.0
C      1  0.5561630000000  0.4474400000000  0.4787970000000 1.0
C      1  0.4790000000000  0.5374640000000  0.5232890000000 1.0
C      1  0.4789680000000  0.5375900000000  0.4768760000000 1.0
C      1  0.5561920000000  0.4473260000000  0.5207700000000 1.0
C      1  0.5044580000000  0.5374720000000  0.4343370000000 1.0
C      1  0.4638550000000  0.5071290000000  0.5584650000000 1.0
C      1  0.4637310000000  0.5069560000000  0.4407840000000 1.0
C      1  0.5046250000000  0.5374640000000  0.5654780000000 1.0
C      1  0.5305060000000  0.5252770000000  0.4375870000000 1.0
C      1  0.4723560000000  0.4827020000000  0.5454720000000 1.0
C      1  0.4722750000000  0.4829180000000  0.4544580000000 1.0
C      1  0.5305780000000  0.5250350000000  0.5623560000000 1.0
C      1  0.5327300000000  0.4751690000000  0.4998750000000 1.0
C      1  0.5056780000000  0.5072250000000  0.4999810000000 1.0
C      1  0.5670320000000  0.4714480000000  0.4998410000000 1.0
C      1  0.5042640000000  0.5422100000000  0.5000770000000 1.0
C      1  0.5306290000000  0.4407290000000  0.4997830000000 1.0
C      1  0.4728740000000  0.5143880000000  0.5000230000000 1.0
C      1  0.4808360000000  0.5238960000000  0.5748450000000 1.0
C      1  0.4808940000000  0.5237520000000  0.4246270000000 1.0
C      1  0.5189980000000  0.4913940000000  0.5247390000000 1.0
C      1  0.5189630000000  0.4915290000000  0.4751190000000 1.0
C      1  0.4510580000000  0.4953070000000  0.4999860000000 1.0
C      1  0.4229810000000  0.5023240000000  0.4994760000000 1.0
END
