TITL C-862502-1143-1130 0.220553180134458 125000 -461.492541097898 0 0 78 (Cs) n - 1
REM
REM in /home/nfs/bkarasulu/CARBON/AIRSS/Generating-Clusters/TERSOFF/Higher-Symm/FIRE-HFTN
REM
REM
REM
REM
REM
REM ./C.cell (b20cbc046b6831c77cfcea5457e17084)
REM AIRSS Version 0.9.1 bugfix July 2018 build 013d7b7c2542+ Fri, 06 Jul 2018 19:26:36 +0100
REM compiler GCC version 9.2.1 20190827 (Red Hat 9.2.1-1)
REM options -cpp -mtune=generic -march=x86-64 -g -O0 -fpre-include=/usr/include/finclude/math-vector-fortran.h
REM seed -1268062057 -1833100561 1723191503 -1177927355 -792026931 1033691623 1735972850 1108774400 1270874237 -634160167 1385502311 -840739852 -1241303812 917839971 -1631625403 493743274 -52218649 -668540358 626404486 -1636322130 -686851806 558289714 -858575371 -1906435933 69344319 268778810 -1736498898 -832116185 1019076083 -1107866001 463921700 -790938655 576054304
REM
CELL 1.54180   50.00000   50.00000   50.00000   90.00000   90.00000   90.00000
LATT -1
SFAC C  
C      1  0.5452930000000  0.5144990000000  0.5474420000000 1.0
C      1  0.4547070000000  0.5144990000000  0.5474430000000 1.0
C      1  0.5303160000000  0.4896700000000  0.4773660000000 1.0
C      1  0.4696830000000  0.4896700000000  0.4773660000000 1.0
C      1  0.4851460000000  0.5972880000000  0.4443830000000 1.0
C      1  0.5148540000000  0.5972880000000  0.4443830000000 1.0
C      1  0.4857840000000  0.5526210000000  0.4533570000000 1.0
C      1  0.5142160000000  0.5526210000000  0.4533570000000 1.0
C      1  0.4836890000000  0.5011590000000  0.4521330000000 1.0
C      1  0.5163100000000  0.5011590000000  0.4521330000000 1.0
C      1  0.5141450000000  0.4857800000000  0.4032850000000 1.0
C      1  0.4858540000000  0.4857800000000  0.4032850000000 1.0
C      1  0.5558790000000  0.5679340000000  0.5058960000000 1.0
C      1  0.4441220000000  0.5679350000000  0.5058970000000 1.0
C      1  0.5147830000000  0.4769190000000  0.5644820000000 1.0
C      1  0.4852170000000  0.4769190000000  0.5644820000000 1.0
C      1  0.4591540000000  0.4626240000000  0.4766800000000 1.0
C      1  0.5408460000000  0.4626230000000  0.4766800000000 1.0
C      1  0.5870300000000  0.4716620000000  0.4868980000000 1.0
C      1  0.4129690000000  0.4716630000000  0.4868990000000 1.0
C      1  0.5666780000000  0.5386460000000  0.4603320000000 1.0
C      1  0.4333220000000  0.5386470000000  0.4603330000000 1.0
C      1  0.5144870000000  0.4337190000000  0.5850720000000 1.0
C      1  0.4855130000000  0.4337190000000  0.5850730000000 1.0
C      1  0.4123550000000  0.5191910000000  0.4680370000000 1.0
C      1  0.5876450000000  0.5191890000000  0.4680360000000 1.0
C      1  0.4724590000000  0.4855210000000  0.4286850000000 1.0
C      1  0.5275400000000  0.4855210000000  0.4286850000000 1.0
C      1  0.4140720000000  0.4893820000000  0.4640640000000 1.0
C      1  0.5859270000000  0.4893810000000  0.4640630000000 1.0
C      1  0.4690090000000  0.5133440000000  0.5959960000000 1.0
C      1  0.5309920000000  0.5133440000000  0.5959960000000 1.0
C      1  0.5146160000000  0.5860540000000  0.4892260000000 1.0
C      1  0.4853840000000  0.5860540000000  0.4892260000000 1.0
C      1  0.4299730000000  0.4526960000000  0.5359470000000 1.0
C      1  0.5700260000000  0.4526950000000  0.5359470000000 1.0
C      1  0.5412050000000  0.5078890000000  0.4976900000000 1.0
C      1  0.4587950000000  0.5078900000000  0.4976910000000 1.0
C      1  0.5304030000000  0.5016760000000  0.5693570000000 1.0
C      1  0.4695980000000  0.5016770000000  0.5693580000000 1.0
C      1  0.4528890000000  0.4654410000000  0.4352810000000 1.0
C      1  0.5471100000000  0.4654400000000  0.4352800000000 1.0
C      1  0.4436640000000  0.5633040000000  0.4749580000000 1.0
C      1  0.5563370000000  0.5633030000000  0.4749580000000 1.0
C      1  0.4685590000000  0.4420690000000  0.4566360000000 1.0
C      1  0.5314400000000  0.4420690000000  0.4566360000000 1.0
C      1  0.4403610000000  0.4378750000000  0.5130380000000 1.0
C      1  0.5596390000000  0.4378740000000  0.5130380000000 1.0
C      1  0.5312010000000  0.5823810000000  0.5126860000000 1.0
C      1  0.4688000000000  0.5823820000000  0.5126860000000 1.0
C      1  0.5568840000000  0.5553310000000  0.5750580000000 1.0
C      1  0.4431170000000  0.5553320000000  0.5750590000000 1.0
C      1  0.5288090000000  0.5768250000000  0.4633910000000 1.0
C      1  0.4711920000000  0.5768260000000  0.4633920000000 1.0
C      1  0.5278690000000  0.4488050000000  0.5626330000000 1.0
C      1  0.4721310000000  0.4488050000000  0.5626330000000 1.0
C      1  0.4360440000000  0.4554170000000  0.4908140000000 1.0
C      1  0.5639550000000  0.4554160000000  0.4908140000000 1.0
C      1  0.5739670000000  0.4802390000000  0.5268410000000 1.0
C      1  0.4260330000000  0.4802400000000  0.5268420000000 1.0
C      1  0.4698760000000  0.4309270000000  0.5124690000000 1.0
C      1  0.5301240000000  0.4309270000000  0.5124690000000 1.0
C      1  0.4476380000000  0.4996490000000  0.5239680000000 1.0
C      1  0.5523630000000  0.4996480000000  0.5239680000000 1.0
C      1  0.4246080000000  0.4763320000000  0.4388850000000 1.0
C      1  0.5753910000000  0.4763310000000  0.4388850000000 1.0
C      1  0.4300690000000  0.5524440000000  0.5259500000000 1.0
C      1  0.5699320000000  0.5524430000000  0.5259490000000 1.0
C      1  0.5567980000000  0.4485370000000  0.5609960000000 1.0
C      1  0.4432020000000  0.4485380000000  0.5609970000000 1.0
C      1  0.4853920000000  0.4364520000000  0.5372360000000 1.0
C      1  0.5146080000000  0.4364520000000  0.5372360000000 1.0
C      1  0.4426830000000  0.5408900000000  0.5498750000000 1.0
C      1  0.5573180000000  0.5408890000000  0.5498750000000 1.0
C      1  0.4721280000000  0.5283130000000  0.4480590000000 1.0
C      1  0.5278720000000  0.5283130000000  0.4480590000000 1.0
C      1  0.5150900000000  0.4304980000000  0.4848940000000 1.0
C      1  0.4849090000000  0.4304980000000  0.4848940000000 1.0
END
