TITL C-862507-1800-1034 14.1168637504343 125000 -693.108261766027 0 0 119 (C3) n - 1
REM
REM in /home/nfs/bkarasulu/CARBON/AIRSS/Generating-Clusters/TERSOFF/Higher-Symm/FIRE-HFTN
REM
REM
REM
REM
REM
REM ./C.cell (b20cbc046b6831c77cfcea5457e17084)
REM AIRSS Version 0.9.1 bugfix July 2018 build 013d7b7c2542+ Fri, 06 Jul 2018 19:26:36 +0100
REM compiler GCC version 9.2.1 20190827 (Red Hat 9.2.1-1)
REM options -cpp -mtune=generic -march=x86-64 -g -O0 -fpre-include=/usr/include/finclude/math-vector-fortran.h
REM seed 792970067 622539980 1064137633 791411544 -1347240072 -1637518395 1681335523 1470304531 -939978147 -883215047 -1166702962 -309876990 2026665849 1696910300 -1163223804 363031531 -288094469 -815046860 -1142173133 1496546829 -139871104 -1305234423 -265862563 995509472 -256691812 -1895040306 -696927567 547341559 2067044096 -622059749 363774850 -298418921 -1839926058
REM
CELL 1.54180   50.00000   50.00000   50.00000   90.00000   90.00000   90.00000
LATT -1
SFAC C  
C      1  0.4459580000000  0.4722690000000  0.5253180000000 1.0
C      1  0.5033030000000  0.5598330000000  0.5253180000000 1.0
C      1  0.5504630000000  0.4663890000000  0.5253180000000 1.0
C      1  0.5190210000000  0.5771570000000  0.4741430000000 1.0
C      1  0.5576060000000  0.4441150000000  0.4741430000000 1.0
C      1  0.4230960000000  0.4772200000000  0.4741430000000 1.0
C      1  0.5089590000000  0.3966500000000  0.4933330000000 1.0
C      1  0.4063140000000  0.5430820000000  0.4933330000000 1.0
C      1  0.5844510000000  0.5587590000000  0.4933330000000 1.0
C      1  0.4567830000000  0.4565270000000  0.5784920000000 1.0
C      1  0.4842570000000  0.5583290000000  0.5784920000000 1.0
C      1  0.5586830000000  0.4836350000000  0.5784920000000 1.0
C      1  0.4501720000000  0.5098150000000  0.4951700000000 1.0
C      1  0.5337120000000  0.5374110000000  0.4951700000000 1.0
C      1  0.5158400000000  0.4512650000000  0.4951700000000 1.0
C      1  0.5463100000000  0.5196020000000  0.4316850000000 1.0
C      1  0.4941180000000  0.4492590000000  0.4316850000000 1.0
C      1  0.4592960000000  0.5296300000000  0.4316850000000 1.0
C      1  0.5115780000000  0.5316870000000  0.6110760000000 1.0
C      1  0.5219500000000  0.4732950000000  0.6110760000000 1.0
C      1  0.4661950000000  0.4935080000000  0.6110760000000 1.0
C      1  0.4861210000000  0.5384280000000  0.6006340000000 1.0
C      1  0.5405170000000  0.4919710000000  0.6006340000000 1.0
C      1  0.4730850000000  0.4680920000000  0.6006340000000 1.0
C      1  0.5981180000000  0.5109030000000  0.5029330000000 1.0
C      1  0.4606810000000  0.4087410000000  0.5029330000000 1.0
C      1  0.4409250000000  0.5788460000000  0.5029330000000 1.0
C      1  0.4752210000000  0.4332330000000  0.5691280000000 1.0
C      1  0.4548650000000  0.5540080000000  0.5691280000000 1.0
C      1  0.5696370000000  0.5112490000000  0.5691280000000 1.0
C      1  0.5100370000000  0.4100840000000  0.4676170000000 1.0
C      1  0.4174090000000  0.5354310000000  0.4676170000000 1.0
C      1  0.5722770000000  0.5529760000000  0.4676180000000 1.0
C      1  0.4773800000000  0.5173050000000  0.4893730000000 1.0
C      1  0.5265940000000  0.5101030000000  0.4893730000000 1.0
C      1  0.4957500000000  0.4710830000000  0.4893730000000 1.0
C      1  0.4539130000000  0.5475260000000  0.5411300000000 1.0
C      1  0.5645000000000  0.5153150000000  0.5411300000000 1.0
C      1  0.4813110000000  0.4356490000000  0.5411290000000 1.0
C      1  0.5387920000000  0.4600350000000  0.4153590000000 1.0
C      1  0.4462900000000  0.4855540000000  0.4153590000000 1.0
C      1  0.5146410000000  0.5529030000000  0.4153590000000 1.0
C      1  0.5236460000000  0.4412710000000  0.4350760000000 1.0
C      1  0.4376140000000  0.5080520000000  0.4350760000000 1.0
C      1  0.5384640000000  0.5491680000000  0.4350770000000 1.0
C      1  0.4452800000000  0.4102600000000  0.4786050000000 1.0
C      1  0.4499400000000  0.5914250000000  0.4786050000000 1.0
C      1  0.6045030000000  0.4968060000000  0.4786050000000 1.0
C      1  0.5375420000000  0.5265230000000  0.5398240000000 1.0
C      1  0.5044960000000  0.4533920000000  0.5398240000000 1.0
C      1  0.4576850000000  0.5185760000000  0.5398240000000 1.0
C      1  0.5402680000000  0.5945820000000  0.5449660000000 1.0
C      1  0.5620740000000  0.4170010000000  0.5449660000000 1.0
C      1  0.3973810000000  0.4869080000000  0.5449660000000 1.0
C      1  0.5435170000000  0.5627450000000  0.4601400000000 1.0
C      1  0.5328770000000  0.4301060000000  0.4601400000000 1.0
C      1  0.4233290000000  0.5056400000000  0.4601400000000 1.0
C      1  0.5870020000000  0.5336970000000  0.4484720000000 1.0
C      1  0.4859790000000  0.4069710000000  0.4484720000000 1.0
C      1  0.4267430000000  0.5578230000000  0.4484720000000 1.0
C      1  0.4442020000000  0.4559990000000  0.4160240000000 1.0
C      1  0.4900900000000  0.5694880000000  0.4160240000000 1.0
C      1  0.5654310000000  0.4730040000000  0.4160240000000 1.0
C      1  0.5396500000000  0.4195470000000  0.5265660000000 1.0
C      1  0.4107980000000  0.5050540000000  0.5265660000000 1.0
C      1  0.5492760000000  0.5738890000000  0.5265660000000 1.0
C      1  0.3952390000000  0.5232750000000  0.5106950000000 1.0
C      1  0.5728340000000  0.5782530000000  0.5106950000000 1.0
C      1  0.5316490000000  0.3969620000000  0.5106950000000 1.0
C      1  0.5198560000000  0.5198990000000  0.5629870000000 1.0
C      1  0.5076020000000  0.4720200000000  0.5629870000000 1.0
C      1  0.4722650000000  0.5065710000000  0.5629870000000 1.0
C      1  0.5075600000000  0.4725390000000  0.4121500000000 1.0
C      1  0.4727350000000  0.5063490000000  0.4121500000000 1.0
C      1  0.5194280000000  0.5196030000000  0.4121500000000 1.0
C      1  0.5774570000000  0.5003990000000  0.5201700000000 1.0
C      1  0.4619150000000  0.4318860000000  0.5201700000000 1.0
C      1  0.4603510000000  0.5662050000000  0.5201700000000 1.0
C      1  0.4536560000000  0.5769640000000  0.4532050000000 1.0
C      1  0.5901220000000  0.5008190000000  0.4532050000000 1.0
C      1  0.4559450000000  0.4207080000000  0.4532050000000 1.0
C      1  0.5320840000000  0.5495070000000  0.5218210000000 1.0
C      1  0.5271300000000  0.4466270000000  0.5218210000000 1.0
C      1  0.4405100000000  0.5023570000000  0.5218210000000 1.0
C      1  0.5485850000000  0.4619490000000  0.5584630000000 1.0
C      1  0.4430520000000  0.4761150000000  0.5584630000000 1.0
C      1  0.5080860000000  0.5604270000000  0.5584630000000 1.0
C      1  0.5811940000000  0.4485400000000  0.4565050000000 1.0
C      1  0.4151350000000  0.4545800000000  0.4565050000000 1.0
C      1  0.5033950000000  0.5953710000000  0.4565050000000 1.0
C      1  0.4342310000000  0.4404580000000  0.4387640000000 1.0
C      1  0.4816170000000  0.5858940000000  0.4387640000000 1.0
C      1  0.5838750000000  0.4721390000000  0.4387640000000 1.0
C      1  0.4138750000000  0.5688360000000  0.5038970000000 1.0
C      1  0.6029740000000  0.5393340000000  0.5038970000000 1.0
C      1  0.4828750000000  0.3903200000000  0.5038970000000 1.0
C      1  0.4730100000000  0.4465880000000  0.4535810000000 1.0
C      1  0.4675360000000  0.5492460000000  0.4535810000000 1.0
C      1  0.5591770000000  0.5026570000000  0.4535810000000 1.0
C      1  0.4285060000000  0.5027900000000  0.5682670000000 1.0
C      1  0.5384600000000  0.5596860000000  0.5682670000000 1.0
C      1  0.5327560000000  0.4360150000000  0.5682670000000 1.0
C      1  0.4717680000000  0.4626830000000  0.4778490000000 1.0
C      1  0.4820950000000  0.5422740000000  0.4778490000000 1.0
C      1  0.5458600000000  0.4935350000000  0.4778490000000 1.0
C      1  0.4809320000000  0.5075030000000  0.3815960000000 1.0
C      1  0.5163290000000  0.5119270000000  0.3815960000000 1.0
C      1  0.5024620000000  0.4790600000000  0.3815960000000 1.0
C      1  0.4996080000000  0.5616770000000  0.4919110000000 1.0
C      1  0.5539070000000  0.4686660000000  0.4919110000000 1.0
C      1  0.4462080000000  0.4681470000000  0.4919110000000 1.0
C      1  0.5015330000000  0.4634920000000  0.5935910000000 1.0
C      1  0.4679140000000  0.5160910000000  0.5935910000000 1.0
C      1  0.5302760000000  0.5189070000000  0.5935910000000 1.0
C      1  0.5531600000000  0.5359820000000  0.5828720000000 1.0
C      1  0.5048790000000  0.4351370000000  0.5828720000000 1.0
C      1  0.4416850000000  0.5273720000000  0.5828720000000 1.0
C      1  0.4999080000000  0.4994970000000  0.4227390000000 1.0
C      1  0.4999080000000  0.4994970000000  0.4931490000000 1.0
END
