TITL C-2847956-8218-98 -0.000793135394112811 125000 -552.582168595805 0 0 101 (C1) n - 1
REM
REM in /home/bkarasulu/work/CARBON/AIRSS/Generating-Clusters/AIREBO/with-SteepDescent/Only-C1/SD-CG-opt/Try1-1.4A-POS3A/HFTN-CG
REM
REM
REM
REM
REM
REM ./C.cell (11c1c37f851c82e70ff6c80c92926a4b)
REM
REM compiler GCC version 9.2.1 20190827 (Red Hat 9.2.1-1)
REM options -cpp -mtune=generic -march=x86-64 -g -O0 -fpre-include=/usr/include/finclude/math-vector-fortran.h
REM seed -1735407074 -1589497366 1414448535 -1041814790 -354339117 461197557 1332812622 1087374665 872490610 1054299929 -1922859753 579596514 556191505 -934974349 -2074541019 -984976277 -706753362 -295893886 -1755361817 -760993238 -671305561 1644218740 45077529 585322501 216796973 265674065 -1287435453 1913135523 2096258751 -810275472 1368269045 -135026240 365531679
REM
CELL 1.54180   50.00000   50.00000   50.00000   90.00000   90.00000   90.00000
LATT -1
SFAC C  
C      1  0.4793200000000  0.5132960000000  0.5333510000000 1.0
C      1  0.4867420000000  0.5499620000000  0.4896600000000 1.0
C      1  0.4743280000000  0.4695860000000  0.5264610000000 1.0
C      1  0.5351720000000  0.4332520000000  0.5345480000000 1.0
C      1  0.4992940000000  0.4550820000000  0.4203100000000 1.0
C      1  0.5789730000000  0.4881170000000  0.4682250000000 1.0
C      1  0.4695720000000  0.5646490000000  0.5104610000000 1.0
C      1  0.5429170000000  0.5185310000000  0.5361600000000 1.0
C      1  0.6002820000000  0.4901090000000  0.5435060000000 1.0
C      1  0.4392190000000  0.4948170000000  0.5616630000000 1.0
C      1  0.4686890000000  0.5163320000000  0.5954460000000 1.0
C      1  0.5034370000000  0.4760940000000  0.4460190000000 1.0
C      1  0.5003340000000  0.5890970000000  0.4985360000000 1.0
C      1  0.5405640000000  0.4799640000000  0.5448940000000 1.0
C      1  0.4895620000000  0.5165720000000  0.4321980000000 1.0
C      1  0.4215970000000  0.5487130000000  0.5084780000000 1.0
C      1  0.5524860000000  0.4855320000000  0.5157610000000 1.0
C      1  0.5310490000000  0.4535870000000  0.5561950000000 1.0
C      1  0.5029500000000  0.4291550000000  0.5254570000000 1.0
C      1  0.5214090000000  0.4041450000000  0.5364670000000 1.0
C      1  0.5586290000000  0.4420420000000  0.5140840000000 1.0
C      1  0.4648330000000  0.4959150000000  0.5079580000000 1.0
C      1  0.5188840000000  0.5363200000000  0.5265980000000 1.0
C      1  0.5159880000000  0.4977550000000  0.5365830000000 1.0
C      1  0.5278690000000  0.5087330000000  0.5731650000000 1.0
C      1  0.4805140000000  0.5638990000000  0.4592600000000 1.0
C      1  0.5405970000000  0.5024700000000  0.4228010000000 1.0
C      1  0.4576350000000  0.5431100000000  0.5551980000000 1.0
C      1  0.5639470000000  0.5474960000000  0.4813850000000 1.0
C      1  0.5680050000000  0.5265090000000  0.5259510000000 1.0
C      1  0.4882850000000  0.5075150000000  0.4650050000000 1.0
C      1  0.4680620000000  0.5124100000000  0.5654350000000 1.0
C      1  0.4503870000000  0.5461970000000  0.5258470000000 1.0
C      1  0.5924280000000  0.5107150000000  0.4500560000000 1.0
C      1  0.4772740000000  0.4214990000000  0.4536310000000 1.0
C      1  0.4548350000000  0.4724260000000  0.5666110000000 1.0
C      1  0.4858480000000  0.4460860000000  0.5424200000000 1.0
C      1  0.4785160000000  0.5619590000000  0.5651470000000 1.0
C      1  0.5376420000000  0.5636440000000  0.5207110000000 1.0
C      1  0.4692420000000  0.4697380000000  0.4265150000000 1.0
C      1  0.4596330000000  0.5009570000000  0.3863160000000 1.0
C      1  0.5015780000000  0.4829680000000  0.5111050000000 1.0
C      1  0.4065260000000  0.5274080000000  0.5213180000000 1.0
C      1  0.5100800000000  0.5263550000000  0.4998460000000 1.0
C      1  0.4509720000000  0.5855290000000  0.4913340000000 1.0
C      1  0.5671670000000  0.4617180000000  0.4872230000000 1.0
C      1  0.4612970000000  0.5169170000000  0.4741090000000 1.0
C      1  0.5427330000000  0.4834290000000  0.4453210000000 1.0
C      1  0.5754030000000  0.4659930000000  0.5315790000000 1.0
C      1  0.4044900000000  0.4932920000000  0.4902800000000 1.0
C      1  0.5208020000000  0.5269150000000  0.4284160000000 1.0
C      1  0.4986520000000  0.4351990000000  0.4976250000000 1.0
C      1  0.5665620000000  0.5198940000000  0.4701280000000 1.0
C      1  0.4291720000000  0.4435840000000  0.5139760000000 1.0
C      1  0.5639580000000  0.5499120000000  0.5102100000000 1.0
C      1  0.4403160000000  0.4723650000000  0.5285850000000 1.0
C      1  0.5196110000000  0.4533310000000  0.4790700000000 1.0
C      1  0.4711020000000  0.4511560000000  0.5704140000000 1.0
C      1  0.4392140000000  0.5014390000000  0.4543330000000 1.0
C      1  0.4892350000000  0.5856000000000  0.5259110000000 1.0
C      1  0.5019740000000  0.4609190000000  0.5722250000000 1.0
C      1  0.5406290000000  0.5649660000000  0.4686400000000 1.0
C      1  0.5259050000000  0.5388100000000  0.5669810000000 1.0
C      1  0.5288150000000  0.4978670000000  0.4987290000000 1.0
C      1  0.4554340000000  0.4782370000000  0.4824070000000 1.0
C      1  0.4564480000000  0.5236600000000  0.4352590000000 1.0
C      1  0.4966840000000  0.5377460000000  0.5496270000000 1.0
C      1  0.4348860000000  0.5608240000000  0.4839300000000 1.0
C      1  0.4989490000000  0.5776440000000  0.5505060000000 1.0
C      1  0.4277200000000  0.4719990000000  0.4978200000000 1.0
C      1  0.4749300000000  0.4359720000000  0.4293950000000 1.0
C      1  0.4442130000000  0.5167820000000  0.5145760000000 1.0
C      1  0.4348690000000  0.4454960000000  0.4529120000000 1.0
C      1  0.5875880000000  0.5065320000000  0.5231900000000 1.0
C      1  0.5251260000000  0.5665600000000  0.5515550000000 1.0
C      1  0.5539680000000  0.4544790000000  0.4592350000000 1.0
C      1  0.5166990000000  0.5212970000000  0.4606680000000 1.0
C      1  0.5821070000000  0.4760450000000  0.5633670000000 1.0
C      1  0.4536060000000  0.5457430000000  0.4613670000000 1.0
C      1  0.4682110000000  0.4983910000000  0.4150750000000 1.0
C      1  0.5822630000000  0.4886740000000  0.4996520000000 1.0
C      1  0.5009500000000  0.5708500000000  0.4374740000000 1.0
C      1  0.4735790000000  0.4507030000000  0.4806790000000 1.0
C      1  0.5291710000000  0.4762000000000  0.5829740000000 1.0
C      1  0.5353820000000  0.4268980000000  0.4663160000000 1.0
C      1  0.5398420000000  0.5033550000000  0.4693190000000 1.0
C      1  0.5581900000000  0.4228740000000  0.4896850000000 1.0
C      1  0.4358790000000  0.4215060000000  0.4990240000000 1.0
C      1  0.4977660000000  0.4959040000000  0.5639310000000 1.0
C      1  0.4519660000000  0.4269630000000  0.4728290000000 1.0
C      1  0.5268820000000  0.5799680000000  0.4959140000000 1.0
C      1  0.5018220000000  0.4208890000000  0.4675610000000 1.0
C      1  0.5267880000000  0.4546880000000  0.4391430000000 1.0
C      1  0.5565870000000  0.4915250000000  0.5689900000000 1.0
C      1  0.4951790000000  0.4769630000000  0.4782520000000 1.0
C      1  0.4239710000000  0.5014900000000  0.5352020000000 1.0
C      1  0.5160060000000  0.5470890000000  0.4762450000000 1.0
C      1  0.5255480000000  0.5573590000000  0.4389760000000 1.0
C      1  0.4483220000000  0.4712910000000  0.4498830000000 1.0
C      1  0.4792440000000  0.5879180000000  0.4795600000000 1.0
C      1  0.4300860000000  0.5099330000000  0.4856700000000 1.0
END
