TITL C-2847957-7266-491 0.000351815288381662 125000 -429.528420860941 0 0 81 (C1) n - 1
REM
REM in /home/bkarasulu/work/CARBON/AIRSS/Generating-Clusters/AIREBO/with-SteepDescent/Only-C1/SD-CG-opt/Try1-1.4A-POS3A/HFTN-CG
REM
REM
REM
REM
REM
REM ./C.cell (11c1c37f851c82e70ff6c80c92926a4b)
REM
REM compiler GCC version 9.2.1 20190827 (Red Hat 9.2.1-1)
REM options -cpp -mtune=generic -march=x86-64 -g -O0 -fpre-include=/usr/include/finclude/math-vector-fortran.h
REM seed -505893723 -1592292707 1006074171 -620852861 221209314 -1460174784 827570625 -202259160 -2146338658 -1135802418 -102817095 1929480866 180448081 -1292618941 542498678 -2029953923 -263840801 -1685916433 -372788405 -1965870713 1161114491 740659089 -812871873 -1759519270 -1726398115 270772498 1546077353 1854952474 53303475 1654548120 125913386 -2081895294 -1427739523
REM
CELL 1.54180   50.00000   50.00000   50.00000   90.00000   90.00000   90.00000
LATT -1
SFAC C  
C      1  0.5050550000000  0.5641480000000  0.5253920000000 1.0
C      1  0.4652180000000  0.4072040000000  0.5154850000000 1.0
C      1  0.5018230000000  0.5251470000000  0.4789460000000 1.0
C      1  0.4922590000000  0.4541580000000  0.4302080000000 1.0
C      1  0.4658560000000  0.5906410000000  0.4651140000000 1.0
C      1  0.4894080000000  0.4658920000000  0.5510360000000 1.0
C      1  0.5274400000000  0.4691570000000  0.5052630000000 1.0
C      1  0.4898750000000  0.5397940000000  0.5357950000000 1.0
C      1  0.4661580000000  0.5381650000000  0.5180790000000 1.0
C      1  0.4595340000000  0.5157830000000  0.4657160000000 1.0
C      1  0.5477000000000  0.4935590000000  0.5767810000000 1.0
C      1  0.4565210000000  0.3869840000000  0.5284120000000 1.0
C      1  0.4238510000000  0.5262370000000  0.4228470000000 1.0
C      1  0.4766660000000  0.5447800000000  0.4608430000000 1.0
C      1  0.5174120000000  0.4477580000000  0.4472650000000 1.0
C      1  0.5418660000000  0.4880020000000  0.4834190000000 1.0
C      1  0.4664100000000  0.5145230000000  0.4989950000000 1.0
C      1  0.4352550000000  0.5647850000000  0.4374080000000 1.0
C      1  0.4541950000000  0.4425350000000  0.4805150000000 1.0
C      1  0.4877070000000  0.4963320000000  0.4676800000000 1.0
C      1  0.5498700000000  0.5367710000000  0.4647470000000 1.0
C      1  0.4596350000000  0.5162250000000  0.5650670000000 1.0
C      1  0.5925680000000  0.4429840000000  0.5177700000000 1.0
C      1  0.4728540000000  0.5012560000000  0.4169600000000 1.0
C      1  0.4949180000000  0.4861660000000  0.4224220000000 1.0
C      1  0.6157160000000  0.5228740000000  0.4977680000000 1.0
C      1  0.5675000000000  0.4471590000000  0.5269340000000 1.0
C      1  0.4500390000000  0.5088640000000  0.4358280000000 1.0
C      1  0.5129850000000  0.4315730000000  0.5701450000000 1.0
C      1  0.5615100000000  0.4806190000000  0.4566660000000 1.0
C      1  0.5035910000000  0.5090140000000  0.5368610000000 1.0
C      1  0.5179420000000  0.5071970000000  0.5675600000000 1.0
C      1  0.4962680000000  0.4387590000000  0.5482930000000 1.0
C      1  0.4592380000000  0.5844070000000  0.5183840000000 1.0
C      1  0.4335380000000  0.4998810000000  0.4826890000000 1.0
C      1  0.4780320000000  0.5425280000000  0.5638480000000 1.0
C      1  0.4546230000000  0.5028020000000  0.5403680000000 1.0
C      1  0.5135730000000  0.4964290000000  0.4456010000000 1.0
C      1  0.5123120000000  0.4326080000000  0.4732580000000 1.0
C      1  0.5902990000000  0.5250540000000  0.4970780000000 1.0
C      1  0.5238890000000  0.4555980000000  0.5803850000000 1.0
C      1  0.5456110000000  0.4455080000000  0.5096020000000 1.0
C      1  0.5377320000000  0.5663990000000  0.5030360000000 1.0
C      1  0.5088730000000  0.5540220000000  0.4948010000000 1.0
C      1  0.5349400000000  0.5351960000000  0.5564780000000 1.0
C      1  0.5293820000000  0.5180240000000  0.4934090000000 1.0
C      1  0.4865190000000  0.4816200000000  0.6008700000000 1.0
C      1  0.5023020000000  0.4788030000000  0.5778630000000 1.0
C      1  0.4180300000000  0.4978760000000  0.4311980000000 1.0
C      1  0.4564270000000  0.5662900000000  0.4537930000000 1.0
C      1  0.4800330000000  0.4878000000000  0.5318540000000 1.0
C      1  0.5541780000000  0.5664750000000  0.4807360000000 1.0
C      1  0.5487030000000  0.4662770000000  0.5739100000000 1.0
C      1  0.4859980000000  0.5838020000000  0.5085180000000 1.0
C      1  0.4745460000000  0.4343660000000  0.5013590000000 1.0
C      1  0.5381130000000  0.5691830000000  0.4267430000000 1.0
C      1  0.5533860000000  0.5218180000000  0.5787240000000 1.0
C      1  0.4239200000000  0.5407540000000  0.5181410000000 1.0
C      1  0.4835450000000  0.4354500000000  0.4119480000000 1.0
C      1  0.4497810000000  0.4706370000000  0.4887670000000 1.0
C      1  0.4743440000000  0.4706590000000  0.4528070000000 1.0
C      1  0.4985100000000  0.4276490000000  0.5227440000000 1.0
C      1  0.4974970000000  0.4088760000000  0.4695990000000 1.0
C      1  0.5630050000000  0.4533960000000  0.5537930000000 1.0
C      1  0.4464250000000  0.5594020000000  0.5193310000000 1.0
C      1  0.4892430000000  0.5858690000000  0.4809520000000 1.0
C      1  0.5000080000000  0.4559400000000  0.4947170000000 1.0
C      1  0.5389340000000  0.4267530000000  0.4908200000000 1.0
C      1  0.5056930000000  0.5617270000000  0.4637500000000 1.0
C      1  0.5481600000000  0.5334280000000  0.5251330000000 1.0
C      1  0.4453160000000  0.4295010000000  0.4600340000000 1.0
C      1  0.5331260000000  0.4710060000000  0.4483440000000 1.0
C      1  0.5346470000000  0.5623250000000  0.5366520000000 1.0
C      1  0.5313100000000  0.5581060000000  0.4493120000000 1.0
C      1  0.4799090000000  0.4833250000000  0.4981240000000 1.0
C      1  0.4361690000000  0.5120410000000  0.5143410000000 1.0
C      1  0.5228620000000  0.4985230000000  0.5165860000000 1.0
C      1  0.5606760000000  0.5305840000000  0.4964410000000 1.0
C      1  0.5420160000000  0.5089720000000  0.4566530000000 1.0
C      1  0.4195190000000  0.4776260000000  0.5028520000000 1.0
C      1  0.4894990000000  0.5196370000000  0.5814400000000 1.0
END
