TITL C-2848505-4874-371 0.00400544485527782 125000 -648.653398515607 0 0 122 (C1) n - 1
REM
REM in /home/bkarasulu/work/CARBON/AIRSS/Generating-Clusters/AIREBO/with-SteepDescent/Only-C1/SD-CG-opt/Try1-1.4A-POS3A/HFTN-CG
REM
REM
REM
REM
REM
REM ./C.cell (11c1c37f851c82e70ff6c80c92926a4b)
REM
REM compiler GCC version 9.2.1 20190827 (Red Hat 9.2.1-1)
REM options -cpp -mtune=generic -march=x86-64 -g -O0 -fpre-include=/usr/include/finclude/math-vector-fortran.h
REM seed -181389639 -976680520 -1418419725 -1999932206 -75749719 -475998076 -926335584 -1346114142 -1774399861 1212541023 1245151247 2040531334 -43483294 1850289635 -985685937 1128392201 -1237131518 33679475 -65981242 -1539372039 72938688 -1650134327 641101153 1309341683 -1084948720 -1627893133 -1567565403 510245695 84984279 -1642254156 409169464 -1748663135 -2043150903
REM
CELL 1.54180   50.00000   50.00000   50.00000   90.00000   90.00000   90.00000
LATT -1
SFAC C  
C      1  0.5032490000000  0.5102340000000  0.5598930000000 1.0
C      1  0.4088350000000  0.4611960000000  0.5369500000000 1.0
C      1  0.5400060000000  0.5139760000000  0.5411600000000 1.0
C      1  0.5175510000000  0.4917080000000  0.5922870000000 1.0
C      1  0.4429970000000  0.5836590000000  0.5087340000000 1.0
C      1  0.5566250000000  0.4447240000000  0.4662120000000 1.0
C      1  0.4364340000000  0.4270610000000  0.4811080000000 1.0
C      1  0.5835260000000  0.5269910000000  0.5050810000000 1.0
C      1  0.4911260000000  0.4430010000000  0.4175200000000 1.0
C      1  0.4752190000000  0.4187010000000  0.4588490000000 1.0
C      1  0.4326010000000  0.5224890000000  0.4956280000000 1.0
C      1  0.5936990000000  0.5503990000000  0.5162900000000 1.0
C      1  0.4707570000000  0.4358790000000  0.5503620000000 1.0
C      1  0.5235950000000  0.4728990000000  0.4449330000000 1.0
C      1  0.5064870000000  0.4474570000000  0.4457950000000 1.0
C      1  0.5711970000000  0.4800680000000  0.5503140000000 1.0
C      1  0.5352320000000  0.4260720000000  0.5153370000000 1.0
C      1  0.5678840000000  0.5318420000000  0.5500510000000 1.0
C      1  0.5495580000000  0.4866250000000  0.5026080000000 1.0
C      1  0.4703220000000  0.5017620000000  0.5879540000000 1.0
C      1  0.4494050000000  0.5025380000000  0.5174440000000 1.0
C      1  0.5868000000000  0.4462100000000  0.5251240000000 1.0
C      1  0.5440630000000  0.3934010000000  0.5192140000000 1.0
C      1  0.3935240000000  0.5385480000000  0.5169070000000 1.0
C      1  0.4458710000000  0.5484630000000  0.4360200000000 1.0
C      1  0.5748150000000  0.5278360000000  0.4484790000000 1.0
C      1  0.5059410000000  0.5413250000000  0.4717150000000 1.0
C      1  0.5219990000000  0.5192950000000  0.4323220000000 1.0
C      1  0.4805620000000  0.5113880000000  0.5062280000000 1.0
C      1  0.5088260000000  0.5663630000000  0.5582980000000 1.0
C      1  0.4835130000000  0.4760520000000  0.4151240000000 1.0
C      1  0.4607890000000  0.5198730000000  0.4817410000000 1.0
C      1  0.5662710000000  0.4954900000000  0.4424170000000 1.0
C      1  0.5556060000000  0.5543840000000  0.4575720000000 1.0
C      1  0.4920380000000  0.4968140000000  0.6032580000000 1.0
C      1  0.4958380000000  0.5805900000000  0.5300350000000 1.0
C      1  0.5125030000000  0.5864880000000  0.4721410000000 1.0
C      1  0.4938130000000  0.4828150000000  0.4962000000000 1.0
C      1  0.5298800000000  0.5397280000000  0.5609250000000 1.0
C      1  0.5277530000000  0.4314770000000  0.5623840000000 1.0
C      1  0.4230410000000  0.5203210000000  0.4657800000000 1.0
C      1  0.5599740000000  0.5803300000000  0.5340680000000 1.0
C      1  0.4226510000000  0.5492950000000  0.5100810000000 1.0
C      1  0.4402410000000  0.4729970000000  0.5056050000000 1.0
C      1  0.4347600000000  0.5230720000000  0.5654790000000 1.0
C      1  0.4866930000000  0.5316480000000  0.4183500000000 1.0
C      1  0.5774540000000  0.5053400000000  0.5306780000000 1.0
C      1  0.5517500000000  0.5233790000000  0.5781390000000 1.0
C      1  0.5138170000000  0.4800670000000  0.5635840000000 1.0
C      1  0.4570900000000  0.4501970000000  0.5227010000000 1.0
C      1  0.4863180000000  0.4150110000000  0.4340370000000 1.0
C      1  0.4583520000000  0.5495170000000  0.5474400000000 1.0
C      1  0.4255570000000  0.4894880000000  0.5638700000000 1.0
C      1  0.4622480000000  0.4817620000000  0.4835640000000 1.0
C      1  0.4340260000000  0.5659310000000  0.4826970000000 1.0
C      1  0.5683880000000  0.4519990000000  0.4970000000000 1.0
C      1  0.4522230000000  0.5014010000000  0.4325660000000 1.0
C      1  0.4583490000000  0.5265600000000  0.4203970000000 1.0
C      1  0.4866460000000  0.4142320000000  0.4843280000000 1.0
C      1  0.5127000000000  0.4694450000000  0.5211410000000 1.0
C      1  0.4662480000000  0.5779140000000  0.5207710000000 1.0
C      1  0.5242630000000  0.5603390000000  0.4538670000000 1.0
C      1  0.5385440000000  0.6033620000000  0.4853890000000 1.0
C      1  0.5155370000000  0.5756660000000  0.5026420000000 1.0
C      1  0.4780080000000  0.4877790000000  0.4448460000000 1.0
C      1  0.5386770000000  0.4799930000000  0.5403830000000 1.0
C      1  0.4292910000000  0.5470140000000  0.5417950000000 1.0
C      1  0.4393530000000  0.4612500000000  0.5495620000000 1.0
C      1  0.4466030000000  0.4230040000000  0.5063120000000 1.0
C      1  0.4565470000000  0.4833700000000  0.5688350000000 1.0
C      1  0.5441110000000  0.5161520000000  0.4578480000000 1.0
C      1  0.5768930000000  0.5586590000000  0.5381290000000 1.0
C      1  0.4099660000000  0.4679550000000  0.5103300000000 1.0
C      1  0.4975180000000  0.5523230000000  0.4343360000000 1.0
C      1  0.5420050000000  0.5141710000000  0.5078010000000 1.0
C      1  0.4595850000000  0.4534320000000  0.4247560000000 1.0
C      1  0.5533870000000  0.4521110000000  0.5275360000000 1.0
C      1  0.5435550000000  0.4840400000000  0.4242950000000 1.0
C      1  0.4872280000000  0.5743350000000  0.4534820000000 1.0
C      1  0.5419680000000  0.5054920000000  0.5954910000000 1.0
C      1  0.4692110000000  0.5361550000000  0.4574830000000 1.0
C      1  0.4091750000000  0.4642480000000  0.4820000000000 1.0
C      1  0.4817860000000  0.4608140000000  0.4652400000000 1.0
C      1  0.5106070000000  0.4329520000000  0.4946870000000 1.0
C      1  0.4620810000000  0.5671850000000  0.4671600000000 1.0
C      1  0.5420400000000  0.5373290000000  0.4135350000000 1.0
C      1  0.4953610000000  0.5413270000000  0.4994400000000 1.0
C      1  0.4260350000000  0.5475280000000  0.4570340000000 1.0
C      1  0.5162260000000  0.4033140000000  0.5312500000000 1.0
C      1  0.4992580000000  0.5387500000000  0.5756820000000 1.0
C      1  0.5007910000000  0.5034660000000  0.4109650000000 1.0
C      1  0.5541990000000  0.4368990000000  0.5579340000000 1.0
C      1  0.5568510000000  0.5545010000000  0.4248950000000 1.0
C      1  0.4685420000000  0.4864790000000  0.5395610000000 1.0
C      1  0.4875810000000  0.4148870000000  0.5319140000000 1.0
C      1  0.5445100000000  0.5578690000000  0.5029140000000 1.0
C      1  0.5952660000000  0.4772910000000  0.4815840000000 1.0
C      1  0.3947100000000  0.5158720000000  0.5284400000000 1.0
C      1  0.4714000000000  0.4088550000000  0.5071740000000 1.0
C      1  0.5574700000000  0.5331790000000  0.4841020000000 1.0
C      1  0.5016210000000  0.5171020000000  0.5305960000000 1.0
C      1  0.4757650000000  0.5465660000000  0.5242420000000 1.0
C      1  0.4879460000000  0.4651670000000  0.5521120000000 1.0
C      1  0.5530370000000  0.5893020000000  0.5038290000000 1.0
C      1  0.5217950000000  0.5386190000000  0.5160550000000 1.0
C      1  0.4678280000000  0.5295930000000  0.5701700000000 1.0
C      1  0.5812350000000  0.4816090000000  0.5077120000000 1.0
C      1  0.5291440000000  0.5779940000000  0.5337140000000 1.0
C      1  0.5306190000000  0.4944620000000  0.4022920000000 1.0
C      1  0.4349210000000  0.4717230000000  0.4659890000000 1.0
C      1  0.5355360000000  0.4349390000000  0.4488460000000 1.0
C      1  0.4227520000000  0.5078210000000  0.5378920000000 1.0
C      1  0.4822360000000  0.4509850000000  0.4992120000000 1.0
C      1  0.5126090000000  0.4919990000000  0.4714860000000 1.0
C      1  0.4308200000000  0.4979610000000  0.4504040000000 1.0
C      1  0.5438650000000  0.4786050000000  0.4708380000000 1.0
C      1  0.5753120000000  0.4570730000000  0.5641000000000 1.0
C      1  0.5293730000000  0.4600750000000  0.4953890000000 1.0
C      1  0.4529780000000  0.4443600000000  0.4569530000000 1.0
C      1  0.5758690000000  0.4723120000000  0.4611850000000 1.0
C      1  0.5075180000000  0.4413180000000  0.5397730000000 1.0
C      1  0.4958480000000  0.5153400000000  0.4536960000000 1.0
END
