TITL C-2847945-6269-239 0.000771630651073284 125000 -825.103417348895 0 0 153 (C1) n - 1
REM
REM in /home/bkarasulu/work/CARBON/AIRSS/Generating-Clusters/AIREBO/with-SteepDescent/Only-C1/SD-CG-opt/Try1-1.4A-POS3A/HFTN-CG
REM
REM
REM
REM
REM
REM ./C.cell (11c1c37f851c82e70ff6c80c92926a4b)
REM
REM compiler GCC version 9.2.1 20190827 (Red Hat 9.2.1-1)
REM options -cpp -mtune=generic -march=x86-64 -g -O0 -fpre-include=/usr/include/finclude/math-vector-fortran.h
REM seed 689386222 1375645962 2056396035 -859554740 -1996933841 745145138 1197786904 -197252699 -947699212 1599767595 270837140 -883954282 1636178289 1760416206 -2063524701 1512592312 937117323 428820836 -1163890900 695819591 -2042004578 -405401484 73422081 1514998734 -932765568 871391225 -1659076360 56105599 20696125 278192413 -1285536664 221715801 1075438227
REM
CELL 1.54180   50.00000   50.00000   50.00000   90.00000   90.00000   90.00000
LATT -1
SFAC C  
C      1  0.4622380000000  0.5334650000000  0.5753380000000 1.0
C      1  0.5116800000000  0.5678040000000  0.5417870000000 1.0
C      1  0.4836460000000  0.5004000000000  0.5820640000000 1.0
C      1  0.4641050000000  0.5046010000000  0.4808180000000 1.0
C      1  0.4876470000000  0.4656380000000  0.4605200000000 1.0
C      1  0.4546080000000  0.4175540000000  0.4577590000000 1.0
C      1  0.5840920000000  0.5620750000000  0.4518030000000 1.0
C      1  0.4019530000000  0.5398120000000  0.5280500000000 1.0
C      1  0.4135510000000  0.4822950000000  0.5233700000000 1.0
C      1  0.4604630000000  0.4263860000000  0.4874690000000 1.0
C      1  0.5121860000000  0.5060520000000  0.6125980000000 1.0
C      1  0.4923420000000  0.5649880000000  0.4835870000000 1.0
C      1  0.5367640000000  0.4278480000000  0.5958840000000 1.0
C      1  0.4595920000000  0.4655560000000  0.4797550000000 1.0
C      1  0.5764790000000  0.4113440000000  0.4802510000000 1.0
C      1  0.6003270000000  0.5028980000000  0.5333900000000 1.0
C      1  0.4908710000000  0.5635910000000  0.5164310000000 1.0
C      1  0.5638400000000  0.5754880000000  0.4460270000000 1.0
C      1  0.4594620000000  0.4291080000000  0.5479220000000 1.0
C      1  0.4545040000000  0.4908490000000  0.5681550000000 1.0
C      1  0.5866310000000  0.4847930000000  0.4378040000000 1.0
C      1  0.4837600000000  0.4699300000000  0.5313990000000 1.0
C      1  0.5587180000000  0.5721250000000  0.5158080000000 1.0
C      1  0.4658930000000  0.5823580000000  0.4594570000000 1.0
C      1  0.4676990000000  0.4579240000000  0.4267330000000 1.0
C      1  0.5519830000000  0.5292490000000  0.5796740000000 1.0
C      1  0.5651800000000  0.4896760000000  0.4716160000000 1.0
C      1  0.3823700000000  0.4943610000000  0.4810200000000 1.0
C      1  0.4248940000000  0.4077300000000  0.4593830000000 1.0
C      1  0.4574040000000  0.5532920000000  0.4976200000000 1.0
C      1  0.4783190000000  0.5951030000000  0.5188910000000 1.0
C      1  0.4840140000000  0.5304840000000  0.5982420000000 1.0
C      1  0.5093580000000  0.5457960000000  0.4528590000000 1.0
C      1  0.5168430000000  0.5666140000000  0.5898390000000 1.0
C      1  0.5709220000000  0.4232980000000  0.5044890000000 1.0
C      1  0.4509590000000  0.4675300000000  0.5903190000000 1.0
C      1  0.5668180000000  0.5883160000000  0.5420900000000 1.0
C      1  0.5347260000000  0.5448280000000  0.4975140000000 1.0
C      1  0.5356860000000  0.5280420000000  0.4614100000000 1.0
C      1  0.4858760000000  0.4329140000000  0.4908350000000 1.0
C      1  0.5331550000000  0.4466650000000  0.4786060000000 1.0
C      1  0.5603670000000  0.4720020000000  0.4271350000000 1.0
C      1  0.3611690000000  0.4916090000000  0.4670820000000 1.0
C      1  0.4942830000000  0.5965090000000  0.4717050000000 1.0
C      1  0.4791760000000  0.5018110000000  0.6157410000000 1.0
C      1  0.5367770000000  0.4807770000000  0.4581490000000 1.0
C      1  0.5329200000000  0.5703200000000  0.4525900000000 1.0
C      1  0.4030370000000  0.5506750000000  0.4283090000000 1.0
C      1  0.4925190000000  0.5004470000000  0.5401950000000 1.0
C      1  0.5429450000000  0.4520200000000  0.5355050000000 1.0
C      1  0.4968180000000  0.4628270000000  0.5622280000000 1.0
C      1  0.4423130000000  0.4825690000000  0.5375110000000 1.0
C      1  0.4406800000000  0.5750520000000  0.4685410000000 1.0
C      1  0.4547640000000  0.4530530000000  0.5293920000000 1.0
C      1  0.4823100000000  0.5676580000000  0.5591200000000 1.0
C      1  0.4398310000000  0.5187040000000  0.5544480000000 1.0
C      1  0.4794700000000  0.5645110000000  0.3914960000000 1.0
C      1  0.5089000000000  0.6016480000000  0.4429130000000 1.0
C      1  0.4392170000000  0.4785650000000  0.4455390000000 1.0
C      1  0.4082280000000  0.4201360000000  0.4739800000000 1.0
C      1  0.6119280000000  0.5200680000000  0.4869870000000 1.0
C      1  0.4777380000000  0.4869820000000  0.4169300000000 1.0
C      1  0.4913500000000  0.3934480000000  0.4878630000000 1.0
C      1  0.5091580000000  0.4818340000000  0.4439150000000 1.0
C      1  0.4580240000000  0.4969420000000  0.3953300000000 1.0
C      1  0.4222490000000  0.5631840000000  0.4483770000000 1.0
C      1  0.4015460000000  0.4571340000000  0.5205970000000 1.0
C      1  0.5461840000000  0.4509830000000  0.4474930000000 1.0
C      1  0.4546550000000  0.4823450000000  0.6183310000000 1.0
C      1  0.4879770000000  0.5210360000000  0.4539170000000 1.0
C      1  0.6106100000000  0.4751100000000  0.4348770000000 1.0
C      1  0.4709270000000  0.5437510000000  0.4679280000000 1.0
C      1  0.4922830000000  0.5720970000000  0.4403010000000 1.0
C      1  0.5837210000000  0.5588370000000  0.5007730000000 1.0
C      1  0.5688580000000  0.5140950000000  0.5643270000000 1.0
C      1  0.5622170000000  0.4055060000000  0.4577610000000 1.0
C      1  0.5975940000000  0.4766940000000  0.5140340000000 1.0
C      1  0.4526550000000  0.5986540000000  0.5250070000000 1.0
C      1  0.4285980000000  0.4714050000000  0.4880420000000 1.0
C      1  0.5424040000000  0.4786180000000  0.5569930000000 1.0
C      1  0.5096430000000  0.5144530000000  0.4775580000000 1.0
C      1  0.5573050000000  0.5283730000000  0.4846640000000 1.0
C      1  0.4813970000000  0.4823060000000  0.4998060000000 1.0
C      1  0.5452790000000  0.5004850000000  0.4180670000000 1.0
C      1  0.4425580000000  0.5245660000000  0.4925010000000 1.0
C      1  0.4699530000000  0.4925330000000  0.4495640000000 1.0
C      1  0.5235170000000  0.5686820000000  0.4823380000000 1.0
C      1  0.5269250000000  0.5804970000000  0.5137970000000 1.0
C      1  0.4249270000000  0.5476750000000  0.5447150000000 1.0
C      1  0.5411700000000  0.4201240000000  0.4465980000000 1.0
C      1  0.4531540000000  0.4480870000000  0.4512910000000 1.0
C      1  0.5029290000000  0.5987970000000  0.5020460000000 1.0
C      1  0.5293510000000  0.4909810000000  0.4890390000000 1.0
C      1  0.5714200000000  0.4136880000000  0.5308760000000 1.0
C      1  0.4537480000000  0.4365340000000  0.5761360000000 1.0
C      1  0.4307570000000  0.5274720000000  0.5867130000000 1.0
C      1  0.5719580000000  0.5209480000000  0.5315130000000 1.0
C      1  0.4738580000000  0.5346400000000  0.5218360000000 1.0
C      1  0.4351830000000  0.5729080000000  0.5249940000000 1.0
C      1  0.5525040000000  0.4258720000000  0.5476600000000 1.0
C      1  0.4490530000000  0.5114150000000  0.5231780000000 1.0
C      1  0.5401360000000  0.5490900000000  0.4277620000000 1.0
C      1  0.5226310000000  0.4663390000000  0.3957590000000 1.0
C      1  0.4580390000000  0.5562320000000  0.5428150000000 1.0
C      1  0.4137540000000  0.4417010000000  0.4953640000000 1.0
C      1  0.5918230000000  0.4759780000000  0.5479430000000 1.0
C      1  0.6159900000000  0.4976610000000  0.4970400000000 1.0
C      1  0.4310850000000  0.4904420000000  0.4014740000000 1.0
C      1  0.5209410000000  0.5143530000000  0.4047370000000 1.0
C      1  0.4965570000000  0.5121930000000  0.5088690000000 1.0
C      1  0.5377850000000  0.4162180000000  0.5684930000000 1.0
C      1  0.4962160000000  0.5583010000000  0.4121940000000 1.0
C      1  0.5187880000000  0.5416640000000  0.4109830000000 1.0
C      1  0.5477470000000  0.4647300000000  0.3985050000000 1.0
C      1  0.4994720000000  0.4371250000000  0.5148050000000 1.0
C      1  0.4954160000000  0.3950160000000  0.5141620000000 1.0
C      1  0.5031200000000  0.4389990000000  0.4664140000000 1.0
C      1  0.5494700000000  0.5455530000000  0.5342570000000 1.0
C      1  0.4106260000000  0.5308940000000  0.5010860000000 1.0
C      1  0.4262350000000  0.5609220000000  0.4958870000000 1.0
C      1  0.4272390000000  0.4630620000000  0.4175310000000 1.0
C      1  0.4178810000000  0.5252720000000  0.4379200000000 1.0
C      1  0.5797440000000  0.5120860000000  0.4535320000000 1.0
C      1  0.5153810000000  0.5265260000000  0.5642500000000 1.0
C      1  0.5235610000000  0.5284560000000  0.5216240000000 1.0
C      1  0.5547830000000  0.5041170000000  0.5074270000000 1.0
C      1  0.5279190000000  0.5167960000000  0.5943210000000 1.0
C      1  0.5948490000000  0.5437690000000  0.5222420000000 1.0
C      1  0.4845560000000  0.5283250000000  0.5534920000000 1.0
C      1  0.4213750000000  0.5004320000000  0.4290430000000 1.0
C      1  0.4868450000000  0.4186510000000  0.5372390000000 1.0
C      1  0.4900550000000  0.5598730000000  0.5864110000000 1.0
C      1  0.5127720000000  0.4925710000000  0.5663470000000 1.0
C      1  0.5102480000000  0.4639460000000  0.4968500000000 1.0
C      1  0.5869950000000  0.5384590000000  0.4737460000000 1.0
C      1  0.5070250000000  0.4370610000000  0.5822320000000 1.0
C      1  0.5314750000000  0.4982660000000  0.5314830000000 1.0
C      1  0.4794070000000  0.4519640000000  0.5868720000000 1.0
C      1  0.4434450000000  0.4388650000000  0.5047910000000 1.0
C      1  0.5068780000000  0.4102430000000  0.5612320000000 1.0
C      1  0.5706200000000  0.4853480000000  0.5650930000000 1.0
C      1  0.5344780000000  0.5546560000000  0.5633410000000 1.0
C      1  0.5548770000000  0.4499920000000  0.5035380000000 1.0
C      1  0.4876920000000  0.4096630000000  0.4586750000000 1.0
C      1  0.5079070000000  0.4873070000000  0.4127160000000 1.0
C      1  0.5175390000000  0.4702330000000  0.5274670000000 1.0
C      1  0.4385160000000  0.5359440000000  0.4607130000000 1.0
C      1  0.5162270000000  0.4105830000000  0.4417050000000 1.0
C      1  0.5545000000000  0.5821380000000  0.5633750000000 1.0
C      1  0.5088540000000  0.3857070000000  0.5391430000000 1.0
C      1  0.5713110000000  0.4754620000000  0.4995710000000 1.0
C      1  0.4095510000000  0.4986770000000  0.4954060000000 1.0
C      1  0.5551210000000  0.5227130000000  0.4372900000000 1.0
END
