TITL C-2848499-1157-208 0.00167826685396443 125000 -568.416122687786 0 0 105 (C1) n - 1
REM
REM in /home/bkarasulu/work/CARBON/AIRSS/Generating-Clusters/AIREBO/with-SteepDescent/Only-C1/SD-CG-opt/Try1-1.4A-POS3A/HFTN-CG
REM
REM
REM
REM
REM
REM ./C.cell (11c1c37f851c82e70ff6c80c92926a4b)
REM
REM compiler GCC version 9.2.1 20190827 (Red Hat 9.2.1-1)
REM options -cpp -mtune=generic -march=x86-64 -g -O0 -fpre-include=/usr/include/finclude/math-vector-fortran.h
REM seed -515778895 -875774261 -818679817 -346335731 1960896706 -1828273280 1833994660 -850961051 942322064 -428436607 -1928047711 -1335064960 599133596 2048860943 178186705 -957791098 -1670666899 1842399480 -1714878665 1996345649 222942855 1298222623 -479891840 -2052631844 1307038657 -351040405 -1174284514 41253799 -490442279 -2127563825 -230597462 -1137816966 -1607821279
REM
CELL 1.54180   50.00000   50.00000   50.00000   90.00000   90.00000   90.00000
LATT -1
SFAC C  
C      1  0.4976020000000  0.4721170000000  0.5685190000000 1.0
C      1  0.5119060000000  0.4131660000000  0.5228670000000 1.0
C      1  0.5234790000000  0.4960450000000  0.5217360000000 1.0
C      1  0.5571570000000  0.4313180000000  0.4929090000000 1.0
C      1  0.5003190000000  0.5286280000000  0.4685540000000 1.0
C      1  0.4944910000000  0.5519360000000  0.5553110000000 1.0
C      1  0.4590090000000  0.5294360000000  0.4785940000000 1.0
C      1  0.4328150000000  0.5435740000000  0.4796420000000 1.0
C      1  0.4935620000000  0.4592350000000  0.5068720000000 1.0
C      1  0.4671260000000  0.5709610000000  0.4583490000000 1.0
C      1  0.4641200000000  0.5790820000000  0.4889620000000 1.0
C      1  0.5405420000000  0.4096520000000  0.5133180000000 1.0
C      1  0.5284220000000  0.4657960000000  0.5673190000000 1.0
C      1  0.4044110000000  0.5056360000000  0.4920160000000 1.0
C      1  0.5520420000000  0.4726030000000  0.4324650000000 1.0
C      1  0.5047170000000  0.4776910000000  0.4805720000000 1.0
C      1  0.4115580000000  0.5158700000000  0.5177550000000 1.0
C      1  0.4636780000000  0.4752690000000  0.5041330000000 1.0
C      1  0.4643880000000  0.4323450000000  0.4748590000000 1.0
C      1  0.4671650000000  0.4648420000000  0.5691370000000 1.0
C      1  0.5818150000000  0.5402450000000  0.5510260000000 1.0
C      1  0.4582530000000  0.4658590000000  0.4214540000000 1.0
C      1  0.5549880000000  0.4517610000000  0.4663210000000 1.0
C      1  0.4457390000000  0.4391410000000  0.5180550000000 1.0
C      1  0.4890300000000  0.4762980000000  0.4199450000000 1.0
C      1  0.5350840000000  0.5620040000000  0.5778350000000 1.0
C      1  0.5836820000000  0.5430700000000  0.4937800000000 1.0
C      1  0.5213730000000  0.4851270000000  0.4258810000000 1.0
C      1  0.4561350000000  0.5279450000000  0.5780010000000 1.0
C      1  0.5129030000000  0.5721950000000  0.5351160000000 1.0
C      1  0.5411390000000  0.5709260000000  0.4908220000000 1.0
C      1  0.4303300000000  0.5073670000000  0.4616350000000 1.0
C      1  0.5653550000000  0.5216180000000  0.4514380000000 1.0
C      1  0.5409150000000  0.4860400000000  0.5491800000000 1.0
C      1  0.4958220000000  0.4262680000000  0.4987990000000 1.0
C      1  0.5736990000000  0.5084750000000  0.5446070000000 1.0
C      1  0.4768930000000  0.5621970000000  0.5126510000000 1.0
C      1  0.5031580000000  0.5460040000000  0.5042890000000 1.0
C      1  0.5032430000000  0.4505190000000  0.4338650000000 1.0
C      1  0.5205280000000  0.4168420000000  0.4509080000000 1.0
C      1  0.4473510000000  0.5680110000000  0.5526680000000 1.0
C      1  0.5747160000000  0.4763710000000  0.4576790000000 1.0
C      1  0.4815360000000  0.5375210000000  0.5804080000000 1.0
C      1  0.5555120000000  0.5443520000000  0.4747790000000 1.0
C      1  0.5055030000000  0.4923390000000  0.4532420000000 1.0
C      1  0.5773920000000  0.5020570000000  0.4681050000000 1.0
C      1  0.4962360000000  0.5013270000000  0.5412920000000 1.0
C      1  0.4600010000000  0.4561080000000  0.5390300000000 1.0
C      1  0.5351210000000  0.4453620000000  0.4427320000000 1.0
C      1  0.4930020000000  0.5401750000000  0.4230730000000 1.0
C      1  0.5716940000000  0.4498060000000  0.5174690000000 1.0
C      1  0.4317040000000  0.4701200000000  0.5145260000000 1.0
C      1  0.4952230000000  0.4073250000000  0.4705670000000 1.0
C      1  0.5341120000000  0.5502330000000  0.5500920000000 1.0
C      1  0.5113030000000  0.5022240000000  0.5704480000000 1.0
C      1  0.4825680000000  0.4292140000000  0.4488040000000 1.0
C      1  0.5329100000000  0.4392080000000  0.5583990000000 1.0
C      1  0.5344630000000  0.5268480000000  0.4886210000000 1.0
C      1  0.4790450000000  0.5235730000000  0.5028630000000 1.0
C      1  0.4622960000000  0.4217700000000  0.5022910000000 1.0
C      1  0.5081540000000  0.4278280000000  0.5460960000000 1.0
C      1  0.4733400000000  0.5681720000000  0.5392640000000 1.0
C      1  0.5148980000000  0.5543230000000  0.4423710000000 1.0
C      1  0.4537530000000  0.5192920000000  0.4317500000000 1.0
C      1  0.5418130000000  0.4400680000000  0.5284640000000 1.0
C      1  0.5556810000000  0.5063240000000  0.4296240000000 1.0
C      1  0.5254410000000  0.4302910000000  0.4825740000000 1.0
C      1  0.4928380000000  0.5952580000000  0.4974560000000 1.0
C      1  0.4350350000000  0.5652110000000  0.4999660000000 1.0
C      1  0.4481750000000  0.5371970000000  0.5400010000000 1.0
C      1  0.5492120000000  0.4703560000000  0.4916520000000 1.0
C      1  0.5268720000000  0.4635960000000  0.5121560000000 1.0
C      1  0.5381180000000  0.5179760000000  0.5601710000000 1.0
C      1  0.5652470000000  0.5612740000000  0.5096340000000 1.0
C      1  0.5073470000000  0.5070080000000  0.4938570000000 1.0
C      1  0.5747320000000  0.4818340000000  0.5064690000000 1.0
C      1  0.4675650000000  0.4890180000000  0.5350030000000 1.0
C      1  0.5532380000000  0.5124400000000  0.5202340000000 1.0
C      1  0.4795110000000  0.5289010000000  0.5351770000000 1.0
C      1  0.4923760000000  0.4535280000000  0.5403810000000 1.0
C      1  0.4989920000000  0.5200810000000  0.5918010000000 1.0
C      1  0.5640630000000  0.5576030000000  0.5371160000000 1.0
C      1  0.4272590000000  0.5400110000000  0.5188300000000 1.0
C      1  0.5153750000000  0.5836660000000  0.5089890000000 1.0
C      1  0.4580700000000  0.4971350000000  0.4786650000000 1.0
C      1  0.4733840000000  0.5394530000000  0.4508420000000 1.0
C      1  0.4453380000000  0.5063570000000  0.5540390000000 1.0
C      1  0.4306170000000  0.4675940000000  0.4646950000000 1.0
C      1  0.4100860000000  0.5267820000000  0.4721870000000 1.0
C      1  0.4290530000000  0.5029150000000  0.4314030000000 1.0
C      1  0.5676120000000  0.5230440000000  0.5746740000000 1.0
C      1  0.5213860000000  0.5208700000000  0.4435850000000 1.0
C      1  0.4536770000000  0.4574250000000  0.4769680000000 1.0
C      1  0.4751330000000  0.4995650000000  0.4493530000000 1.0
C      1  0.5771380000000  0.5120190000000  0.4972430000000 1.0
C      1  0.5313080000000  0.5143970000000  0.4117150000000 1.0
C      1  0.4907030000000  0.5102380000000  0.4210690000000 1.0
C      1  0.5283090000000  0.5355630000000  0.5204990000000 1.0
C      1  0.5141470000000  0.5588010000000  0.4759340000000 1.0
C      1  0.4153100000000  0.4791110000000  0.4870500000000 1.0
C      1  0.4220430000000  0.4947480000000  0.5338020000000 1.0
C      1  0.4485360000000  0.4833690000000  0.5780490000000 1.0
C      1  0.5037460000000  0.4492620000000  0.4671850000000 1.0
C      1  0.4351750000000  0.4742720000000  0.4367890000000 1.0
C      1  0.5699120000000  0.4767730000000  0.5386340000000 1.0
END
