TITL C-2848497-6229-170 0.00235538419855874 125000 -515.235508398407 0 0 96 (C1) n - 1
REM
REM in /home/bkarasulu/work/CARBON/AIRSS/Generating-Clusters/AIREBO/with-SteepDescent/Only-C1/SD-CG-opt/Try1-1.4A-POS3A/HFTN-CG
REM
REM
REM
REM
REM
REM ./C.cell (11c1c37f851c82e70ff6c80c92926a4b)
REM
REM compiler GCC version 9.2.1 20190827 (Red Hat 9.2.1-1)
REM options -cpp -mtune=generic -march=x86-64 -g -O0 -fpre-include=/usr/include/finclude/math-vector-fortran.h
REM seed -827466526 -977800955 1827453190 1016374527 -37677988 -299408873 1941861820 2069371433 -585171838 1641493540 -912061255 126565259 -1412432443 1858434213 -706527420 -1411954234 1794205257 -168081282 -282087154 1417465597 -2132685489 -948533133 -2038611061 554643235 -1449672591 994037640 -432357826 -261635463 1328309013 -1383259585 348893806 -377304209 1789924566
REM
CELL 1.54180   50.00000   50.00000   50.00000   90.00000   90.00000   90.00000
LATT -1
SFAC C  
C      1  0.4361350000000  0.5447080000000  0.4947870000000 1.0
C      1  0.4985760000000  0.5471760000000  0.5211950000000 1.0
C      1  0.4225830000000  0.4489300000000  0.4918400000000 1.0
C      1  0.4650890000000  0.4628020000000  0.5414920000000 1.0
C      1  0.5390320000000  0.5356870000000  0.4717960000000 1.0
C      1  0.5589430000000  0.5508520000000  0.5384420000000 1.0
C      1  0.5899380000000  0.4926350000000  0.5218940000000 1.0
C      1  0.4942690000000  0.4409420000000  0.4240240000000 1.0
C      1  0.5438640000000  0.5677930000000  0.4616920000000 1.0
C      1  0.4254180000000  0.4784480000000  0.5302290000000 1.0
C      1  0.5467950000000  0.4676460000000  0.5143760000000 1.0
C      1  0.4924500000000  0.5101640000000  0.4172730000000 1.0
C      1  0.4753000000000  0.5245610000000  0.4368450000000 1.0
C      1  0.5530300000000  0.4593380000000  0.5590490000000 1.0
C      1  0.5329610000000  0.4218180000000  0.5201680000000 1.0
C      1  0.5378620000000  0.4887180000000  0.4908930000000 1.0
C      1  0.4368290000000  0.5378970000000  0.5245440000000 1.0
C      1  0.5260980000000  0.4490570000000  0.5635920000000 1.0
C      1  0.4649190000000  0.4522680000000  0.5738260000000 1.0
C      1  0.5613430000000  0.4972560000000  0.4712000000000 1.0
C      1  0.5582370000000  0.4908690000000  0.5634950000000 1.0
C      1  0.5197890000000  0.4975570000000  0.5177480000000 1.0
C      1  0.5244290000000  0.5262820000000  0.5231970000000 1.0
C      1  0.4493780000000  0.4501290000000  0.4722970000000 1.0
C      1  0.5380960000000  0.5093750000000  0.5679140000000 1.0
C      1  0.4810750000000  0.5053540000000  0.5220010000000 1.0
C      1  0.4665520000000  0.4441300000000  0.4984650000000 1.0
C      1  0.4628690000000  0.5636190000000  0.4855950000000 1.0
C      1  0.4538910000000  0.4769240000000  0.4521260000000 1.0
C      1  0.4273360000000  0.5532260000000  0.4658440000000 1.0
C      1  0.4318940000000  0.5204040000000  0.5520640000000 1.0
C      1  0.5188200000000  0.5177670000000  0.4544860000000 1.0
C      1  0.4707900000000  0.4218750000000  0.5219290000000 1.0
C      1  0.4492290000000  0.4915510000000  0.5507050000000 1.0
C      1  0.5116830000000  0.4956600000000  0.5717070000000 1.0
C      1  0.4998490000000  0.4283300000000  0.5697700000000 1.0
C      1  0.4116290000000  0.4730700000000  0.5023940000000 1.0
C      1  0.4463670000000  0.4359700000000  0.5318790000000 1.0
C      1  0.5009350000000  0.4865920000000  0.5423710000000 1.0
C      1  0.5372540000000  0.4911850000000  0.4106710000000 1.0
C      1  0.5093390000000  0.5767210000000  0.5096100000000 1.0
C      1  0.5239810000000  0.5188940000000  0.4225840000000 1.0
C      1  0.5939780000000  0.4934240000000  0.4770050000000 1.0
C      1  0.5092890000000  0.5782350000000  0.5435840000000 1.0
C      1  0.5147340000000  0.4668060000000  0.4183880000000 1.0
C      1  0.4406080000000  0.5132510000000  0.4935560000000 1.0
C      1  0.5708990000000  0.5444830000000  0.5150210000000 1.0
C      1  0.4584890000000  0.5664870000000  0.4519970000000 1.0
C      1  0.4460040000000  0.5353940000000  0.4462090000000 1.0
C      1  0.5186350000000  0.4910160000000  0.4660730000000 1.0
C      1  0.4909120000000  0.4802140000000  0.4810650000000 1.0
C      1  0.5316350000000  0.4719910000000  0.4445020000000 1.0
C      1  0.4739250000000  0.5082810000000  0.4888810000000 1.0
C      1  0.5675630000000  0.4781440000000  0.5347020000000 1.0
C      1  0.4857220000000  0.5384620000000  0.4844280000000 1.0
C      1  0.4660190000000  0.4689900000000  0.4261360000000 1.0
C      1  0.5502920000000  0.4379790000000  0.5063300000000 1.0
C      1  0.5178790000000  0.5408050000000  0.4943740000000 1.0
C      1  0.5854260000000  0.5190270000000  0.5147970000000 1.0
C      1  0.5094950000000  0.4674390000000  0.5832710000000 1.0
C      1  0.4942170000000  0.4165170000000  0.4901110000000 1.0
C      1  0.4585160000000  0.5060640000000  0.4586400000000 1.0
C      1  0.4843310000000  0.5388440000000  0.5692890000000 1.0
C      1  0.5531600000000  0.4343380000000  0.4787080000000 1.0
C      1  0.4959780000000  0.5373960000000  0.4553210000000 1.0
C      1  0.5065780000000  0.4533120000000  0.4692270000000 1.0
C      1  0.4793820000000  0.4721450000000  0.5120340000000 1.0
C      1  0.5352530000000  0.4472050000000  0.4622380000000 1.0
C      1  0.4484390000000  0.4861080000000  0.5099820000000 1.0
C      1  0.5025720000000  0.4334300000000  0.5184140000000 1.0
C      1  0.5126350000000  0.4650310000000  0.5108860000000 1.0
C      1  0.4879150000000  0.4822680000000  0.4159670000000 1.0
C      1  0.6026000000000  0.4806070000000  0.4995890000000 1.0
C      1  0.5344170000000  0.5351280000000  0.5516510000000 1.0
C      1  0.4865950000000  0.5879000000000  0.4876160000000 1.0
C      1  0.4134400000000  0.4970340000000  0.4871490000000 1.0
C      1  0.4248910000000  0.4311810000000  0.5141520000000 1.0
C      1  0.4650070000000  0.5107470000000  0.5717200000000 1.0
C      1  0.5094750000000  0.5541540000000  0.5589910000000 1.0
C      1  0.5548510000000  0.4949840000000  0.4395190000000 1.0
C      1  0.5067720000000  0.5656640000000  0.4470360000000 1.0
C      1  0.5787740000000  0.5236870000000  0.4818650000000 1.0
C      1  0.4592640000000  0.5766510000000  0.5167930000000 1.0
C      1  0.4727370000000  0.5599730000000  0.5356330000000 1.0
C      1  0.4973700000000  0.4529410000000  0.5457910000000 1.0
C      1  0.4528040000000  0.5462210000000  0.5594990000000 1.0
C      1  0.5568070000000  0.5262510000000  0.4443830000000 1.0
C      1  0.4892540000000  0.4315920000000  0.4680910000000 1.0
C      1  0.4676850000000  0.4402590000000  0.4453700000000 1.0
C      1  0.4927810000000  0.5127850000000  0.5861250000000 1.0
C      1  0.5338360000000  0.5495510000000  0.4347690000000 1.0
C      1  0.4671960000000  0.5269660000000  0.5352550000000 1.0
C      1  0.4812480000000  0.5774420000000  0.4384500000000 1.0
C      1  0.5660280000000  0.5550930000000  0.4841810000000 1.0
C      1  0.4851220000000  0.4587330000000  0.5911540000000 1.0
C      1  0.5157070000000  0.5771880000000  0.4760720000000 1.0
END
