TITL C-2847944-5688-549 0.00029326034927504 125000 -161.706149434553 0 0 31 (C1) n - 1
REM
REM in /home/bkarasulu/work/CARBON/AIRSS/Generating-Clusters/AIREBO/with-SteepDescent/Only-C1/SD-CG-opt/Try1-1.4A-POS3A/HFTN-CG
REM
REM
REM
REM
REM
REM ./C.cell (11c1c37f851c82e70ff6c80c92926a4b)
REM
REM compiler GCC version 9.2.1 20190827 (Red Hat 9.2.1-1)
REM options -cpp -mtune=generic -march=x86-64 -g -O0 -fpre-include=/usr/include/finclude/math-vector-fortran.h
REM seed 662357509 1646120754 734807124 2042970997 1199746103 -978153849 2039505860 1578619757 -1725087373 -86549092 1542282619 113795871 209914688 418158820 1226909250 1783647660 -809377783 -1914546189 1975928083 -1513024815 635890692 727364846 -961730626 114471322 -1480307906 676785958 -999154122 -2101292699 -1806204142 -168242333 2114151953 1435066547 801101379
REM
CELL 1.54180   50.00000   50.00000   50.00000   90.00000   90.00000   90.00000
LATT -1
SFAC C  
C      1  0.5424320000000  0.5056240000000  0.4578340000000 1.0
C      1  0.4703230000000  0.5327750000000  0.4560240000000 1.0
C      1  0.4982420000000  0.5267250000000  0.4587790000000 1.0
C      1  0.4555830000000  0.5183740000000  0.5260770000000 1.0
C      1  0.5062780000000  0.4980760000000  0.5339440000000 1.0
C      1  0.4622660000000  0.5350590000000  0.5048900000000 1.0
C      1  0.4894460000000  0.4874120000000  0.4819460000000 1.0
C      1  0.5050560000000  0.5302520000000  0.4859760000000 1.0
C      1  0.4939010000000  0.4415320000000  0.5012120000000 1.0
C      1  0.4566020000000  0.5219500000000  0.4790990000000 1.0
C      1  0.5498390000000  0.5262580000000  0.4761960000000 1.0
C      1  0.5149660000000  0.4588790000000  0.4927510000000 1.0
C      1  0.4948660000000  0.4679710000000  0.5607050000000 1.0
C      1  0.5149040000000  0.5888200000000  0.5145250000000 1.0
C      1  0.4703890000000  0.4458030000000  0.5253990000000 1.0
C      1  0.5132820000000  0.4557310000000  0.5434720000000 1.0
C      1  0.5148360000000  0.5630800000000  0.5065870000000 1.0
C      1  0.5067110000000  0.4561540000000  0.4432220000000 1.0
C      1  0.5154960000000  0.4759380000000  0.4633360000000 1.0
C      1  0.4996520000000  0.4320160000000  0.5313260000000 1.0
C      1  0.4468070000000  0.4977110000000  0.5503490000000 1.0
C      1  0.5142340000000  0.5063420000000  0.4481500000000 1.0
C      1  0.5380730000000  0.5484460000000  0.4991660000000 1.0
C      1  0.4884620000000  0.5478260000000  0.5034860000000 1.0
C      1  0.4634770000000  0.4940520000000  0.4808110000000 1.0
C      1  0.4786390000000  0.4980610000000  0.5399870000000 1.0
C      1  0.4644790000000  0.4686720000000  0.5464780000000 1.0
C      1  0.5424890000000  0.5175160000000  0.5058700000000 1.0
C      1  0.5132760000000  0.5024830000000  0.5009650000000 1.0
C      1  0.5501070000000  0.4766780000000  0.4623380000000 1.0
C      1  0.5248860000000  0.4737840000000  0.5191020000000 1.0
END
