TITL C-2848501-3133-286 -0.000132679887249893 125000 -489.486094511119 0 0 91 (C1) n - 1
REM
REM in /home/bkarasulu/work/CARBON/AIRSS/Generating-Clusters/AIREBO/with-SteepDescent/Only-C1/SD-CG-opt/Try1-1.4A-POS3A/HFTN-CG
REM
REM
REM
REM
REM
REM ./C.cell (11c1c37f851c82e70ff6c80c92926a4b)
REM
REM compiler GCC version 9.2.1 20190827 (Red Hat 9.2.1-1)
REM options -cpp -mtune=generic -march=x86-64 -g -O0 -fpre-include=/usr/include/finclude/math-vector-fortran.h
REM seed -789073228 328376873 -653826252 268449219 -232687927 501040798 -97978646 -168778696 1939585008 -215521339 -2026505381 -925180251 -1393304058 282658902 211873418 1650101476 948347911 1100173341 484744333 -1070437060 314801246 -1259323925 -1637071224 745491225 -60832961 1741354964 72227382 1711537932 -221793895 1236003344 778083684 1497977015 -1792234800
REM
CELL 1.54180   50.00000   50.00000   50.00000   90.00000   90.00000   90.00000
LATT -1
SFAC C  
C      1  0.5435190000000  0.5138060000000  0.5761960000000 1.0
C      1  0.4934880000000  0.4987220000000  0.4463000000000 1.0
C      1  0.4861540000000  0.5054140000000  0.5321770000000 1.0
C      1  0.5966450000000  0.4911630000000  0.4633260000000 1.0
C      1  0.4975630000000  0.5341740000000  0.5655360000000 1.0
C      1  0.4414170000000  0.5284300000000  0.5468520000000 1.0
C      1  0.4650060000000  0.4912210000000  0.5770200000000 1.0
C      1  0.5523690000000  0.4696900000000  0.5643750000000 1.0
C      1  0.5436380000000  0.5649200000000  0.4588860000000 1.0
C      1  0.5289760000000  0.4813700000000  0.5273020000000 1.0
C      1  0.5157350000000  0.4782800000000  0.4597920000000 1.0
C      1  0.5584810000000  0.4439200000000  0.4711200000000 1.0
C      1  0.4600300000000  0.4270040000000  0.4670480000000 1.0
C      1  0.5351750000000  0.5212140000000  0.5076090000000 1.0
C      1  0.5673200000000  0.4825100000000  0.5176520000000 1.0
C      1  0.5579790000000  0.5234640000000  0.5515020000000 1.0
C      1  0.5127110000000  0.5945390000000  0.5407250000000 1.0
C      1  0.5740840000000  0.5419570000000  0.5241150000000 1.0
C      1  0.4491550000000  0.5165030000000  0.4523570000000 1.0
C      1  0.4858580000000  0.4328520000000  0.5583000000000 1.0
C      1  0.5187740000000  0.5107330000000  0.5355160000000 1.0
C      1  0.4425380000000  0.4523370000000  0.5588270000000 1.0
C      1  0.4322820000000  0.5361190000000  0.4961550000000 1.0
C      1  0.4546990000000  0.5371850000000  0.5186840000000 1.0
C      1  0.5682720000000  0.4935420000000  0.4659340000000 1.0
C      1  0.5065050000000  0.4732270000000  0.5679180000000 1.0
C      1  0.5321150000000  0.5350100000000  0.4702540000000 1.0
C      1  0.4420800000000  0.4430890000000  0.4546530000000 1.0
C      1  0.4465690000000  0.5416730000000  0.4679300000000 1.0
C      1  0.4587370000000  0.5070320000000  0.5034520000000 1.0
C      1  0.4984090000000  0.4393960000000  0.5303440000000 1.0
C      1  0.4665630000000  0.4138170000000  0.5047450000000 1.0
C      1  0.5559660000000  0.4936440000000  0.5439770000000 1.0
C      1  0.4937240000000  0.4157880000000  0.5084060000000 1.0
C      1  0.5614100000000  0.4547530000000  0.5163270000000 1.0
C      1  0.4664910000000  0.5113730000000  0.5571610000000 1.0
C      1  0.5323230000000  0.5276590000000  0.4370550000000 1.0
C      1  0.5282720000000  0.4567040000000  0.5586770000000 1.0
C      1  0.4359010000000  0.4535670000000  0.5316880000000 1.0
C      1  0.4399650000000  0.5695990000000  0.4841890000000 1.0
C      1  0.5435260000000  0.5503210000000  0.5364640000000 1.0
C      1  0.4199980000000  0.5089310000000  0.5354350000000 1.0
C      1  0.4208240000000  0.4848870000000  0.4916770000000 1.0
C      1  0.5033600000000  0.4468410000000  0.4587060000000 1.0
C      1  0.5012600000000  0.5274660000000  0.4459510000000 1.0
C      1  0.5354980000000  0.4281580000000  0.4732880000000 1.0
C      1  0.5112000000000  0.5424410000000  0.5389580000000 1.0
C      1  0.5611130000000  0.5026580000000  0.4956990000000 1.0
C      1  0.5319100000000  0.5549550000000  0.5048310000000 1.0
C      1  0.5137080000000  0.5044260000000  0.5687770000000 1.0
C      1  0.4853320000000  0.5267140000000  0.4956050000000 1.0
C      1  0.4615620000000  0.5880300000000  0.4732250000000 1.0
C      1  0.4927330000000  0.4402050000000  0.4285450000000 1.0
C      1  0.5733960000000  0.5316780000000  0.4985150000000 1.0
C      1  0.4658550000000  0.5444140000000  0.5651530000000 1.0
C      1  0.4365050000000  0.4701750000000  0.4704350000000 1.0
C      1  0.5324580000000  0.5811820000000  0.5274310000000 1.0
C      1  0.5324950000000  0.4682580000000  0.4318910000000 1.0
C      1  0.5736650000000  0.4422240000000  0.4945550000000 1.0
C      1  0.4975820000000  0.4964690000000  0.5014290000000 1.0
C      1  0.4393000000000  0.4851080000000  0.5207310000000 1.0
C      1  0.4743130000000  0.4638940000000  0.5622040000000 1.0
C      1  0.4872810000000  0.5731570000000  0.5098980000000 1.0
C      1  0.4824650000000  0.4386770000000  0.4777580000000 1.0
C      1  0.4522070000000  0.4379420000000  0.5149560000000 1.0
C      1  0.4940300000000  0.5470980000000  0.5148360000000 1.0
C      1  0.5014700000000  0.4787620000000  0.4227710000000 1.0
C      1  0.4853310000000  0.5876790000000  0.5356460000000 1.0
C      1  0.5322600000000  0.4419190000000  0.5283150000000 1.0
C      1  0.5236410000000  0.4235440000000  0.4472480000000 1.0
C      1  0.4962340000000  0.5608230000000  0.4497040000000 1.0
C      1  0.4369210000000  0.5726130000000  0.5157510000000 1.0
C      1  0.5104970000000  0.5591690000000  0.4805300000000 1.0
C      1  0.4785940000000  0.5384030000000  0.4682850000000 1.0
C      1  0.4155370000000  0.5126300000000  0.5043480000000 1.0
C      1  0.4539590000000  0.4686960000000  0.4388060000000 1.0
C      1  0.4654630000000  0.4931750000000  0.4558110000000 1.0
C      1  0.5233390000000  0.5038650000000  0.4808560000000 1.0
C      1  0.4649780000000  0.4789000000000  0.4868690000000 1.0
C      1  0.5573480000000  0.5155590000000  0.4460920000000 1.0
C      1  0.4760560000000  0.4619690000000  0.4191010000000 1.0
C      1  0.4864680000000  0.5824100000000  0.4819230000000 1.0
C      1  0.5546930000000  0.4677270000000  0.4569110000000 1.0
C      1  0.4707650000000  0.4777460000000  0.5313500000000 1.0
C      1  0.5351480000000  0.4369270000000  0.4252530000000 1.0
C      1  0.5245100000000  0.5757180000000  0.4428460000000 1.0
C      1  0.4608460000000  0.5642300000000  0.5384070000000 1.0
C      1  0.5120030000000  0.4671950000000  0.5050670000000 1.0
C      1  0.5638930000000  0.5458150000000  0.4766580000000 1.0
C      1  0.5196040000000  0.4349260000000  0.4974460000000 1.0
C      1  0.4799700000000  0.4558910000000  0.5069720000000 1.0
END
