TITL C-2847957-7266-83 -2259.4111919371 125000 -566.169938885981 0 0 106 (C1) n - 1
REM
REM in /home/bkarasulu/work/CARBON/AIRSS/Generating-Clusters/AIREBO/with-SteepDescent/Only-C1/SD-CG-opt/Try1-1.4A-POS3A/HFTN-CG
REM
REM
REM
REM
REM
REM ./C.cell (11c1c37f851c82e70ff6c80c92926a4b)
REM
REM compiler GCC version 9.2.1 20190827 (Red Hat 9.2.1-1)
REM options -cpp -mtune=generic -march=x86-64 -g -O0 -fpre-include=/usr/include/finclude/math-vector-fortran.h
REM seed -197268666 353793326 -336731025 164320846 -618718736 1598712993 -1066778854 -1785551632 575595459 1771860805 -364650774 -316474002 -1742666589 -833530746 -374441378 1067000808 -78891948 -1953728926 554885213 -496755499 965823206 -2061523983 1703679853 -377323608 -796805214 -1129446177 233597946 -1749196420 -1929178433 -1035611571 616069558 -1675160792 -610093816
REM
CELL 1.54180   50.00000   50.00000   50.00000   90.00000   90.00000   90.00000
LATT -1
SFAC C  
C      1  0.4690230000000  0.5430430000000  0.5711250000000 1.0
C      1  0.4825170000000  0.4512870000000  0.4358930000000 1.0
C      1  0.4110940000000  0.5131610000000  0.4681950000000 1.0
C      1  0.4873610000000  0.4818070000000  0.4840260000000 1.0
C      1  0.4564360000000  0.5624060000000  0.5819880000000 1.0
C      1  0.5865580000000  0.4931580000000  0.5185720000000 1.0
C      1  0.5761470000000  0.5317090000000  0.4493320000000 1.0
C      1  0.4476000000000  0.5112990000000  0.4838010000000 1.0
C      1  0.5643660000000  0.4898630000000  0.4737250000000 1.0
C      1  0.4500210000000  0.4876070000000  0.5799240000000 1.0
C      1  0.4088640000000  0.4709080000000  0.5137060000000 1.0
C      1  0.4416140000000  0.4654100000000  0.5616590000000 1.0
C      1  0.4719220000000  0.4840190000000  0.5354940000000 1.0
C      1  0.4901970000000  0.4669810000000  0.5585990000000 1.0
C      1  0.4250550000000  0.4872560000000  0.4754460000000 1.0
C      1  0.5688100000000  0.4575670000000  0.5149760000000 1.0
C      1  0.5312190000000  0.4250630000000  0.4517290000000 1.0
C      1  0.5289530000000  0.4457920000000  0.5296450000000 1.0
C      1  0.5293280000000  0.5019530000000  0.4216370000000 1.0
C      1  0.4914270000000  0.5762640000000  0.4178160000000 1.0
C      1  0.4991540000000  0.4876110000000  0.5153880000000 1.0
C      1  0.4395060000000  0.4189070000000  0.4885900000000 1.0
C      1  0.5072500000000  0.5199570000000  0.4793680000000 1.0
C      1  0.4902740000000  0.4839210000000  0.4302700000000 1.0
C      1  0.4521240000000  0.5548580000000  0.4530790000000 1.0
C      1  0.5224230000000  0.4936090000000  0.5394480000000 1.0
C      1  0.5210540000000  0.4663640000000  0.4984180000000 1.0
C      1  0.5360260000000  0.4933050000000  0.4632790000000 1.0
C      1  0.4632030000000  0.4595050000000  0.4619080000000 1.0
C      1  0.4470830000000  0.4487700000000  0.4898630000000 1.0
C      1  0.4705380000000  0.5473790000000  0.5143650000000 1.0
C      1  0.4328830000000  0.6229010000000  0.5204360000000 1.0
C      1  0.5005230000000  0.5504040000000  0.5041920000000 1.0
C      1  0.4938310000000  0.4760530000000  0.6192930000000 1.0
C      1  0.4397780000000  0.4931210000000  0.5420320000000 1.0
C      1  0.5043130000000  0.4139560000000  0.4590870000000 1.0
C      1  0.4606850000000  0.4045340000000  0.4408770000000 1.0
C      1  0.5237470000000  0.5699640000000  0.4612730000000 1.0
C      1  0.5544350000000  0.5411950000000  0.5001440000000 1.0
C      1  0.5540820000000  0.4412910000000  0.4664700000000 1.0
C      1  0.5095500000000  0.5200200000000  0.5127980000000 1.0
C      1  0.5806860000000  0.4691450000000  0.5416400000000 1.0
C      1  0.5709700000000  0.5703150000000  0.5611920000000 1.0
C      1  0.5544510000000  0.5522360000000  0.5481480000000 1.0
C      1  0.4951800000000  0.4503450000000  0.5293240000000 1.0
C      1  0.4794840000000  0.4530960000000  0.4992530000000 1.0
C      1  0.5338450000000  0.4748590000000  0.4176550000000 1.0
C      1  0.5039990000000  0.5216440000000  0.6076540000000 1.0
C      1  0.4785250000000  0.4307160000000  0.4736520000000 1.0
C      1  0.5085450000000  0.5064640000000  0.4481720000000 1.0
C      1  0.4175210000000  0.4950080000000  0.5228690000000 1.0
C      1  0.4791760000000  0.4932930000000  0.5752660000000 1.0
C      1  0.4749410000000  0.4318730000000  0.5471610000000 1.0
C      1  0.5293120000000  0.4748550000000  0.5588900000000 1.0
C      1  0.4748720000000  0.4969800000000  0.4089220000000 1.0
C      1  0.4226680000000  0.5250080000000  0.4466270000000 1.0
C      1  0.5073090000000  0.4091940000000  0.4905490000000 1.0
C      1  0.5222800000000  0.5713070000000  0.5140840000000 1.0
C      1  0.5489330000000  0.5023360000000  0.5279170000000 1.0
C      1  0.5980880000000  0.4797460000000  0.4957440000000 1.0
C      1  0.4831250000000  0.4195840000000  0.4356780000000 1.0
C      1  0.4755060000000  0.5216180000000  0.4927300000000 1.0
C      1  0.4555350000000  0.4057630000000  0.4696100000000 1.0
C      1  0.5266720000000  0.5408620000000  0.5597800000000 1.0
C      1  0.5486180000000  0.4374720000000  0.4998380000000 1.0
C      1  0.4640650000000  0.4935410000000  0.4621980000000 1.0
C      1  0.5098750000000  0.5226070000000  0.5462750000000 1.0
C      1  0.5386620000000  0.4523700000000  0.5826180000000 1.0
C      1  0.4970470000000  0.5573790000000  0.4736550000000 1.0
C      1  0.5360340000000  0.6219790000000  0.4644590000000 1.0
C      1  0.5238140000000  0.5999760000000  0.4702260000000 1.0
C      1  0.5339290000000  0.5410280000000  0.4760570000000 1.0
C      1  0.5834810000000  0.5063310000000  0.4562470000000 1.0
C      1  0.4107510000000  0.5423090000000  0.5106670000000 1.0
C      1  0.4335930000000  0.5107550000000  0.5709270000000 1.0
C      1  0.4814310000000  0.5185270000000  0.5578280000000 1.0
C      1  0.4592340000000  0.5739220000000  0.5123500000000 1.0
C      1  0.5175600000000  0.4326550000000  0.5018130000000 1.0
C      1  0.5245040000000  0.4543090000000  0.4429400000000 1.0
C      1  0.5510350000000  0.5436650000000  0.4487330000000 1.0
C      1  0.5050690000000  0.5882380000000  0.4926380000000 1.0
C      1  0.5076320000000  0.4560230000000  0.4134700000000 1.0
C      1  0.4190360000000  0.5171930000000  0.5012770000000 1.0
C      1  0.4935700000000  0.4969990000000  0.6015360000000 1.0
C      1  0.5466320000000  0.5591850000000  0.5196010000000 1.0
C      1  0.5135450000000  0.4713340000000  0.4666100000000 1.0
C      1  0.4566060000000  0.5228840000000  0.4464720000000 1.0
C      1  0.4506040000000  0.4401830000000  0.5561560000000 1.0
C      1  0.5525920000000  0.4525080000000  0.5511320000000 1.0
C      1  0.4722850000000  0.5159400000000  0.5262030000000 1.0
C      1  0.5049960000000  0.5591990000000  0.4350200000000 1.0
C      1  0.4226230000000  0.4649940000000  0.4904340000000 1.0
C      1  0.4506420000000  0.6046890000000  0.5145900000000 1.0
C      1  0.5786070000000  0.4366500000000  0.4492870000000 1.0
C      1  0.4887270000000  0.5340450000000  0.4465300000000 1.0
C      1  0.5051090000000  0.4495910000000  0.5778760000000 1.0
C      1  0.5526700000000  0.4835940000000  0.5797150000000 1.0
C      1  0.5500910000000  0.4804630000000  0.5028260000000 1.0
C      1  0.5691200000000  0.5188100000000  0.5091320000000 1.0
C      1  0.4575770000000  0.5144090000000  0.4150040000000 1.0
C      1  0.4792680000000  0.5964560000000  0.5029580000000 1.0
C      1  0.5604840000000  0.5209850000000  0.5523330000000 1.0
C      1  0.5356970000000  0.5516410000000  0.4279080000000 1.0
C      1  0.5766920000000  0.4592600000000  0.4819430000000 1.0
C      1  0.4104840000000  0.5375980000000  0.4256170000000 1.0
C      1  0.5634150000000  0.5078810000000  0.5765180000000 1.0
END
