TITL C-2848499-1157-435 -0.00182254290809542 125000 -611.609830443684 0 0 116 (C1) n - 1
REM
REM in /home/bkarasulu/work/CARBON/AIRSS/Generating-Clusters/AIREBO/with-SteepDescent/Only-C1/SD-CG-opt/Try1-1.4A-POS3A/HFTN-CG
REM
REM
REM
REM
REM
REM ./C.cell (11c1c37f851c82e70ff6c80c92926a4b)
REM
REM compiler GCC version 9.2.1 20190827 (Red Hat 9.2.1-1)
REM options -cpp -mtune=generic -march=x86-64 -g -O0 -fpre-include=/usr/include/finclude/math-vector-fortran.h
REM seed 996967623 1547072303 -999428081 -1942544691 -293569272 -1444520817 -369946649 -988482706 -1363058067 -1828757016 34264656 621872273 217679057 435006127 -599202802 883679617 -1701553129 1598932836 -1758643018 1955305775 -1244609059 -534200115 -523779003 284008257 744877663 -927008508 -1309160317 -1625064933 897056155 1470301564 722869247 -1538062281 481101989
REM
CELL 1.54180   50.00000   50.00000   50.00000   90.00000   90.00000   90.00000
LATT -1
SFAC C  
C      1  0.5010650000000  0.4656850000000  0.5030540000000 1.0
C      1  0.4167370000000  0.5010200000000  0.5483940000000 1.0
C      1  0.4851500000000  0.4905710000000  0.4848520000000 1.0
C      1  0.5139450000000  0.4352660000000  0.4730760000000 1.0
C      1  0.5670590000000  0.5166580000000  0.5718380000000 1.0
C      1  0.4466150000000  0.5104660000000  0.5540120000000 1.0
C      1  0.5821450000000  0.5078850000000  0.5450690000000 1.0
C      1  0.4296700000000  0.5647470000000  0.4900820000000 1.0
C      1  0.4890740000000  0.5326800000000  0.4196800000000 1.0
C      1  0.4623620000000  0.4482500000000  0.5363860000000 1.0
C      1  0.4110150000000  0.4879530000000  0.5253590000000 1.0
C      1  0.4646700000000  0.4384490000000  0.4425660000000 1.0
C      1  0.4974580000000  0.5162720000000  0.5306230000000 1.0
C      1  0.5164790000000  0.4962710000000  0.5783730000000 1.0
C      1  0.4917500000000  0.5651380000000  0.4576110000000 1.0
C      1  0.4441120000000  0.5236850000000  0.4509590000000 1.0
C      1  0.4969230000000  0.5345770000000  0.4500090000000 1.0
C      1  0.5093140000000  0.4322400000000  0.4228190000000 1.0
C      1  0.5240040000000  0.5493650000000  0.4020440000000 1.0
C      1  0.4330330000000  0.4719030000000  0.4399520000000 1.0
C      1  0.4751050000000  0.5231360000000  0.5883750000000 1.0
C      1  0.4623700000000  0.4693560000000  0.5110830000000 1.0
C      1  0.4598500000000  0.5345140000000  0.5666450000000 1.0
C      1  0.4894520000000  0.5737040000000  0.5367320000000 1.0
C      1  0.4775340000000  0.4513470000000  0.4865220000000 1.0
C      1  0.4452790000000  0.5176110000000  0.5239400000000 1.0
C      1  0.4153110000000  0.5292620000000  0.5001650000000 1.0
C      1  0.5372700000000  0.5548760000000  0.5419950000000 1.0
C      1  0.5083080000000  0.4326350000000  0.5065160000000 1.0
C      1  0.5089070000000  0.5540960000000  0.5804870000000 1.0
C      1  0.4639880000000  0.4861870000000  0.5593450000000 1.0
C      1  0.5180680000000  0.5784120000000  0.4658940000000 1.0
C      1  0.5246030000000  0.4444950000000  0.5536130000000 1.0
C      1  0.5039650000000  0.4002950000000  0.4969080000000 1.0
C      1  0.4025550000000  0.5022370000000  0.5028110000000 1.0
C      1  0.4441990000000  0.4631310000000  0.5687400000000 1.0
C      1  0.4909520000000  0.4494620000000  0.5548840000000 1.0
C      1  0.5199360000000  0.4849940000000  0.5210530000000 1.0
C      1  0.4555290000000  0.5540100000000  0.4421070000000 1.0
C      1  0.5246840000000  0.5125900000000  0.5015710000000 1.0
C      1  0.4602320000000  0.4731000000000  0.4716430000000 1.0
C      1  0.5179960000000  0.5150470000000  0.4682570000000 1.0
C      1  0.4207700000000  0.4992850000000  0.4550290000000 1.0
C      1  0.4400090000000  0.4485970000000  0.4637340000000 1.0
C      1  0.4297130000000  0.4622090000000  0.5179710000000 1.0
C      1  0.4743650000000  0.5153890000000  0.4642360000000 1.0
C      1  0.5836270000000  0.4811470000000  0.4750020000000 1.0
C      1  0.5694640000000  0.5467790000000  0.5765510000000 1.0
C      1  0.5197180000000  0.5267230000000  0.5494470000000 1.0
C      1  0.4046870000000  0.4860470000000  0.4797660000000 1.0
C      1  0.5283910000000  0.5739630000000  0.4979850000000 1.0
C      1  0.5801230000000  0.4556500000000  0.5266020000000 1.0
C      1  0.4842820000000  0.5398420000000  0.5168550000000 1.0
C      1  0.5514560000000  0.4550930000000  0.4388770000000 1.0
C      1  0.5406180000000  0.5994420000000  0.5075980000000 1.0
C      1  0.5442660000000  0.4677590000000  0.5069780000000 1.0
C      1  0.5424510000000  0.4278420000000  0.5079140000000 1.0
C      1  0.4633140000000  0.5523810000000  0.4094410000000 1.0
C      1  0.5738150000000  0.5351950000000  0.4790800000000 1.0
C      1  0.4576600000000  0.5523570000000  0.4752790000000 1.0
C      1  0.5669710000000  0.5286430000000  0.4525810000000 1.0
C      1  0.5166460000000  0.5042300000000  0.4146290000000 1.0
C      1  0.5875420000000  0.5096210000000  0.4931790000000 1.0
C      1  0.4791810000000  0.5752440000000  0.4302130000000 1.0
C      1  0.4430600000000  0.4964040000000  0.4796150000000 1.0
C      1  0.4403180000000  0.4271190000000  0.4901240000000 1.0
C      1  0.4918050000000  0.4223250000000  0.5344180000000 1.0
C      1  0.5428580000000  0.5073150000000  0.5504530000000 1.0
C      1  0.4340860000000  0.5496670000000  0.5198580000000 1.0
C      1  0.5737730000000  0.5038120000000  0.4437140000000 1.0
C      1  0.4525540000000  0.4979160000000  0.4300290000000 1.0
C      1  0.4320110000000  0.4471930000000  0.5474510000000 1.0
C      1  0.5604610000000  0.5647220000000  0.5583070000000 1.0
C      1  0.5309550000000  0.4798040000000  0.4276820000000 1.0
C      1  0.4200900000000  0.5408930000000  0.4678230000000 1.0
C      1  0.5470170000000  0.4977680000000  0.5889910000000 1.0
C      1  0.4715890000000  0.4956060000000  0.5972360000000 1.0
C      1  0.4789750000000  0.5763100000000  0.4866170000000 1.0
C      1  0.4629100000000  0.5524370000000  0.5378940000000 1.0
C      1  0.4651510000000  0.4244980000000  0.5126870000000 1.0
C      1  0.4930070000000  0.4865020000000  0.5417890000000 1.0
C      1  0.5753840000000  0.5244300000000  0.5190130000000 1.0
C      1  0.5466670000000  0.5322010000000  0.5187270000000 1.0
C      1  0.5368220000000  0.5336560000000  0.4476620000000 1.0
C      1  0.5288650000000  0.5290140000000  0.4191460000000 1.0
C      1  0.5590050000000  0.4894260000000  0.5282610000000 1.0
C      1  0.5168510000000  0.5441410000000  0.5095520000000 1.0
C      1  0.5416300000000  0.4258770000000  0.6049990000000 1.0
C      1  0.5251760000000  0.4158190000000  0.5346190000000 1.0
C      1  0.5514280000000  0.4468750000000  0.5328400000000 1.0
C      1  0.4867690000000  0.4259220000000  0.4570780000000 1.0
C      1  0.4831160000000  0.5010490000000  0.4200470000000 1.0
C      1  0.5544870000000  0.4348240000000  0.4818550000000 1.0
C      1  0.5552130000000  0.4826670000000  0.4584170000000 1.0
C      1  0.4469860000000  0.5245630000000  0.4917250000000 1.0
C      1  0.4899940000000  0.4745240000000  0.5778910000000 1.0
C      1  0.5351220000000  0.4618300000000  0.4746550000000 1.0
C      1  0.5029870000000  0.5269810000000  0.5852380000000 1.0
C      1  0.4183120000000  0.4616190000000  0.4864620000000 1.0
C      1  0.4866300000000  0.4498520000000  0.4253370000000 1.0
C      1  0.5819740000000  0.4541050000000  0.4547490000000 1.0
C      1  0.5562480000000  0.5565760000000  0.4885230000000 1.0
C      1  0.5280350000000  0.4347870000000  0.4430330000000 1.0
C      1  0.5411720000000  0.5607420000000  0.4625360000000 1.0
C      1  0.5825910000000  0.4790930000000  0.5075930000000 1.0
C      1  0.4965760000000  0.5786100000000  0.5090730000000 1.0
C      1  0.4785160000000  0.4172930000000  0.4851690000000 1.0
C      1  0.4955110000000  0.5619110000000  0.4035370000000 1.0
C      1  0.5100540000000  0.5651970000000  0.5542030000000 1.0
C      1  0.5296930000000  0.4779360000000  0.5528680000000 1.0
C      1  0.4847500000000  0.5361500000000  0.4874790000000 1.0
C      1  0.5708420000000  0.5895740000000  0.5535520000000 1.0
C      1  0.5107710000000  0.4830870000000  0.4638170000000 1.0
C      1  0.4714640000000  0.5021410000000  0.5137490000000 1.0
C      1  0.5340670000000  0.4342150000000  0.5821010000000 1.0
C      1  0.4979270000000  0.4760070000000  0.4348140000000 1.0
END
