TITL C-2848500-1637-287 -0.000446331583837795 125000 -195.956904434246 0 0 39 (C1) n - 1
REM
REM in /home/bkarasulu/work/CARBON/AIRSS/Generating-Clusters/AIREBO/with-SteepDescent/Only-C1/SD-CG-opt/Try1-1.4A-POS3A/HFTN-CG
REM
REM
REM
REM
REM
REM ./C.cell (11c1c37f851c82e70ff6c80c92926a4b)
REM
REM compiler GCC version 9.2.1 20190827 (Red Hat 9.2.1-1)
REM options -cpp -mtune=generic -march=x86-64 -g -O0 -fpre-include=/usr/include/finclude/math-vector-fortran.h
REM seed -830044220 472513854 1183569578 -230949883 -1191618045 -1108760463 -1121146336 -723418740 -427315331 -259198629 1414815932 -502592627 512555278 1004668257 -170314910 867181424 -1006474990 1832942531 -1858247339 729230126 -1341800681 1503699626 669307252 227062822 -1041177716 349583369 -596216474 1556416089 1363048454 -1689708542 921413523 -566525895 -1532320446
REM
CELL 1.54180   50.00000   50.00000   50.00000   90.00000   90.00000   90.00000
LATT -1
SFAC C  
C      1  0.4656410000000  0.4414530000000  0.5077040000000 1.0
C      1  0.5590390000000  0.4917270000000  0.5087100000000 1.0
C      1  0.4364530000000  0.4895400000000  0.4958750000000 1.0
C      1  0.5640340000000  0.4744630000000  0.5366850000000 1.0
C      1  0.5453260000000  0.4464470000000  0.4954450000000 1.0
C      1  0.5231540000000  0.4463940000000  0.5186080000000 1.0
C      1  0.5464950000000  0.5172700000000  0.4931110000000 1.0
C      1  0.5298610000000  0.5399800000000  0.5585520000000 1.0
C      1  0.4794230000000  0.4660240000000  0.4219660000000 1.0
C      1  0.4524910000000  0.4650550000000  0.5104370000000 1.0
C      1  0.5299270000000  0.5065690000000  0.5621710000000 1.0
C      1  0.5333750000000  0.5313570000000  0.5282380000000 1.0
C      1  0.4707840000000  0.5583050000000  0.4738420000000 1.0
C      1  0.4954410000000  0.5446290000000  0.4928210000000 1.0
C      1  0.4999390000000  0.5301420000000  0.5519880000000 1.0
C      1  0.4572910000000  0.5083530000000  0.4776310000000 1.0
C      1  0.4924320000000  0.5274400000000  0.5220530000000 1.0
C      1  0.4873400000000  0.4395030000000  0.4837870000000 1.0
C      1  0.4765510000000  0.5796890000000  0.4569970000000 1.0
C      1  0.4625340000000  0.5645570000000  0.5037110000000 1.0
C      1  0.4575200000000  0.5268620000000  0.4330870000000 1.0
C      1  0.5047120000000  0.4659270000000  0.4977650000000 1.0
C      1  0.4957740000000  0.4309330000000  0.5145480000000 1.0
C      1  0.5322590000000  0.4973820000000  0.5290550000000 1.0
C      1  0.5048000000000  0.4680340000000  0.4635420000000 1.0
C      1  0.4876550000000  0.4787060000000  0.4447720000000 1.0
C      1  0.5165210000000  0.5081280000000  0.4853970000000 1.0
C      1  0.4974720000000  0.5239620000000  0.4673660000000 1.0
C      1  0.5347170000000  0.4650950000000  0.5394450000000 1.0
C      1  0.4692910000000  0.4932840000000  0.5046190000000 1.0
C      1  0.5500340000000  0.4718630000000  0.4861450000000 1.0
C      1  0.4673930000000  0.5474300000000  0.5212010000000 1.0
C      1  0.5243110000000  0.5469260000000  0.5080420000000 1.0
C      1  0.4776170000000  0.5060560000000  0.4511580000000 1.0
C      1  0.5019820000000  0.4959050000000  0.5136050000000 1.0
C      1  0.4541750000000  0.5361570000000  0.4621300000000 1.0
C      1  0.4980950000000  0.5013890000000  0.5637520000000 1.0
C      1  0.5293320000000  0.4831720000000  0.4714670000000 1.0
C      1  0.4888100000000  0.4838920000000  0.5425710000000 1.0
END
