TITL C-2847947-6848-147 -0.000212840005777254 125000 -185.156126930161 0 0 34 (C1) n - 1
REM
REM in /home/bkarasulu/work/CARBON/AIRSS/Generating-Clusters/AIREBO/with-SteepDescent/Only-C1/SD-CG-opt/Try1-1.4A-POS3A/HFTN-CG
REM
REM
REM
REM
REM
REM ./C.cell (11c1c37f851c82e70ff6c80c92926a4b)
REM
REM compiler GCC version 9.2.1 20190827 (Red Hat 9.2.1-1)
REM options -cpp -mtune=generic -march=x86-64 -g -O0 -fpre-include=/usr/include/finclude/math-vector-fortran.h
REM seed -587501335 795458184 1057281949 -1617211854 -2117713599 327416808 -146592704 -1707386545 -840269123 -249735222 -484570355 -1730576095 -196389991 934051080 -373932822 -366027308 -1763352791 -112951682 1770218419 -880177238 -841014687 -1102905461 -2033374804 -575863334 563950355 707601787 -445870821 -1071017583 496468083 -1738908681 516736972 -1233244651 -1392861129
REM
CELL 1.54180   50.00000   50.00000   50.00000   90.00000   90.00000   90.00000
LATT -1
SFAC C  
C      1  0.5569730000000  0.5066590000000  0.4929830000000 1.0
C      1  0.5077130000000  0.4012530000000  0.5206270000000 1.0
C      1  0.4848110000000  0.4510910000000  0.4614860000000 1.0
C      1  0.5564670000000  0.4602410000000  0.5092040000000 1.0
C      1  0.5017430000000  0.3767450000000  0.5273210000000 1.0
C      1  0.5210930000000  0.4773100000000  0.5222330000000 1.0
C      1  0.4633740000000  0.4758350000000  0.4648580000000 1.0
C      1  0.4508200000000  0.5530050000000  0.5061920000000 1.0
C      1  0.5820650000000  0.5121500000000  0.5155920000000 1.0
C      1  0.5364310000000  0.4523490000000  0.5299230000000 1.0
C      1  0.4426110000000  0.5048320000000  0.4944810000000 1.0
C      1  0.5121630000000  0.5355610000000  0.4923030000000 1.0
C      1  0.5019580000000  0.4472940000000  0.4830280000000 1.0
C      1  0.4598630000000  0.5745620000000  0.4910530000000 1.0
C      1  0.5231650000000  0.4285300000000  0.5259830000000 1.0
C      1  0.4647990000000  0.5336140000000  0.5474160000000 1.0
C      1  0.4887830000000  0.4786920000000  0.4428580000000 1.0
C      1  0.5258940000000  0.5041190000000  0.5301140000000 1.0
C      1  0.5136830000000  0.4752920000000  0.4907580000000 1.0
C      1  0.5460260000000  0.4782120000000  0.4909740000000 1.0
C      1  0.4451070000000  0.5542600000000  0.5336500000000 1.0
C      1  0.5081780000000  0.5663270000000  0.4916370000000 1.0
C      1  0.4926260000000  0.4915840000000  0.4740880000000 1.0
C      1  0.5521470000000  0.5121210000000  0.5249540000000 1.0
C      1  0.4871740000000  0.5214060000000  0.4787510000000 1.0
C      1  0.4372430000000  0.5418970000000  0.5627800000000 1.0
C      1  0.5062340000000  0.4261010000000  0.4994600000000 1.0
C      1  0.4625750000000  0.5240960000000  0.4989790000000 1.0
C      1  0.4756440000000  0.5455180000000  0.4291280000000 1.0
C      1  0.4808760000000  0.5348450000000  0.4517130000000 1.0
C      1  0.4861890000000  0.5819780000000  0.4891460000000 1.0
C      1  0.5065820000000  0.5223640000000  0.5208600000000 1.0
C      1  0.4794870000000  0.5223900000000  0.5264950000000 1.0
C      1  0.5395050000000  0.5277640000000  0.4789740000000 1.0
END
