TITL C-2847947-6848-216 -9.93434495783883e-05 125000 -1045.01744163984 0 0 191 (C1) n - 1
REM
REM in /home/bkarasulu/work/CARBON/AIRSS/Generating-Clusters/AIREBO/with-SteepDescent/Only-C1/SD-CG-opt/Try1-1.4A-POS3A/HFTN-CG
REM
REM
REM
REM
REM
REM ./C.cell (11c1c37f851c82e70ff6c80c92926a4b)
REM
REM compiler GCC version 9.2.1 20190827 (Red Hat 9.2.1-1)
REM options -cpp -mtune=generic -march=x86-64 -g -O0 -fpre-include=/usr/include/finclude/math-vector-fortran.h
REM seed -833715726 1422414561 -2132816041 -161749858 662445894 -544845780 -963946181 -850008883 94576343 -744469211 -324416336 1771971198 -1471159511 -1119233403 -1170581474 -749988884 -1083116735 -658713273 -966624628 -107810055 -2064165441 573669126 1893515291 2087078688 1224697358 465051670 366913446 -1803249413 -976585692 382988730 -1019211193 804514311 -1610482444
REM
CELL 1.54180   50.00000   50.00000   50.00000   90.00000   90.00000   90.00000
LATT -1
SFAC C  
C      1  0.5345200000000  0.4292770000000  0.5457550000000 1.0
C      1  0.5882070000000  0.5687740000000  0.5177560000000 1.0
C      1  0.4730770000000  0.5581560000000  0.5819220000000 1.0
C      1  0.5252230000000  0.4678640000000  0.5796210000000 1.0
C      1  0.4259310000000  0.4711260000000  0.4316230000000 1.0
C      1  0.4143050000000  0.4846140000000  0.5018090000000 1.0
C      1  0.4582850000000  0.3940530000000  0.5177790000000 1.0
C      1  0.5073060000000  0.6070830000000  0.5441010000000 1.0
C      1  0.5630920000000  0.5268930000000  0.5106680000000 1.0
C      1  0.5458810000000  0.5186620000000  0.5811900000000 1.0
C      1  0.4659670000000  0.5275190000000  0.5763920000000 1.0
C      1  0.4176630000000  0.5690120000000  0.5102770000000 1.0
C      1  0.4312170000000  0.5729240000000  0.5378350000000 1.0
C      1  0.5267080000000  0.4037460000000  0.5046290000000 1.0
C      1  0.5533670000000  0.4153340000000  0.5781610000000 1.0
C      1  0.3831990000000  0.5416540000000  0.5613570000000 1.0
C      1  0.4813630000000  0.3762760000000  0.5002380000000 1.0
C      1  0.4825990000000  0.5849450000000  0.5660330000000 1.0
C      1  0.4702510000000  0.5232890000000  0.4550780000000 1.0
C      1  0.4648850000000  0.5509140000000  0.5015690000000 1.0
C      1  0.4073730000000  0.5448070000000  0.5007380000000 1.0
C      1  0.5591470000000  0.4418770000000  0.5259020000000 1.0
C      1  0.5262320000000  0.5050810000000  0.4041670000000 1.0
C      1  0.4870640000000  0.5471890000000  0.4671230000000 1.0
C      1  0.4667640000000  0.4302470000000  0.5773110000000 1.0
C      1  0.4639110000000  0.5794490000000  0.5311070000000 1.0
C      1  0.5135910000000  0.5966420000000  0.4604660000000 1.0
C      1  0.5596130000000  0.5467870000000  0.5944730000000 1.0
C      1  0.5257440000000  0.5552300000000  0.4644050000000 1.0
C      1  0.5378130000000  0.4806470000000  0.4485910000000 1.0
C      1  0.4676390000000  0.4744750000000  0.4559060000000 1.0
C      1  0.6045220000000  0.4556960000000  0.4753880000000 1.0
C      1  0.4738570000000  0.4909930000000  0.4267890000000 1.0
C      1  0.5345170000000  0.4833830000000  0.4976440000000 1.0
C      1  0.5521940000000  0.5233480000000  0.6144290000000 1.0
C      1  0.4614590000000  0.4901430000000  0.5897380000000 1.0
C      1  0.5288600000000  0.6237580000000  0.5313120000000 1.0
C      1  0.5587500000000  0.5865340000000  0.4720300000000 1.0
C      1  0.4473800000000  0.5693560000000  0.4340280000000 1.0
C      1  0.4282060000000  0.4797960000000  0.4578920000000 1.0
C      1  0.4399580000000  0.4410150000000  0.5253360000000 1.0
C      1  0.4395970000000  0.4862670000000  0.5405090000000 1.0
C      1  0.4814590000000  0.3751570000000  0.5342200000000 1.0
C      1  0.5319800000000  0.4017580000000  0.5630110000000 1.0
C      1  0.5153880000000  0.4539550000000  0.5366760000000 1.0
C      1  0.5311490000000  0.4279900000000  0.4361590000000 1.0
C      1  0.5530640000000  0.4110170000000  0.5013130000000 1.0
C      1  0.5540310000000  0.4619680000000  0.4125360000000 1.0
C      1  0.4079820000000  0.5340820000000  0.5702340000000 1.0
C      1  0.4305310000000  0.4903270000000  0.5869940000000 1.0
C      1  0.5183620000000  0.4610660000000  0.4621380000000 1.0
C      1  0.4885540000000  0.4185810000000  0.4717830000000 1.0
C      1  0.5790710000000  0.4390980000000  0.4411720000000 1.0
C      1  0.5030270000000  0.4964520000000  0.4377820000000 1.0
C      1  0.4886300000000  0.4636790000000  0.4016560000000 1.0
C      1  0.5474120000000  0.5766300000000  0.5540280000000 1.0
C      1  0.4685180000000  0.5172150000000  0.5044240000000 1.0
C      1  0.4784880000000  0.4698650000000  0.5070230000000 1.0
C      1  0.5673250000000  0.5509870000000  0.5641320000000 1.0
C      1  0.4850960000000  0.5345310000000  0.5491110000000 1.0
C      1  0.3981600000000  0.4602340000000  0.4844470000000 1.0
C      1  0.5923800000000  0.4462780000000  0.4997280000000 1.0
C      1  0.4707720000000  0.5755750000000  0.4579070000000 1.0
C      1  0.4729310000000  0.5525160000000  0.4190170000000 1.0
C      1  0.5661320000000  0.5040480000000  0.5645250000000 1.0
C      1  0.4098270000000  0.5165270000000  0.5130050000000 1.0
C      1  0.5070510000000  0.5032580000000  0.4767890000000 1.0
C      1  0.4045240000000  0.4300970000000  0.4471840000000 1.0
C      1  0.5535140000000  0.4421640000000  0.4914580000000 1.0
C      1  0.4660070000000  0.6011530000000  0.4798020000000 1.0
C      1  0.4125580000000  0.5168310000000  0.5906950000000 1.0
C      1  0.4610690000000  0.4582030000000  0.4085050000000 1.0
C      1  0.4930680000000  0.5285240000000  0.4324200000000 1.0
C      1  0.4948820000000  0.3994620000000  0.5918600000000 1.0
C      1  0.4250280000000  0.4174620000000  0.4898910000000 1.0
C      1  0.4772010000000  0.4770990000000  0.5679270000000 1.0
C      1  0.4463210000000  0.5623400000000  0.4774830000000 1.0
C      1  0.4657930000000  0.4204880000000  0.4534110000000 1.0
C      1  0.4733750000000  0.3505250000000  0.4865790000000 1.0
C      1  0.4886860000000  0.4405960000000  0.4939430000000 1.0
C      1  0.4446400000000  0.4717100000000  0.5101740000000 1.0
C      1  0.5136040000000  0.4162510000000  0.5953630000000 1.0
C      1  0.5573230000000  0.4368700000000  0.4243420000000 1.0
C      1  0.4773180000000  0.5167780000000  0.3840270000000 1.0
C      1  0.4938830000000  0.4953300000000  0.3995800000000 1.0
C      1  0.5745800000000  0.5039480000000  0.4089860000000 1.0
C      1  0.5173580000000  0.5453200000000  0.5493050000000 1.0
C      1  0.4438540000000  0.4865420000000  0.4113840000000 1.0
C      1  0.4994700000000  0.5443270000000  0.5900230000000 1.0
C      1  0.5282310000000  0.5099450000000  0.4536150000000 1.0
C      1  0.3857940000000  0.5217860000000  0.4660700000000 1.0
C      1  0.4949810000000  0.5844870000000  0.5251740000000 1.0
C      1  0.5878990000000  0.5755960000000  0.4742470000000 1.0
C      1  0.5058380000000  0.3878310000000  0.5552400000000 1.0
C      1  0.4939790000000  0.5885980000000  0.4414810000000 1.0
C      1  0.5169900000000  0.4385370000000  0.5734260000000 1.0
C      1  0.4951550000000  0.4042860000000  0.5290630000000 1.0
C      1  0.4015220000000  0.5429480000000  0.4728180000000 1.0
C      1  0.4551180000000  0.4577920000000  0.5507300000000 1.0
C      1  0.4245560000000  0.4419600000000  0.4312820000000 1.0
C      1  0.4257990000000  0.5504130000000  0.4531380000000 1.0
C      1  0.4398420000000  0.4419920000000  0.5766740000000 1.0
C      1  0.4409330000000  0.5116790000000  0.5630910000000 1.0
C      1  0.5679870000000  0.4395920000000  0.5769780000000 1.0
C      1  0.4100920000000  0.4708060000000  0.5474140000000 1.0
C      1  0.5418960000000  0.6161450000000  0.5113740000000 1.0
C      1  0.4748120000000  0.6128740000000  0.5499990000000 1.0
C      1  0.6051370000000  0.5423220000000  0.5120090000000 1.0
C      1  0.4736240000000  0.4245240000000  0.5385460000000 1.0
C      1  0.4822360000000  0.5791480000000  0.4956950000000 1.0
C      1  0.4333420000000  0.5430970000000  0.5540220000000 1.0
C      1  0.5340920000000  0.4365140000000  0.4684960000000 1.0
C      1  0.4445070000000  0.4620970000000  0.4775420000000 1.0
C      1  0.3836230000000  0.4664270000000  0.5431420000000 1.0
C      1  0.6240180000000  0.5034640000000  0.5301830000000 1.0
C      1  0.5503410000000  0.6028900000000  0.4262820000000 1.0
C      1  0.5555160000000  0.4754270000000  0.5217250000000 1.0
C      1  0.5841730000000  0.5112260000000  0.4925320000000 1.0
C      1  0.4288640000000  0.5887690000000  0.4875450000000 1.0
C      1  0.5445070000000  0.5873110000000  0.5004590000000 1.0
C      1  0.4765740000000  0.4026200000000  0.5643900000000 1.0
C      1  0.5598890000000  0.5388510000000  0.4386510000000 1.0
C      1  0.4596250000000  0.6121050000000  0.5241080000000 1.0
C      1  0.4697830000000  0.4987420000000  0.5329530000000 1.0
C      1  0.4872780000000  0.4489380000000  0.5741690000000 1.0
C      1  0.4387980000000  0.4148320000000  0.5150890000000 1.0
C      1  0.5807030000000  0.4485970000000  0.5497650000000 1.0
C      1  0.5574980000000  0.5699350000000  0.5222500000000 1.0
C      1  0.4780000000000  0.5104840000000  0.6019500000000 1.0
C      1  0.5398870000000  0.6027890000000  0.4534220000000 1.0
C      1  0.4136810000000  0.5380970000000  0.4234590000000 1.0
C      1  0.4982440000000  0.5233100000000  0.5198220000000 1.0
C      1  0.5744120000000  0.4791620000000  0.4218910000000 1.0
C      1  0.5145270000000  0.5199220000000  0.5717380000000 1.0
C      1  0.5482460000000  0.5410150000000  0.5378130000000 1.0
C      1  0.4748050000000  0.4071990000000  0.4261990000000 1.0
C      1  0.6141870000000  0.4828340000000  0.4781140000000 1.0
C      1  0.4604380000000  0.5463970000000  0.5340520000000 1.0
C      1  0.4498130000000  0.5752500000000  0.5662290000000 1.0
C      1  0.5886680000000  0.5271500000000  0.5556330000000 1.0
C      1  0.5912720000000  0.5489630000000  0.4814880000000 1.0
C      1  0.4427680000000  0.4322300000000  0.4714230000000 1.0
C      1  0.4947440000000  0.4151710000000  0.4130960000000 1.0
C      1  0.5090440000000  0.4436280000000  0.4156630000000 1.0
C      1  0.4214740000000  0.4650480000000  0.5741800000000 1.0
C      1  0.5504010000000  0.5196230000000  0.4122430000000 1.0
C      1  0.6091530000000  0.5264530000000  0.5369740000000 1.0
C      1  0.4761730000000  0.5011320000000  0.4752390000000 1.0
C      1  0.4466010000000  0.6126190000000  0.4996230000000 1.0
C      1  0.4423190000000  0.5227070000000  0.4466470000000 1.0
C      1  0.5844470000000  0.4793500000000  0.5044510000000 1.0
C      1  0.4031210000000  0.4341800000000  0.4757320000000 1.0
C      1  0.4389370000000  0.5169770000000  0.4149700000000 1.0
C      1  0.4840610000000  0.4539490000000  0.5339620000000 1.0
C      1  0.5152260000000  0.5779000000000  0.5587400000000 1.0
C      1  0.5138940000000  0.5333970000000  0.4829140000000 1.0
C      1  0.5980440000000  0.5011530000000  0.4564720000000 1.0
C      1  0.5220410000000  0.5612670000000  0.4146760000000 1.0
C      1  0.6290010000000  0.5147950000000  0.4598920000000 1.0
C      1  0.5024500000000  0.3924980000000  0.4864480000000 1.0
C      1  0.5626750000000  0.5722740000000  0.4413200000000 1.0
C      1  0.4359100000000  0.5173160000000  0.4954080000000 1.0
C      1  0.4927090000000  0.4586440000000  0.4680300000000 1.0
C      1  0.5232820000000  0.4743880000000  0.4184970000000 1.0
C      1  0.5259100000000  0.5387620000000  0.4372950000000 1.0
C      1  0.5175980000000  0.4086310000000  0.4602990000000 1.0
C      1  0.4305480000000  0.5900150000000  0.4535950000000 1.0
C      1  0.5816130000000  0.4213620000000  0.5107100000000 1.0
C      1  0.5353920000000  0.4785340000000  0.5489750000000 1.0
C      1  0.5553200000000  0.4705650000000  0.4738740000000 1.0
C      1  0.6163890000000  0.4905300000000  0.5068670000000 1.0
C      1  0.5243150000000  0.5075700000000  0.5349720000000 1.0
C      1  0.5081170000000  0.5553170000000  0.5136520000000 1.0
C      1  0.5641630000000  0.5047690000000  0.5335890000000 1.0
C      1  0.4575730000000  0.4475530000000  0.4377000000000 1.0
C      1  0.5083630000000  0.4288140000000  0.5148840000000 1.0
C      1  0.5455300000000  0.5757590000000  0.4125350000000 1.0
C      1  0.4247040000000  0.5083190000000  0.4680160000000 1.0
C      1  0.4976930000000  0.4970980000000  0.5527520000000 1.0
C      1  0.5775260000000  0.5252490000000  0.4614350000000 1.0
C      1  0.5052930000000  0.5050700000000  0.5998500000000 1.0
C      1  0.5637710000000  0.4720060000000  0.5665720000000 1.0
C      1  0.5151050000000  0.5761050000000  0.4875350000000 1.0
C      1  0.4602680000000  0.5322570000000  0.3994600000000 1.0
C      1  0.3952400000000  0.4927670000000  0.4748580000000 1.0
C      1  0.5829260000000  0.4704880000000  0.4536870000000 1.0
C      1  0.6142080000000  0.5248630000000  0.4842790000000 1.0
C      1  0.5210480000000  0.4820150000000  0.6020670000000 1.0
C      1  0.5338520000000  0.5161560000000  0.5034690000000 1.0
C      1  0.5018700000000  0.4924740000000  0.5058710000000 1.0
C      1  0.4968440000000  0.5729320000000  0.4181950000000 1.0
END
