TITL C-2847950-6905-328 -0.000452376994083104 125000 -403.396311663476 0 0 75 (C1) n - 1
REM
REM in /home/bkarasulu/work/CARBON/AIRSS/Generating-Clusters/AIREBO/with-SteepDescent/Only-C1/SD-CG-opt/Try1-1.4A-POS3A/HFTN-CG
REM
REM
REM
REM
REM
REM ./C.cell (11c1c37f851c82e70ff6c80c92926a4b)
REM
REM compiler GCC version 9.2.1 20190827 (Red Hat 9.2.1-1)
REM options -cpp -mtune=generic -march=x86-64 -g -O0 -fpre-include=/usr/include/finclude/math-vector-fortran.h
REM seed -443837879 -755464367 153161919 606522506 -823967628 702632038 565596385 143498673 -875850544 2080034075 -2021781990 -1332494760 202906449 1559880099 1945839314 -1959576009 183369493 -2036054426 -517865888 -1528244978 -454177510 1931925796 -898816486 -1070265248 240223910 1902698530 962620870 -1513991039 -2129411809 -771493341 -578631398 828415201 518445176
REM
CELL 1.54180   50.00000   50.00000   50.00000   90.00000   90.00000   90.00000
LATT -1
SFAC C  
C      1  0.5460070000000  0.5201290000000  0.5562950000000 1.0
C      1  0.5471070000000  0.4801930000000  0.4787040000000 1.0
C      1  0.4889080000000  0.4848860000000  0.4624980000000 1.0
C      1  0.4735450000000  0.5693000000000  0.4807070000000 1.0
C      1  0.5022930000000  0.5555550000000  0.5441790000000 1.0
C      1  0.5333630000000  0.5359070000000  0.4179340000000 1.0
C      1  0.5724500000000  0.5277780000000  0.4988770000000 1.0
C      1  0.4639170000000  0.5310250000000  0.4780210000000 1.0
C      1  0.4767510000000  0.4912720000000  0.4905770000000 1.0
C      1  0.4631990000000  0.5426140000000  0.4276560000000 1.0
C      1  0.5048900000000  0.4579830000000  0.5028090000000 1.0
C      1  0.5658570000000  0.5074570000000  0.5157840000000 1.0
C      1  0.5120740000000  0.5087990000000  0.4554870000000 1.0
C      1  0.5487230000000  0.4292160000000  0.4619670000000 1.0
C      1  0.5254000000000  0.5333210000000  0.5326830000000 1.0
C      1  0.5362230000000  0.5067970000000  0.4723970000000 1.0
C      1  0.4273340000000  0.5000720000000  0.4523660000000 1.0
C      1  0.4532080000000  0.4463750000000  0.4939680000000 1.0
C      1  0.5318040000000  0.4022370000000  0.4500530000000 1.0
C      1  0.5583880000000  0.5296700000000  0.4753820000000 1.0
C      1  0.4201670000000  0.5186010000000  0.4705760000000 1.0
C      1  0.4675310000000  0.4636430000000  0.4467560000000 1.0
C      1  0.4645900000000  0.4881480000000  0.5222440000000 1.0
C      1  0.4375080000000  0.5301670000000  0.4940850000000 1.0
C      1  0.4715850000000  0.5199700000000  0.4134200000000 1.0
C      1  0.5181800000000  0.4218550000000  0.4745030000000 1.0
C      1  0.4615740000000  0.5543480000000  0.4533920000000 1.0
C      1  0.5237020000000  0.5596990000000  0.4282280000000 1.0
C      1  0.4837250000000  0.5154260000000  0.5651840000000 1.0
C      1  0.5194120000000  0.5128780000000  0.4252870000000 1.0
C      1  0.4433270000000  0.5457660000000  0.5755030000000 1.0
C      1  0.4721160000000  0.5540800000000  0.5329810000000 1.0
C      1  0.5445160000000  0.4604750000000  0.5063210000000 1.0
C      1  0.5037540000000  0.5164350000000  0.5832040000000 1.0
C      1  0.4246390000000  0.5185870000000  0.5230200000000 1.0
C      1  0.4935600000000  0.5016170000000  0.4138670000000 1.0
C      1  0.5296630000000  0.5063080000000  0.5784140000000 1.0
C      1  0.5365220000000  0.5575190000000  0.5127740000000 1.0
C      1  0.4747590000000  0.4497460000000  0.4235090000000 1.0
C      1  0.5096990000000  0.5745260000000  0.5607430000000 1.0
C      1  0.5152110000000  0.4889720000000  0.5011210000000 1.0
C      1  0.4937230000000  0.5322840000000  0.4612740000000 1.0
C      1  0.4605890000000  0.5325340000000  0.5540350000000 1.0
C      1  0.5731920000000  0.4680010000000  0.5329440000000 1.0
C      1  0.5297990000000  0.4696850000000  0.4351040000000 1.0
C      1  0.4840380000000  0.4894790000000  0.5479760000000 1.0
C      1  0.4716780000000  0.4465390000000  0.4724740000000 1.0
C      1  0.4151010000000  0.5463490000000  0.5326450000000 1.0
C      1  0.5757470000000  0.4648740000000  0.4817320000000 1.0
C      1  0.4398630000000  0.4773830000000  0.4457980000000 1.0
C      1  0.5098530000000  0.5039580000000  0.5371600000000 1.0
C      1  0.4899500000000  0.4505080000000  0.5256820000000 1.0
C      1  0.4928390000000  0.5132670000000  0.5092220000000 1.0
C      1  0.4712850000000  0.5773900000000  0.5082330000000 1.0
C      1  0.4918660000000  0.5432220000000  0.4930680000000 1.0
C      1  0.5266650000000  0.4557150000000  0.5584390000000 1.0
C      1  0.4620530000000  0.4567870000000  0.5187490000000 1.0
C      1  0.5434770000000  0.4310020000000  0.4950290000000 1.0
C      1  0.5545040000000  0.4581780000000  0.4553020000000 1.0
C      1  0.4780040000000  0.4664960000000  0.5686560000000 1.0
C      1  0.4414400000000  0.5539180000000  0.5183010000000 1.0
C      1  0.5353270000000  0.4760750000000  0.5787660000000 1.0
C      1  0.4987850000000  0.4526000000000  0.5525190000000 1.0
C      1  0.4980210000000  0.4422650000000  0.4803070000000 1.0
C      1  0.5030940000000  0.4773660000000  0.4326710000000 1.0
C      1  0.5017050000000  0.5579100000000  0.4445910000000 1.0
C      1  0.5464070000000  0.4516530000000  0.5391050000000 1.0
C      1  0.5553930000000  0.4873820000000  0.5545660000000 1.0
C      1  0.5393130000000  0.4883530000000  0.5251060000000 1.0
C      1  0.4521260000000  0.4701090000000  0.5786270000000 1.0
C      1  0.4356670000000  0.4871930000000  0.5643120000000 1.0
C      1  0.5199610000000  0.5614160000000  0.4938990000000 1.0
C      1  0.5852810000000  0.4650520000000  0.5073490000000 1.0
C      1  0.5304010000000  0.5194030000000  0.5020480000000 1.0
C      1  0.4456720000000  0.5063020000000  0.5408310000000 1.0
END
