TITL C-2848500-1637-732 -0.000965123992713844 125000 -486.414996587278 0 0 88 (C1) n - 1
REM
REM in /home/bkarasulu/work/CARBON/AIRSS/Generating-Clusters/AIREBO/with-SteepDescent/Only-C1/SD-CG-opt/Try1-1.4A-POS3A/HFTN-CG
REM
REM
REM
REM
REM
REM ./C.cell (11c1c37f851c82e70ff6c80c92926a4b)
REM
REM compiler GCC version 9.2.1 20190827 (Red Hat 9.2.1-1)
REM options -cpp -mtune=generic -march=x86-64 -g -O0 -fpre-include=/usr/include/finclude/math-vector-fortran.h
REM seed -140707326 -1015071976 -1539037386 820540397 -840992214 1387689004 1985775826 1052611181 944418811 998244187 426657457 -1696886893 120513247 -1915898673 1166293130 1349181564 1684910553 204777187 6890952 314558652 1574144297 15903203 1481804005 1715669979 -419258142 -1356353357 -1032113152 -1875270965 -1287282741 -1008974547 1168504848 1924307438 -1907136206
REM
CELL 1.54180   50.00000   50.00000   50.00000   90.00000   90.00000   90.00000
LATT -1
SFAC C  
C      1  0.5407840000000  0.5598490000000  0.5246680000000 1.0
C      1  0.5666530000000  0.5345140000000  0.4974830000000 1.0
C      1  0.4972720000000  0.5573620000000  0.5333000000000 1.0
C      1  0.4947580000000  0.5788030000000  0.4842660000000 1.0
C      1  0.5824840000000  0.4683270000000  0.5262300000000 1.0
C      1  0.4409510000000  0.4862230000000  0.5440680000000 1.0
C      1  0.4644560000000  0.4317180000000  0.4916090000000 1.0
C      1  0.5432290000000  0.4617310000000  0.5419250000000 1.0
C      1  0.5003420000000  0.5104240000000  0.5400630000000 1.0
C      1  0.5184890000000  0.4056080000000  0.4985630000000 1.0
C      1  0.5593720000000  0.5058250000000  0.5564370000000 1.0
C      1  0.4638970000000  0.5778230000000  0.5266400000000 1.0
C      1  0.5557600000000  0.4893570000000  0.5265450000000 1.0
C      1  0.5003870000000  0.4824720000000  0.4793070000000 1.0
C      1  0.4901890000000  0.5796620000000  0.4574940000000 1.0
C      1  0.5567560000000  0.5329130000000  0.4503370000000 1.0
C      1  0.4296760000000  0.4595580000000  0.4727470000000 1.0
C      1  0.5728950000000  0.5171060000000  0.5169120000000 1.0
C      1  0.4819440000000  0.5065630000000  0.5050460000000 1.0
C      1  0.4940440000000  0.4358860000000  0.4893830000000 1.0
C      1  0.5109520000000  0.4144530000000  0.4703370000000 1.0
C      1  0.4496560000000  0.4392140000000  0.4680560000000 1.0
C      1  0.4421300000000  0.4779010000000  0.4943140000000 1.0
C      1  0.4756560000000  0.5113850000000  0.4624930000000 1.0
C      1  0.5271250000000  0.4399510000000  0.5376090000000 1.0
C      1  0.4949730000000  0.5863860000000  0.5157390000000 1.0
C      1  0.5097400000000  0.4627440000000  0.4585660000000 1.0
C      1  0.5569240000000  0.4770860000000  0.4948360000000 1.0
C      1  0.5279710000000  0.4774490000000  0.4367950000000 1.0
C      1  0.5449270000000  0.4497200000000  0.4455580000000 1.0
C      1  0.4615910000000  0.5325650000000  0.4402820000000 1.0
C      1  0.4963520000000  0.4465790000000  0.5454700000000 1.0
C      1  0.4426750000000  0.5148300000000  0.5273470000000 1.0
C      1  0.5098640000000  0.5001180000000  0.4210870000000 1.0
C      1  0.5285260000000  0.5097380000000  0.5262540000000 1.0
C      1  0.4703170000000  0.5264970000000  0.5375350000000 1.0
C      1  0.5399290000000  0.5038290000000  0.4470920000000 1.0
C      1  0.4269040000000  0.5111260000000  0.4692590000000 1.0
C      1  0.5012950000000  0.5383690000000  0.5594320000000 1.0
C      1  0.4830770000000  0.4830450000000  0.5295860000000 1.0
C      1  0.4628390000000  0.5336660000000  0.5684290000000 1.0
C      1  0.4544210000000  0.5088490000000  0.5835140000000 1.0
C      1  0.4736110000000  0.5384450000000  0.5058720000000 1.0
C      1  0.4511100000000  0.5480340000000  0.4860450000000 1.0
C      1  0.5178570000000  0.5246590000000  0.4541310000000 1.0
C      1  0.4719330000000  0.4276560000000  0.5393080000000 1.0
C      1  0.5612480000000  0.4551680000000  0.4689840000000 1.0
C      1  0.4893820000000  0.4747290000000  0.5621990000000 1.0
C      1  0.4875150000000  0.5266860000000  0.4191610000000 1.0
C      1  0.4444090000000  0.5652600000000  0.5111050000000 1.0
C      1  0.5004550000000  0.4581470000000  0.5142770000000 1.0
C      1  0.4539130000000  0.4673170000000  0.5218620000000 1.0
C      1  0.4875880000000  0.5539170000000  0.4397370000000 1.0
C      1  0.4569500000000  0.4376550000000  0.5184000000000 1.0
C      1  0.5263670000000  0.5839390000000  0.5285940000000 1.0
C      1  0.5541260000000  0.5029750000000  0.4764110000000 1.0
C      1  0.5407240000000  0.5561440000000  0.4614400000000 1.0
C      1  0.5381090000000  0.5518380000000  0.4931730000000 1.0
C      1  0.5796020000000  0.4464480000000  0.5136780000000 1.0
C      1  0.4584010000000  0.4856720000000  0.5684690000000 1.0
C      1  0.4651490000000  0.4480120000000  0.4447260000000 1.0
C      1  0.5462130000000  0.5335380000000  0.5417030000000 1.0
C      1  0.5270010000000  0.5256940000000  0.4152410000000 1.0
C      1  0.5196680000000  0.5506190000000  0.4358120000000 1.0
C      1  0.4569020000000  0.4758220000000  0.4379530000000 1.0
C      1  0.5048710000000  0.5507900000000  0.5006770000000 1.0
C      1  0.5323200000000  0.4245790000000  0.5149550000000 1.0
C      1  0.5012970000000  0.5223630000000  0.4819760000000 1.0
C      1  0.5250300000000  0.4489310000000  0.4841870000000 1.0
C      1  0.5249140000000  0.5009930000000  0.4938850000000 1.0
C      1  0.5153300000000  0.4890910000000  0.5736390000000 1.0
C      1  0.5776730000000  0.5268190000000  0.4709120000000 1.0
C      1  0.5236540000000  0.4276910000000  0.4457860000000 1.0
C      1  0.4685850000000  0.4878950000000  0.4836610000000 1.0
C      1  0.4705990000000  0.5630840000000  0.5535960000000 1.0
C      1  0.4784100000000  0.4970960000000  0.4332370000000 1.0
C      1  0.5380630000000  0.5338720000000  0.5740750000000 1.0
C      1  0.4843570000000  0.5551000000000  0.5837130000000 1.0
C      1  0.5545490000000  0.4372720000000  0.4964590000000 1.0
C      1  0.5149360000000  0.5162560000000  0.5792740000000 1.0
C      1  0.4342250000000  0.4856550000000  0.4559600000000 1.0
C      1  0.4188700000000  0.4849940000000  0.5180770000000 1.0
C      1  0.5270250000000  0.4704070000000  0.5064510000000 1.0
C      1  0.4229690000000  0.5125640000000  0.4997230000000 1.0
C      1  0.5407760000000  0.4822650000000  0.5629220000000 1.0
C      1  0.4261500000000  0.5419360000000  0.5166340000000 1.0
C      1  0.4922400000000  0.4407150000000  0.4452600000000 1.0
C      1  0.4427390000000  0.5340350000000  0.4640470000000 1.0
END
