TITL C-2848500-1637-297 0.00210934890759249 125000 -394.023699189993 0 0 70 (C1) n - 1
REM
REM in /home/bkarasulu/work/CARBON/AIRSS/Generating-Clusters/AIREBO/with-SteepDescent/Only-C1/SD-CG-opt/Try1-1.4A-POS3A/HFTN-CG
REM
REM
REM
REM
REM
REM ./C.cell (11c1c37f851c82e70ff6c80c92926a4b)
REM
REM compiler GCC version 9.2.1 20190827 (Red Hat 9.2.1-1)
REM options -cpp -mtune=generic -march=x86-64 -g -O0 -fpre-include=/usr/include/finclude/math-vector-fortran.h
REM seed -1423948794 133424363 -1205695291 217491015 266795129 1210160650 1416788790 912334803 1079176406 725140014 -147930713 -2008050813 366080628 1751325072 1138659614 1808528115 -726881374 859268837 156716073 1023711390 -1959396080 -1477439806 1376978996 621263013 -1422991867 -80248538 2061803034 -1470586917 1608769183 -2044464769 -1215404975 1783528550 262076863
REM
CELL 1.54180   50.00000   50.00000   50.00000   90.00000   90.00000   90.00000
LATT -1
SFAC C  
C      1  0.5603210000000  0.4730880000000  0.5413500000000 1.0
C      1  0.4824230000000  0.5571710000000  0.4729040000000 1.0
C      1  0.5656700000000  0.5155120000000  0.5061840000000 1.0
C      1  0.5084470000000  0.4798350000000  0.4646300000000 1.0
C      1  0.4641250000000  0.5602680000000  0.4996330000000 1.0
C      1  0.4421430000000  0.5357290000000  0.4662990000000 1.0
C      1  0.5536280000000  0.5507290000000  0.4715670000000 1.0
C      1  0.5083720000000  0.5162680000000  0.5606450000000 1.0
C      1  0.5080610000000  0.4670890000000  0.5491120000000 1.0
C      1  0.5293590000000  0.5674310000000  0.5140860000000 1.0
C      1  0.5108000000000  0.4232660000000  0.5271570000000 1.0
C      1  0.4310400000000  0.4728900000000  0.4965780000000 1.0
C      1  0.4979280000000  0.5195040000000  0.5288490000000 1.0
C      1  0.4383030000000  0.5195680000000  0.5122680000000 1.0
C      1  0.5735210000000  0.5400960000000  0.4889730000000 1.0
C      1  0.5340690000000  0.5680820000000  0.4817560000000 1.0
C      1  0.5295370000000  0.5208070000000  0.4161140000000 1.0
C      1  0.4755190000000  0.5059420000000  0.5597610000000 1.0
C      1  0.4485090000000  0.4561250000000  0.5182780000000 1.0
C      1  0.4739550000000  0.5334780000000  0.4309980000000 1.0
C      1  0.5174470000000  0.5204780000000  0.4539460000000 1.0
C      1  0.5164690000000  0.5359610000000  0.5094910000000 1.0
C      1  0.4421010000000  0.4944850000000  0.5542480000000 1.0
C      1  0.5438460000000  0.5252080000000  0.5262500000000 1.0
C      1  0.5105460000000  0.4978740000000  0.4291190000000 1.0
C      1  0.4839310000000  0.5560610000000  0.5458750000000 1.0
C      1  0.5232690000000  0.4657730000000  0.5200960000000 1.0
C      1  0.5091340000000  0.4333750000000  0.5529720000000 1.0
C      1  0.5285680000000  0.4395300000000  0.4841700000000 1.0
C      1  0.5421870000000  0.4830670000000  0.4589040000000 1.0
C      1  0.5019220000000  0.5364660000000  0.4283230000000 1.0
C      1  0.5381570000000  0.4744400000000  0.5623970000000 1.0
C      1  0.4854590000000  0.4616360000000  0.4473800000000 1.0
C      1  0.5500770000000  0.5046180000000  0.4378390000000 1.0
C      1  0.4784920000000  0.4600800000000  0.5338300000000 1.0
C      1  0.4812580000000  0.5711040000000  0.5217630000000 1.0
C      1  0.4626450000000  0.5498670000000  0.4510320000000 1.0
C      1  0.5310200000000  0.4930040000000  0.5068180000000 1.0
C      1  0.5463740000000  0.5334290000000  0.4514190000000 1.0
C      1  0.4831840000000  0.4918810000000  0.5300150000000 1.0
C      1  0.4896930000000  0.5288560000000  0.4897620000000 1.0
C      1  0.5727070000000  0.4979320000000  0.5337480000000 1.0
C      1  0.4413390000000  0.4746740000000  0.4703110000000 1.0
C      1  0.4733260000000  0.4501400000000  0.4957790000000 1.0
C      1  0.5095380000000  0.5474330000000  0.5550130000000 1.0
C      1  0.5337580000000  0.5524880000000  0.5412830000000 1.0
C      1  0.5024050000000  0.5702780000000  0.4948390000000 1.0
C      1  0.4838690000000  0.4751760000000  0.5715980000000 1.0
C      1  0.4617170000000  0.4549680000000  0.4652150000000 1.0
C      1  0.4432010000000  0.5206100000000  0.5414010000000 1.0
C      1  0.5035470000000  0.4548820000000  0.4823320000000 1.0
C      1  0.5131490000000  0.4457100000000  0.4402200000000 1.0
C      1  0.5729860000000  0.4638270000000  0.4977410000000 1.0
C      1  0.4634000000000  0.5105570000000  0.4911330000000 1.0
C      1  0.5358510000000  0.4359990000000  0.5132760000000 1.0
C      1  0.4735190000000  0.4835730000000  0.5019970000000 1.0
C      1  0.5301710000000  0.4993260000000  0.5406470000000 1.0
C      1  0.4189730000000  0.4956950000000  0.5056310000000 1.0
C      1  0.5130450000000  0.5067660000000  0.4825870000000 1.0
C      1  0.4417000000000  0.5440040000000  0.4936020000000 1.0
C      1  0.5573720000000  0.4888190000000  0.4868280000000 1.0
C      1  0.5344350000000  0.4504520000000  0.4573640000000 1.0
C      1  0.5613080000000  0.4535310000000  0.5207850000000 1.0
C      1  0.4428520000000  0.4665580000000  0.5501430000000 1.0
C      1  0.4618830000000  0.4576550000000  0.5701300000000 1.0
C      1  0.4876390000000  0.4239200000000  0.5120540000000 1.0
C      1  0.4853840000000  0.4874260000000  0.4309980000000 1.0
C      1  0.4492350000000  0.5039780000000  0.4620030000000 1.0
C      1  0.4657270000000  0.5061920000000  0.4356500000000 1.0
C      1  0.4644570000000  0.5373600000000  0.5529030000000 1.0
END
