TITL C-2847958-8115-348 0.000746806648386289 125000 -1070.01832094294 0 0 194 (C1) n - 1
REM
REM in /home/bkarasulu/work/CARBON/AIRSS/Generating-Clusters/AIREBO/with-SteepDescent/Only-C1/SD-CG-opt/Try1-1.4A-POS3A/HFTN-CG
REM
REM
REM
REM
REM
REM ./C.cell (11c1c37f851c82e70ff6c80c92926a4b)
REM
REM compiler GCC version 9.2.1 20190827 (Red Hat 9.2.1-1)
REM options -cpp -mtune=generic -march=x86-64 -g -O0 -fpre-include=/usr/include/finclude/math-vector-fortran.h
REM seed 898055651 -145285150 1734299572 -1294934157 1670195110 -66773402 54019841 -621054735 -194290290 -990138760 1891757294 872625310 -647765547 -1087228914 1034180304 232867034 -100374671 -966201014 -634897002 -352572100 1973471736 1577959907 -1232266869 -1478837164 2069839820 386778732 26102382 204124147 726894648 376075521 1713685363 -424011948 -774789683
REM
CELL 1.54180   50.00000   50.00000   50.00000   90.00000   90.00000   90.00000
LATT -1
SFAC C  
C      1  0.5986190000000  0.5177000000000  0.5331120000000 1.0
C      1  0.5528390000000  0.5741040000000  0.5347600000000 1.0
C      1  0.4926390000000  0.4700870000000  0.3938740000000 1.0
C      1  0.5545190000000  0.5124480000000  0.5031090000000 1.0
C      1  0.5655640000000  0.5040010000000  0.3986140000000 1.0
C      1  0.4612410000000  0.4158220000000  0.4475100000000 1.0
C      1  0.5921920000000  0.4999280000000  0.5065800000000 1.0
C      1  0.4154040000000  0.5668930000000  0.4689160000000 1.0
C      1  0.4982450000000  0.4566630000000  0.4444730000000 1.0
C      1  0.4863540000000  0.5300750000000  0.5428250000000 1.0
C      1  0.4551370000000  0.5415310000000  0.5459970000000 1.0
C      1  0.4910700000000  0.4390360000000  0.3998540000000 1.0
C      1  0.4029710000000  0.4574970000000  0.4255510000000 1.0
C      1  0.4925720000000  0.5748740000000  0.5218900000000 1.0
C      1  0.4616300000000  0.4515110000000  0.5633680000000 1.0
C      1  0.5712560000000  0.4222710000000  0.4964490000000 1.0
C      1  0.5237850000000  0.3964290000000  0.5078830000000 1.0
C      1  0.4640940000000  0.5477020000000  0.3993030000000 1.0
C      1  0.5273910000000  0.5697490000000  0.4103180000000 1.0
C      1  0.4999680000000  0.4427670000000  0.5696350000000 1.0
C      1  0.5738770000000  0.4628480000000  0.3737360000000 1.0
C      1  0.4138610000000  0.5306870000000  0.5686010000000 1.0
C      1  0.4513310000000  0.5576730000000  0.5728960000000 1.0
C      1  0.4459710000000  0.4979200000000  0.6224100000000 1.0
C      1  0.4044610000000  0.4938380000000  0.5794350000000 1.0
C      1  0.5685000000000  0.5484210000000  0.5831380000000 1.0
C      1  0.5445170000000  0.4655310000000  0.4136970000000 1.0
C      1  0.5465410000000  0.4919350000000  0.6090110000000 1.0
C      1  0.4909590000000  0.5348640000000  0.4589320000000 1.0
C      1  0.5469020000000  0.6149530000000  0.5556920000000 1.0
C      1  0.6012630000000  0.4932940000000  0.5570220000000 1.0
C      1  0.5491810000000  0.5127380000000  0.5366930000000 1.0
C      1  0.4628430000000  0.4166480000000  0.4993960000000 1.0
C      1  0.5292410000000  0.3983950000000  0.4469670000000 1.0
C      1  0.4733930000000  0.5359210000000  0.4298190000000 1.0
C      1  0.5802980000000  0.5210790000000  0.4597260000000 1.0
C      1  0.5728140000000  0.5698370000000  0.4546060000000 1.0
C      1  0.4009550000000  0.5164120000000  0.4776280000000 1.0
C      1  0.5301700000000  0.5595700000000  0.5034720000000 1.0
C      1  0.5613330000000  0.5912790000000  0.5584860000000 1.0
C      1  0.4243400000000  0.5046480000000  0.4302100000000 1.0
C      1  0.5075060000000  0.4316130000000  0.4981630000000 1.0
C      1  0.4090570000000  0.5508840000000  0.4960570000000 1.0
C      1  0.4445990000000  0.3957610000000  0.5182920000000 1.0
C      1  0.4017980000000  0.4681130000000  0.4778910000000 1.0
C      1  0.6149900000000  0.5481290000000  0.4915560000000 1.0
C      1  0.5397300000000  0.4169950000000  0.5528580000000 1.0
C      1  0.4882750000000  0.6146800000000  0.5315870000000 1.0
C      1  0.4859130000000  0.4244720000000  0.5201870000000 1.0
C      1  0.4926050000000  0.5049900000000  0.5649200000000 1.0
C      1  0.4464400000000  0.4604390000000  0.5382900000000 1.0
C      1  0.5222250000000  0.6128760000000  0.5324920000000 1.0
C      1  0.5033460000000  0.5430880000000  0.5163660000000 1.0
C      1  0.4431280000000  0.5012490000000  0.5728420000000 1.0
C      1  0.5741280000000  0.4304890000000  0.5234220000000 1.0
C      1  0.4635690000000  0.5809130000000  0.5108260000000 1.0
C      1  0.5155970000000  0.4167810000000  0.4695530000000 1.0
C      1  0.6009350000000  0.4463900000000  0.4247780000000 1.0
C      1  0.4335300000000  0.4287730000000  0.4584190000000 1.0
C      1  0.5783090000000  0.5612650000000  0.5169640000000 1.0
C      1  0.4885390000000  0.4739370000000  0.5238340000000 1.0
C      1  0.5083990000000  0.5907730000000  0.5879050000000 1.0
C      1  0.5980350000000  0.5493710000000  0.4645550000000 1.0
C      1  0.5801030000000  0.5167630000000  0.5616480000000 1.0
C      1  0.4779790000000  0.4050140000000  0.4744090000000 1.0
C      1  0.5546940000000  0.5423780000000  0.5105900000000 1.0
C      1  0.4706420000000  0.4927590000000  0.6222390000000 1.0
C      1  0.5001730000000  0.3873310000000  0.5480200000000 1.0
C      1  0.5204260000000  0.4736370000000  0.6023940000000 1.0
C      1  0.5479080000000  0.5578990000000  0.4744540000000 1.0
C      1  0.4928410000000  0.5424350000000  0.6003600000000 1.0
C      1  0.5625010000000  0.4775720000000  0.3936730000000 1.0
C      1  0.5238860000000  0.5063540000000  0.4927910000000 1.0
C      1  0.4774540000000  0.3922090000000  0.5268390000000 1.0
C      1  0.5428480000000  0.4158360000000  0.4886620000000 1.0
C      1  0.4155390000000  0.4713270000000  0.5465610000000 1.0
C      1  0.4893610000000  0.4323550000000  0.4579060000000 1.0
C      1  0.5519010000000  0.5824600000000  0.4304140000000 1.0
C      1  0.4961250000000  0.6024800000000  0.5022300000000 1.0
C      1  0.5527800000000  0.5338800000000  0.5584110000000 1.0
C      1  0.5107420000000  0.5555990000000  0.4437400000000 1.0
C      1  0.5311610000000  0.4471050000000  0.5106920000000 1.0
C      1  0.4929700000000  0.5805350000000  0.4382220000000 1.0
C      1  0.4347550000000  0.4834350000000  0.4612490000000 1.0
C      1  0.4755240000000  0.5056310000000  0.5218090000000 1.0
C      1  0.4223100000000  0.5524610000000  0.4446900000000 1.0
C      1  0.3835140000000  0.5084640000000  0.5282590000000 1.0
C      1  0.5734050000000  0.5746980000000  0.5785020000000 1.0
C      1  0.4658610000000  0.5545520000000  0.4707230000000 1.0
C      1  0.5369560000000  0.4355010000000  0.4164650000000 1.0
C      1  0.5859360000000  0.4346370000000  0.4759690000000 1.0
C      1  0.4586400000000  0.5784160000000  0.4829750000000 1.0
C      1  0.5913190000000  0.4645970000000  0.4810060000000 1.0
C      1  0.5200310000000  0.4617810000000  0.5508510000000 1.0
C      1  0.4878420000000  0.4176010000000  0.5832020000000 1.0
C      1  0.3868410000000  0.5259880000000  0.5028150000000 1.0
C      1  0.4535950000000  0.5230640000000  0.4669730000000 1.0
C      1  0.4915220000000  0.5812430000000  0.5529190000000 1.0
C      1  0.5559020000000  0.5161000000000  0.4288850000000 1.0
C      1  0.5237900000000  0.4499570000000  0.5887400000000 1.0
C      1  0.4285430000000  0.4661530000000  0.4965270000000 1.0
C      1  0.5055840000000  0.4831720000000  0.4619770000000 1.0
C      1  0.5465140000000  0.4418420000000  0.4666080000000 1.0
C      1  0.4651550000000  0.5422540000000  0.5982910000000 1.0
C      1  0.5174070000000  0.5055480000000  0.4279210000000 1.0
C      1  0.5324930000000  0.6070510000000  0.4438690000000 1.0
C      1  0.5253450000000  0.3973680000000  0.5375630000000 1.0
C      1  0.4434810000000  0.5693190000000  0.5328730000000 1.0
C      1  0.4481010000000  0.4105250000000  0.5467150000000 1.0
C      1  0.4167730000000  0.5675860000000  0.5224660000000 1.0
C      1  0.4198710000000  0.4413950000000  0.5309620000000 1.0
C      1  0.4070170000000  0.4799560000000  0.4460600000000 1.0
C      1  0.5572070000000  0.6012980000000  0.4962540000000 1.0
C      1  0.4597300000000  0.5999570000000  0.5377720000000 1.0
C      1  0.4243790000000  0.5240570000000  0.4549890000000 1.0
C      1  0.5081740000000  0.6067870000000  0.5614030000000 1.0
C      1  0.4521430000000  0.4566220000000  0.4642990000000 1.0
C      1  0.5477270000000  0.4392340000000  0.5773470000000 1.0
C      1  0.4977170000000  0.5532750000000  0.4032360000000 1.0
C      1  0.4234330000000  0.4431130000000  0.4210630000000 1.0
C      1  0.4217420000000  0.4974940000000  0.5253670000000 1.0
C      1  0.4866840000000  0.5237540000000  0.3907940000000 1.0
C      1  0.5422440000000  0.4240600000000  0.4407100000000 1.0
C      1  0.5650370000000  0.4620870000000  0.5698320000000 1.0
C      1  0.5444560000000  0.4848940000000  0.5552590000000 1.0
C      1  0.4512520000000  0.4227650000000  0.5680100000000 1.0
C      1  0.5278820000000  0.3730710000000  0.4383170000000 1.0
C      1  0.6309480000000  0.4662210000000  0.5105800000000 1.0
C      1  0.3958700000000  0.4869010000000  0.5059870000000 1.0
C      1  0.4411080000000  0.5579220000000  0.4233620000000 1.0
C      1  0.5480460000000  0.5291220000000  0.4588040000000 1.0
C      1  0.4934070000000  0.3922830000000  0.5746550000000 1.0
C      1  0.5354580000000  0.5914800000000  0.5142270000000 1.0
C      1  0.4335550000000  0.5878650000000  0.4742930000000 1.0
C      1  0.4568520000000  0.5219340000000  0.4992720000000 1.0
C      1  0.5234530000000  0.5369270000000  0.4183170000000 1.0
C      1  0.5168580000000  0.4267490000000  0.3986020000000 1.0
C      1  0.5077250000000  0.4920830000000  0.5411820000000 1.0
C      1  0.6059780000000  0.5262730000000  0.4408390000000 1.0
C      1  0.5245380000000  0.4613590000000  0.4742360000000 1.0
C      1  0.5044550000000  0.5638720000000  0.5864150000000 1.0
C      1  0.4240210000000  0.4210040000000  0.5077540000000 1.0
C      1  0.5435720000000  0.4863330000000  0.4393000000000 1.0
C      1  0.5633300000000  0.4711810000000  0.4628310000000 1.0
C      1  0.5899650000000  0.4674380000000  0.5564720000000 1.0
C      1  0.4627750000000  0.5834620000000  0.5657970000000 1.0
C      1  0.4956860000000  0.3920340000000  0.4990710000000 1.0
C      1  0.5067330000000  0.5536100000000  0.5565150000000 1.0
C      1  0.4945390000000  0.6079380000000  0.4765660000000 1.0
C      1  0.4639210000000  0.4767900000000  0.5806790000000 1.0
C      1  0.4100720000000  0.4350650000000  0.4795320000000 1.0
C      1  0.5557910000000  0.4753490000000  0.5244880000000 1.0
C      1  0.4766570000000  0.4781870000000  0.4350450000000 1.0
C      1  0.5471440000000  0.4457380000000  0.5380400000000 1.0
C      1  0.4297850000000  0.4712550000000  0.5772230000000 1.0
C      1  0.4459110000000  0.4795080000000  0.4081580000000 1.0
C      1  0.4276280000000  0.4984560000000  0.4859120000000 1.0
C      1  0.4270310000000  0.5092220000000  0.6000050000000 1.0
C      1  0.4696730000000  0.4729320000000  0.4884700000000 1.0
C      1  0.4846290000000  0.5011250000000  0.4794410000000 1.0
C      1  0.4882350000000  0.5296930000000  0.4924380000000 1.0
C      1  0.4537460000000  0.4549570000000  0.4303480000000 1.0
C      1  0.5840990000000  0.4598120000000  0.5280050000000 1.0
C      1  0.4692730000000  0.5696420000000  0.4314870000000 1.0
C      1  0.5353520000000  0.4776800000000  0.4996270000000 1.0
C      1  0.4562710000000  0.5084920000000  0.4190660000000 1.0
C      1  0.5204020000000  0.5145830000000  0.5236450000000 1.0
C      1  0.4356100000000  0.5180690000000  0.5486140000000 1.0
C      1  0.4880270000000  0.4982880000000  0.4123190000000 1.0
C      1  0.5126470000000  0.4671310000000  0.4181830000000 1.0
C      1  0.5642630000000  0.5156980000000  0.5917530000000 1.0
C      1  0.4843080000000  0.4477360000000  0.5398630000000 1.0
C      1  0.4332950000000  0.4755570000000  0.3856770000000 1.0
C      1  0.5345460000000  0.5535350000000  0.5465350000000 1.0
C      1  0.5033980000000  0.6036970000000  0.4503830000000 1.0
C      1  0.5722620000000  0.5770010000000  0.4885450000000 1.0
C      1  0.4914750000000  0.4901330000000  0.5954950000000 1.0
C      1  0.5721040000000  0.4995060000000  0.4795500000000 1.0
C      1  0.4980320000000  0.4629040000000  0.4954930000000 1.0
C      1  0.4466030000000  0.4409270000000  0.4939550000000 1.0
C      1  0.4311970000000  0.5413090000000  0.5948700000000 1.0
C      1  0.5842790000000  0.4496890000000  0.4457630000000 1.0
C      1  0.4744820000000  0.4321710000000  0.4207990000000 1.0
C      1  0.6037430000000  0.4709400000000  0.5078700000000 1.0
C      1  0.6029740000000  0.5448870000000  0.5168250000000 1.0
C      1  0.3928890000000  0.5103450000000  0.5556230000000 1.0
C      1  0.5339650000000  0.5045390000000  0.5810860000000 1.0
C      1  0.4266020000000  0.5254250000000  0.5065920000000 1.0
C      1  0.5179310000000  0.5142210000000  0.4607980000000 1.0
C      1  0.4508010000000  0.4833760000000  0.5147550000000 1.0
C      1  0.4638870000000  0.4943750000000  0.4556010000000 1.0
C      1  0.5501190000000  0.5314770000000  0.3990610000000 1.0
C      1  0.5307440000000  0.5749410000000  0.4549210000000 1.0
C      1  0.5085590000000  0.5194010000000  0.5982630000000 1.0
END
