TITL C-2847957-7266-322 -0.00299220071298249 125000 -882.017168011349 0 0 164 (C1) n - 1
REM
REM in /home/bkarasulu/work/CARBON/AIRSS/Generating-Clusters/AIREBO/with-SteepDescent/Only-C1/SD-CG-opt/Try1-1.4A-POS3A/HFTN-CG
REM
REM
REM
REM
REM
REM ./C.cell (11c1c37f851c82e70ff6c80c92926a4b)
REM
REM compiler GCC version 9.2.1 20190827 (Red Hat 9.2.1-1)
REM options -cpp -mtune=generic -march=x86-64 -g -O0 -fpre-include=/usr/include/finclude/math-vector-fortran.h
REM seed -1656146995 1370803738 -337148035 393421859 -759992277 -1600175318 -1202761676 -1515642882 -921563045 -1147314619 -2130615369 -1826231292 1888262408 -1778047959 919578235 1184126032 1332496918 396260184 -1184540000 1575012039 1849916473 -109272864 1675689198 -298920540 220087027 1696626283 -1099954735 9230849 2095926694 -838262986 1456467375 1258387662 1882918078
REM
CELL 1.54180   50.00000   50.00000   50.00000   90.00000   90.00000   90.00000
LATT -1
SFAC C  
C      1  0.3898580000000  0.4791980000000  0.4865340000000 1.0
C      1  0.4694390000000  0.5980800000000  0.5275890000000 1.0
C      1  0.4584690000000  0.4336990000000  0.5913330000000 1.0
C      1  0.4722870000000  0.5073350000000  0.6031900000000 1.0
C      1  0.5407310000000  0.5327150000000  0.3982520000000 1.0
C      1  0.4831600000000  0.5358770000000  0.5642960000000 1.0
C      1  0.5062600000000  0.4427830000000  0.4020300000000 1.0
C      1  0.5600460000000  0.4994790000000  0.5765860000000 1.0
C      1  0.5915860000000  0.4636780000000  0.5189790000000 1.0
C      1  0.4794260000000  0.4797840000000  0.6020310000000 1.0
C      1  0.5103590000000  0.5997260000000  0.4983310000000 1.0
C      1  0.4983800000000  0.5237340000000  0.4392640000000 1.0
C      1  0.5114700000000  0.4377170000000  0.4891320000000 1.0
C      1  0.4022050000000  0.5548050000000  0.4680310000000 1.0
C      1  0.4807570000000  0.5815860000000  0.4301120000000 1.0
C      1  0.4638680000000  0.4210360000000  0.5435060000000 1.0
C      1  0.4652170000000  0.5775460000000  0.4666180000000 1.0
C      1  0.4625880000000  0.4656370000000  0.5583040000000 1.0
C      1  0.5681040000000  0.4690650000000  0.4761670000000 1.0
C      1  0.5075260000000  0.5571370000000  0.5871030000000 1.0
C      1  0.4645740000000  0.4313970000000  0.4290430000000 1.0
C      1  0.4782610000000  0.4674190000000  0.4891360000000 1.0
C      1  0.4087430000000  0.4342430000000  0.4787410000000 1.0
C      1  0.4614390000000  0.5077780000000  0.4211920000000 1.0
C      1  0.5655360000000  0.4530030000000  0.5160510000000 1.0
C      1  0.6012680000000  0.5076170000000  0.5030960000000 1.0
C      1  0.5765340000000  0.4632530000000  0.4375710000000 1.0
C      1  0.5328370000000  0.4557860000000  0.6009150000000 1.0
C      1  0.5664530000000  0.4917790000000  0.5317720000000 1.0
C      1  0.5332990000000  0.5329500000000  0.4674260000000 1.0
C      1  0.4486550000000  0.4659850000000  0.4064410000000 1.0
C      1  0.5201080000000  0.4858060000000  0.5245360000000 1.0
C      1  0.4660780000000  0.4606590000000  0.5864380000000 1.0
C      1  0.4429000000000  0.4396720000000  0.4444340000000 1.0
C      1  0.4015940000000  0.5104590000000  0.4868580000000 1.0
C      1  0.4194850000000  0.5693920000000  0.4517090000000 1.0
C      1  0.4456560000000  0.5469540000000  0.5729820000000 1.0
C      1  0.4358860000000  0.4349730000000  0.5300220000000 1.0
C      1  0.4948910000000  0.4314750000000  0.5378300000000 1.0
C      1  0.5513230000000  0.4424570000000  0.4280900000000 1.0
C      1  0.5132400000000  0.5364670000000  0.3937020000000 1.0
C      1  0.4261820000000  0.5541160000000  0.5168150000000 1.0
C      1  0.5396280000000  0.6041910000000  0.5006280000000 1.0
C      1  0.5204150000000  0.4647680000000  0.5713750000000 1.0
C      1  0.5557920000000  0.5331710000000  0.5747340000000 1.0
C      1  0.5115870000000  0.5911300000000  0.5488250000000 1.0
C      1  0.4965930000000  0.5215310000000  0.4083980000000 1.0
C      1  0.3982740000000  0.5253830000000  0.4598200000000 1.0
C      1  0.5961330000000  0.5395450000000  0.4688340000000 1.0
C      1  0.4224840000000  0.4431100000000  0.5605260000000 1.0
C      1  0.4469670000000  0.4445270000000  0.4747890000000 1.0
C      1  0.5471560000000  0.5168610000000  0.5393820000000 1.0
C      1  0.4447460000000  0.4781200000000  0.5091750000000 1.0
C      1  0.5724190000000  0.4132040000000  0.5111660000000 1.0
C      1  0.4729750000000  0.5057840000000  0.4530070000000 1.0
C      1  0.5014000000000  0.5436920000000  0.5366720000000 1.0
C      1  0.5022800000000  0.3959770000000  0.4359070000000 1.0
C      1  0.4064760000000  0.5059180000000  0.4325890000000 1.0
C      1  0.4961220000000  0.5315360000000  0.6064400000000 1.0
C      1  0.4731430000000  0.5277330000000  0.5264880000000 1.0
C      1  0.4888980000000  0.4598020000000  0.4486830000000 1.0
C      1  0.4983230000000  0.5775780000000  0.4588720000000 1.0
C      1  0.5296130000000  0.5804100000000  0.4528400000000 1.0
C      1  0.5087890000000  0.4697750000000  0.4967570000000 1.0
C      1  0.5196190000000  0.4818700000000  0.4216010000000 1.0
C      1  0.5241840000000  0.5496130000000  0.5121060000000 1.0
C      1  0.4478460000000  0.5361880000000  0.4566630000000 1.0
C      1  0.5356710000000  0.4558210000000  0.5283750000000 1.0
C      1  0.4137520000000  0.4485080000000  0.4534920000000 1.0
C      1  0.4793340000000  0.5687260000000  0.5720060000000 1.0
C      1  0.4162330000000  0.5250100000000  0.5313270000000 1.0
C      1  0.5199110000000  0.4974320000000  0.4803940000000 1.0
C      1  0.4702480000000  0.4179660000000  0.4923950000000 1.0
C      1  0.4833090000000  0.4150960000000  0.4422390000000 1.0
C      1  0.4890380000000  0.3945540000000  0.5052040000000 1.0
C      1  0.4801510000000  0.4573400000000  0.4159040000000 1.0
C      1  0.4030250000000  0.5596830000000  0.4951770000000 1.0
C      1  0.4887740000000  0.6134800000000  0.5077450000000 1.0
C      1  0.4366800000000  0.4873610000000  0.4234720000000 1.0
C      1  0.5782250000000  0.5250870000000  0.5504950000000 1.0
C      1  0.5431830000000  0.4216320000000  0.4450280000000 1.0
C      1  0.4257780000000  0.5678620000000  0.5479210000000 1.0
C      1  0.4873300000000  0.5413590000000  0.4995100000000 1.0
C      1  0.4540500000000  0.5351440000000  0.4106260000000 1.0
C      1  0.4506740000000  0.5758930000000  0.5117810000000 1.0
C      1  0.5387330000000  0.4869500000000  0.5532100000000 1.0
C      1  0.5878160000000  0.4246090000000  0.4672380000000 1.0
C      1  0.5695800000000  0.5495370000000  0.5345650000000 1.0
C      1  0.5376640000000  0.4309250000000  0.4731000000000 1.0
C      1  0.5129300000000  0.5072160000000  0.5690800000000 1.0
C      1  0.5566060000000  0.5739410000000  0.5463030000000 1.0
C      1  0.4309600000000  0.5175540000000  0.5015460000000 1.0
C      1  0.5495120000000  0.5593480000000  0.4915990000000 1.0
C      1  0.5691170000000  0.5114300000000  0.5041410000000 1.0
C      1  0.5670710000000  0.4900250000000  0.4286920000000 1.0
C      1  0.4808960000000  0.5665230000000  0.5220150000000 1.0
C      1  0.4250980000000  0.4730540000000  0.5691660000000 1.0
C      1  0.4395100000000  0.5858100000000  0.4647600000000 1.0
C      1  0.4366020000000  0.4737540000000  0.5394980000000 1.0
C      1  0.4625400000000  0.5659010000000  0.4187040000000 1.0
C      1  0.5501350000000  0.5081890000000  0.3889380000000 1.0
C      1  0.4585760000000  0.5156750000000  0.5763110000000 1.0
C      1  0.5493050000000  0.5385700000000  0.4275200000000 1.0
C      1  0.4364370000000  0.5521400000000  0.4331540000000 1.0
C      1  0.4578650000000  0.4468290000000  0.5069250000000 1.0
C      1  0.4498970000000  0.5447260000000  0.5393160000000 1.0
C      1  0.4282960000000  0.4995000000000  0.5766820000000 1.0
C      1  0.5978070000000  0.4699150000000  0.4632730000000 1.0
C      1  0.4882550000000  0.4317260000000  0.4679230000000 1.0
C      1  0.5458480000000  0.5085300000000  0.6043980000000 1.0
C      1  0.5173110000000  0.5076420000000  0.6004800000000 1.0
C      1  0.5645300000000  0.5408130000000  0.5102060000000 1.0
C      1  0.4363470000000  0.4177160000000  0.4897410000000 1.0
C      1  0.5262700000000  0.5340450000000  0.5577640000000 1.0
C      1  0.5340800000000  0.4152040000000  0.5646850000000 1.0
C      1  0.4842100000000  0.5029210000000  0.5559950000000 1.0
C      1  0.4781740000000  0.4566420000000  0.5323710000000 1.0
C      1  0.4660190000000  0.5000280000000  0.5087570000000 1.0
C      1  0.5477500000000  0.4884890000000  0.4083910000000 1.0
C      1  0.4888960000000  0.4899360000000  0.4117490000000 1.0
C      1  0.5082820000000  0.4782230000000  0.5995300000000 1.0
C      1  0.5648950000000  0.5376410000000  0.4704090000000 1.0
C      1  0.5444710000000  0.5850940000000  0.4791020000000 1.0
C      1  0.4661260000000  0.4770260000000  0.4619980000000 1.0
C      1  0.4852220000000  0.5903530000000  0.5537110000000 1.0
C      1  0.5155350000000  0.4782750000000  0.4526320000000 1.0
C      1  0.4455970000000  0.4246310000000  0.5673680000000 1.0
C      1  0.5553590000000  0.4572900000000  0.5543750000000 1.0
C      1  0.5705830000000  0.4145550000000  0.5384650000000 1.0
C      1  0.6017050000000  0.4770940000000  0.4962850000000 1.0
C      1  0.4685820000000  0.5496530000000  0.5980200000000 1.0
C      1  0.5916610000000  0.4350930000000  0.4446740000000 1.0
C      1  0.4767650000000  0.5463410000000  0.4631690000000 1.0
C      1  0.5243460000000  0.5156750000000  0.5087560000000 1.0
C      1  0.4282210000000  0.5103640000000  0.4572170000000 1.0
C      1  0.5046820000000  0.4188050000000  0.5124520000000 1.0
C      1  0.5372530000000  0.4630770000000  0.4695030000000 1.0
C      1  0.5295580000000  0.3988150000000  0.4365080000000 1.0
C      1  0.5686890000000  0.4340920000000  0.5581240000000 1.0
C      1  0.5196430000000  0.4393290000000  0.5530550000000 1.0
C      1  0.6012110000000  0.5110450000000  0.5356680000000 1.0
C      1  0.5056240000000  0.5687160000000  0.4909380000000 1.0
C      1  0.6104710000000  0.5177630000000  0.4764670000000 1.0
C      1  0.5957820000000  0.4810540000000  0.5450050000000 1.0
C      1  0.4178970000000  0.4485860000000  0.5069680000000 1.0
C      1  0.5864280000000  0.4828600000000  0.5750670000000 1.0
C      1  0.5273290000000  0.5740770000000  0.5355240000000 1.0
C      1  0.5652640000000  0.4369750000000  0.4879230000000 1.0
C      1  0.5012790000000  0.5249810000000  0.4731730000000 1.0
C      1  0.4215870000000  0.4758310000000  0.4869580000000 1.0
C      1  0.5513830000000  0.5710060000000  0.4305910000000 1.0
C      1  0.4079750000000  0.4750280000000  0.5244010000000 1.0
C      1  0.3990470000000  0.5012390000000  0.5184680000000 1.0
C      1  0.4326840000000  0.4766940000000  0.4555160000000 1.0
C      1  0.4586090000000  0.5163220000000  0.4819980000000 1.0
C      1  0.4228610000000  0.5247900000000  0.5609280000000 1.0
C      1  0.6170160000000  0.4962910000000  0.4605080000000 1.0
C      1  0.4868200000000  0.4877650000000  0.5312040000000 1.0
C      1  0.5209280000000  0.5488940000000  0.4431460000000 1.0
C      1  0.5610880000000  0.5132520000000  0.4470210000000 1.0
C      1  0.5551220000000  0.6006170000000  0.5252100000000 1.0
C      1  0.5303680000000  0.4528880000000  0.4124750000000 1.0
C      1  0.5537850000000  0.4998770000000  0.4774360000000 1.0
C      1  0.5377140000000  0.5625790000000  0.5723070000000 1.0
END
