TITL C-2848497-6229-87 0.000964312800699855 125000 -521.427899360179 0 0 96 (C1) n - 1
REM
REM in /home/bkarasulu/work/CARBON/AIRSS/Generating-Clusters/AIREBO/with-SteepDescent/Only-C1/SD-CG-opt/Try1-1.4A-POS3A/HFTN-CG
REM
REM
REM
REM
REM
REM ./C.cell (11c1c37f851c82e70ff6c80c92926a4b)
REM
REM compiler GCC version 9.2.1 20190827 (Red Hat 9.2.1-1)
REM options -cpp -mtune=generic -march=x86-64 -g -O0 -fpre-include=/usr/include/finclude/math-vector-fortran.h
REM seed -863655209 813476709 1654660945 -2086373490 -590449510 1948563968 1006560384 -2067534847 1148959802 -1051204173 1711070199 66339365 3902703 -470520844 -453312165 -251206478 1541872226 875522262 -172157636 360428649 968285349 1585440025 -680717776 -328743966 1460783960 696108648 1394496503 -522737618 -1464992106 88439482 414356106 1903044497 -925857011
REM
CELL 1.54180   50.00000   50.00000   50.00000   90.00000   90.00000   90.00000
LATT -1
SFAC C  
C      1  0.4851910000000  0.5343140000000  0.5513150000000 1.0
C      1  0.5793470000000  0.4958440000000  0.5303370000000 1.0
C      1  0.4926330000000  0.5153700000000  0.4946160000000 1.0
C      1  0.4502790000000  0.4242190000000  0.4670760000000 1.0
C      1  0.5148870000000  0.4877710000000  0.4066940000000 1.0
C      1  0.5255090000000  0.5476090000000  0.5673390000000 1.0
C      1  0.5120250000000  0.5324510000000  0.4289750000000 1.0
C      1  0.5553820000000  0.4449620000000  0.4679770000000 1.0
C      1  0.5234640000000  0.5215000000000  0.5604690000000 1.0
C      1  0.4426400000000  0.5495280000000  0.5491260000000 1.0
C      1  0.4934210000000  0.4890110000000  0.5248430000000 1.0
C      1  0.5276170000000  0.5681000000000  0.5085270000000 1.0
C      1  0.5614440000000  0.4737180000000  0.4537910000000 1.0
C      1  0.5360270000000  0.4912410000000  0.5270830000000 1.0
C      1  0.5440910000000  0.5096870000000  0.4786920000000 1.0
C      1  0.4949550000000  0.4683020000000  0.4753970000000 1.0
C      1  0.4849180000000  0.5175210000000  0.4191100000000 1.0
C      1  0.4464590000000  0.4700110000000  0.4973850000000 1.0
C      1  0.4329560000000  0.4684720000000  0.5249020000000 1.0
C      1  0.4766520000000  0.4975920000000  0.4417300000000 1.0
C      1  0.4734530000000  0.4406510000000  0.5098870000000 1.0
C      1  0.5556610000000  0.4342390000000  0.5133560000000 1.0
C      1  0.4351060000000  0.4970510000000  0.4799470000000 1.0
C      1  0.4421870000000  0.5209430000000  0.5666570000000 1.0
C      1  0.5544030000000  0.4687400000000  0.5633100000000 1.0
C      1  0.4977180000000  0.5635710000000  0.5437130000000 1.0
C      1  0.5117970000000  0.4064290000000  0.4648090000000 1.0
C      1  0.5120840000000  0.5014760000000  0.5785740000000 1.0
C      1  0.5586410000000  0.5307750000000  0.4997980000000 1.0
C      1  0.4853160000000  0.5923940000000  0.5060130000000 1.0
C      1  0.5314030000000  0.4855440000000  0.4430200000000 1.0
C      1  0.4520790000000  0.5678920000000  0.5302060000000 1.0
C      1  0.4517630000000  0.5555520000000  0.5008230000000 1.0
C      1  0.4672220000000  0.5539260000000  0.4355470000000 1.0
C      1  0.5809000000000  0.4824870000000  0.5021930000000 1.0
C      1  0.5003110000000  0.4755860000000  0.4334460000000 1.0
C      1  0.4489050000000  0.5245860000000  0.4943610000000 1.0
C      1  0.5194590000000  0.4333260000000  0.4826350000000 1.0
C      1  0.4446750000000  0.5209790000000  0.5340080000000 1.0
C      1  0.4929990000000  0.4198470000000  0.4967340000000 1.0
C      1  0.4812370000000  0.4216460000000  0.4648810000000 1.0
C      1  0.5221070000000  0.4786160000000  0.5554770000000 1.0
C      1  0.5260290000000  0.5807540000000  0.4767160000000 1.0
C      1  0.5217550000000  0.5121710000000  0.4048030000000 1.0
C      1  0.4128380000000  0.4865060000000  0.5269570000000 1.0
C      1  0.5085140000000  0.5419640000000  0.5197840000000 1.0
C      1  0.5787860000000  0.5239760000000  0.4618100000000 1.0
C      1  0.4766060000000  0.4805880000000  0.5495450000000 1.0
C      1  0.4201390000000  0.5125590000000  0.5201030000000 1.0
C      1  0.5574140000000  0.5448490000000  0.5440620000000 1.0
C      1  0.5363380000000  0.5487670000000  0.4819290000000 1.0
C      1  0.5314780000000  0.5666210000000  0.5409680000000 1.0
C      1  0.4766470000000  0.5816540000000  0.5327320000000 1.0
C      1  0.4612580000000  0.5049710000000  0.5794000000000 1.0
C      1  0.4516720000000  0.4597000000000  0.5463030000000 1.0
C      1  0.5544790000000  0.4757320000000  0.4200520000000 1.0
C      1  0.4785720000000  0.4705410000000  0.5003860000000 1.0
C      1  0.4243010000000  0.5249960000000  0.4638560000000 1.0
C      1  0.5560330000000  0.5398270000000  0.4556860000000 1.0
C      1  0.4561650000000  0.5725280000000  0.4736850000000 1.0
C      1  0.5322700000000  0.5191810000000  0.4479570000000 1.0
C      1  0.4650840000000  0.4351700000000  0.5361660000000 1.0
C      1  0.5003700000000  0.4322730000000  0.5691490000000 1.0
C      1  0.4368660000000  0.4737940000000  0.4589620000000 1.0
C      1  0.4863300000000  0.5167560000000  0.5743680000000 1.0
C      1  0.5861560000000  0.5437430000000  0.4956230000000 1.0
C      1  0.4632700000000  0.4733230000000  0.5784260000000 1.0
C      1  0.4900460000000  0.4480130000000  0.4495960000000 1.0
C      1  0.5111190000000  0.4601280000000  0.5278180000000 1.0
C      1  0.4503810000000  0.5430270000000  0.4590820000000 1.0
C      1  0.4749310000000  0.5175090000000  0.5235910000000 1.0
C      1  0.5295460000000  0.4316490000000  0.5301920000000 1.0
C      1  0.5728070000000  0.4938420000000  0.4748050000000 1.0
C      1  0.4789570000000  0.5892360000000  0.4764680000000 1.0
C      1  0.4862580000000  0.4198170000000  0.5478160000000 1.0
C      1  0.4702690000000  0.5169890000000  0.4690010000000 1.0
C      1  0.4968130000000  0.5547680000000  0.4462900000000 1.0
C      1  0.5765000000000  0.4803550000000  0.5539740000000 1.0
C      1  0.5139590000000  0.5152910000000  0.5315790000000 1.0
C      1  0.5275900000000  0.4594200000000  0.5016320000000 1.0
C      1  0.5295500000000  0.4457530000000  0.5600840000000 1.0
C      1  0.5255920000000  0.4590960000000  0.4635810000000 1.0
C      1  0.5610940000000  0.4273900000000  0.4873470000000 1.0
C      1  0.4398770000000  0.4481320000000  0.4729710000000 1.0
C      1  0.5210580000000  0.4967520000000  0.4970430000000 1.0
C      1  0.5090170000000  0.4953540000000  0.4666590000000 1.0
C      1  0.4149660000000  0.5274030000000  0.4953020000000 1.0
C      1  0.4954920000000  0.4635510000000  0.5710820000000 1.0
C      1  0.4855460000000  0.5586940000000  0.5012820000000 1.0
C      1  0.5019100000000  0.5814810000000  0.4618740000000 1.0
C      1  0.5565920000000  0.4668650000000  0.5152690000000 1.0
C      1  0.5044000000000  0.4133230000000  0.5261500000000 1.0
C      1  0.4500100000000  0.4816920000000  0.4366930000000 1.0
C      1  0.5031270000000  0.5428850000000  0.4775690000000 1.0
C      1  0.4665860000000  0.5373870000000  0.4134160000000 1.0
C      1  0.5573110000000  0.5177710000000  0.5276210000000 1.0
END
