TITL C-2847946-5639-259 0.000259667654876341 125000 -1091.58626260635 0 0 199 (C1) n - 1
REM
REM in /home/bkarasulu/work/CARBON/AIRSS/Generating-Clusters/AIREBO/with-SteepDescent/Only-C1/SD-CG-opt/Try1-1.4A-POS3A/HFTN-CG
REM
REM
REM
REM
REM
REM ./C.cell (11c1c37f851c82e70ff6c80c92926a4b)
REM
REM compiler GCC version 9.2.1 20190827 (Red Hat 9.2.1-1)
REM options -cpp -mtune=generic -march=x86-64 -g -O0 -fpre-include=/usr/include/finclude/math-vector-fortran.h
REM seed 1733440754 556795299 1943265277 -397820327 1070574833 -87051786 687376414 1586947345 -1576184266 -234294047 -129099713 388600158 1107719472 -996110775 -1149352902 1025576142 391286189 -229000817 115535419 110949724 -229609860 -1879964197 1334887558 -1107860792 2058321547 480712126 -714468440 695264419 -76799398 -170946281 1255171467 -1314411464 483750059
REM
CELL 1.54180   50.00000   50.00000   50.00000   90.00000   90.00000   90.00000
LATT -1
SFAC C  
C      1  0.5298930000000  0.4572450000000  0.5028410000000 1.0
C      1  0.5288010000000  0.4168900000000  0.4675320000000 1.0
C      1  0.4572720000000  0.3848530000000  0.5198110000000 1.0
C      1  0.5189870000000  0.4028440000000  0.4380760000000 1.0
C      1  0.4802160000000  0.4032880000000  0.4932240000000 1.0
C      1  0.4797480000000  0.5948030000000  0.5452770000000 1.0
C      1  0.5596650000000  0.5456300000000  0.5948650000000 1.0
C      1  0.5298400000000  0.6110640000000  0.5414960000000 1.0
C      1  0.4876480000000  0.5156780000000  0.3898110000000 1.0
C      1  0.5097650000000  0.5506770000000  0.5586800000000 1.0
C      1  0.4841930000000  0.4888320000000  0.4787170000000 1.0
C      1  0.5035310000000  0.5519200000000  0.5301330000000 1.0
C      1  0.5633070000000  0.4992730000000  0.4169780000000 1.0
C      1  0.5725070000000  0.5531230000000  0.4243510000000 1.0
C      1  0.5597260000000  0.5287590000000  0.4763350000000 1.0
C      1  0.4563980000000  0.4622790000000  0.5192810000000 1.0
C      1  0.5621180000000  0.4609900000000  0.4577480000000 1.0
C      1  0.3704860000000  0.4981270000000  0.5261970000000 1.0
C      1  0.4073020000000  0.5628880000000  0.5407550000000 1.0
C      1  0.4529050000000  0.4213940000000  0.4936100000000 1.0
C      1  0.4818970000000  0.5072350000000  0.5497710000000 1.0
C      1  0.4759400000000  0.5249560000000  0.6007760000000 1.0
C      1  0.4689540000000  0.3927790000000  0.4566500000000 1.0
C      1  0.4823730000000  0.4335380000000  0.3952950000000 1.0
C      1  0.4986290000000  0.4602520000000  0.4061470000000 1.0
C      1  0.4403480000000  0.4564180000000  0.5791270000000 1.0
C      1  0.4453360000000  0.5251600000000  0.5014300000000 1.0
C      1  0.4438100000000  0.6032480000000  0.5072610000000 1.0
C      1  0.4586480000000  0.5923490000000  0.4563790000000 1.0
C      1  0.4502150000000  0.5742720000000  0.5824090000000 1.0
C      1  0.3909320000000  0.5189220000000  0.5439920000000 1.0
C      1  0.5351270000000  0.4688830000000  0.4458110000000 1.0
C      1  0.6029390000000  0.5116640000000  0.5598810000000 1.0
C      1  0.4666510000000  0.5179590000000  0.4788910000000 1.0
C      1  0.5879730000000  0.4801880000000  0.4183680000000 1.0
C      1  0.5504410000000  0.5910130000000  0.4639670000000 1.0
C      1  0.5560890000000  0.4354720000000  0.5397580000000 1.0
C      1  0.4725500000000  0.5794470000000  0.4288710000000 1.0
C      1  0.4343350000000  0.5931090000000  0.4761640000000 1.0
C      1  0.3887000000000  0.5429250000000  0.4944370000000 1.0
C      1  0.4504410000000  0.5033880000000  0.6008110000000 1.0
C      1  0.3963390000000  0.5153820000000  0.4710810000000 1.0
C      1  0.4700820000000  0.5371520000000  0.5567810000000 1.0
C      1  0.5387960000000  0.4855340000000  0.4044050000000 1.0
C      1  0.5335980000000  0.4282790000000  0.4204370000000 1.0
C      1  0.4797010000000  0.5843010000000  0.5740180000000 1.0
C      1  0.4952550000000  0.4924850000000  0.5102320000000 1.0
C      1  0.5377420000000  0.5444250000000  0.4070620000000 1.0
C      1  0.5753740000000  0.4367660000000  0.5134000000000 1.0
C      1  0.5678900000000  0.4074050000000  0.5040110000000 1.0
C      1  0.4060380000000  0.5809260000000  0.4617530000000 1.0
C      1  0.4163200000000  0.4742200000000  0.5000400000000 1.0
C      1  0.5007280000000  0.5062440000000  0.6061220000000 1.0
C      1  0.4873890000000  0.5844460000000  0.4963440000000 1.0
C      1  0.5959320000000  0.5432480000000  0.4656520000000 1.0
C      1  0.4903730000000  0.3922540000000  0.5222190000000 1.0
C      1  0.5610880000000  0.5388080000000  0.5421320000000 1.0
C      1  0.5862130000000  0.5572020000000  0.4924580000000 1.0
C      1  0.4744150000000  0.5621540000000  0.4567680000000 1.0
C      1  0.4997770000000  0.5652780000000  0.6110120000000 1.0
C      1  0.5887710000000  0.5584250000000  0.5632680000000 1.0
C      1  0.5104170000000  0.4338810000000  0.5144020000000 1.0
C      1  0.4717170000000  0.4589420000000  0.4790330000000 1.0
C      1  0.4617450000000  0.5436640000000  0.5247840000000 1.0
C      1  0.5372470000000  0.4117060000000  0.5493750000000 1.0
C      1  0.4550510000000  0.5089530000000  0.5289770000000 1.0
C      1  0.4238640000000  0.4974920000000  0.4685250000000 1.0
C      1  0.5873290000000  0.5379830000000  0.5205090000000 1.0
C      1  0.5362810000000  0.5724180000000  0.5785320000000 1.0
C      1  0.5565990000000  0.4515050000000  0.5890540000000 1.0
C      1  0.4329030000000  0.5793280000000  0.5534750000000 1.0
C      1  0.4834950000000  0.4204800000000  0.4433260000000 1.0
C      1  0.5008500000000  0.4198190000000  0.4169000000000 1.0
C      1  0.4778530000000  0.4412640000000  0.5054220000000 1.0
C      1  0.4944140000000  0.5275030000000  0.4863750000000 1.0
C      1  0.5038140000000  0.4333360000000  0.5477510000000 1.0
C      1  0.4514370000000  0.4162340000000  0.4385150000000 1.0
C      1  0.5780820000000  0.4663550000000  0.5085510000000 1.0
C      1  0.5570310000000  0.4881170000000  0.5346170000000 1.0
C      1  0.5221090000000  0.5128070000000  0.5894590000000 1.0
C      1  0.5390600000000  0.4623000000000  0.5352000000000 1.0
C      1  0.4706820000000  0.4206700000000  0.5897830000000 1.0
C      1  0.4046860000000  0.5622830000000  0.5131760000000 1.0
C      1  0.5401690000000  0.4189230000000  0.5073690000000 1.0
C      1  0.5845270000000  0.5176460000000  0.4965940000000 1.0
C      1  0.5571620000000  0.5121850000000  0.4462950000000 1.0
C      1  0.4253680000000  0.5685670000000  0.4944040000000 1.0
C      1  0.4553030000000  0.5372040000000  0.4550990000000 1.0
C      1  0.5006340000000  0.5078090000000  0.4268020000000 1.0
C      1  0.5632380000000  0.4274580000000  0.4305440000000 1.0
C      1  0.4895690000000  0.4663650000000  0.5813710000000 1.0
C      1  0.4114170000000  0.4670320000000  0.4671700000000 1.0
C      1  0.5218400000000  0.3965370000000  0.5229980000000 1.0
C      1  0.5339460000000  0.5982530000000  0.4848580000000 1.0
C      1  0.4442880000000  0.4031840000000  0.5453630000000 1.0
C      1  0.5129940000000  0.3969300000000  0.4900820000000 1.0
C      1  0.6003660000000  0.4878830000000  0.4991440000000 1.0
C      1  0.5093670000000  0.5406420000000  0.4254120000000 1.0
C      1  0.5444600000000  0.5653600000000  0.4308740000000 1.0
C      1  0.4341010000000  0.5512470000000  0.4129440000000 1.0
C      1  0.5105220000000  0.5827120000000  0.5882880000000 1.0
C      1  0.4664910000000  0.4475740000000  0.5895790000000 1.0
C      1  0.5178290000000  0.4575130000000  0.5950280000000 1.0
C      1  0.4806790000000  0.5718640000000  0.5232490000000 1.0
C      1  0.5551040000000  0.4779290000000  0.4931960000000 1.0
C      1  0.5441510000000  0.4786340000000  0.5960320000000 1.0
C      1  0.4704440000000  0.6209190000000  0.4647710000000 1.0
C      1  0.4772290000000  0.4201700000000  0.5311350000000 1.0
C      1  0.5644780000000  0.5288590000000  0.4069720000000 1.0
C      1  0.4013200000000  0.4883860000000  0.5369950000000 1.0
C      1  0.4897380000000  0.5473610000000  0.3914040000000 1.0
C      1  0.5291160000000  0.5269300000000  0.4494640000000 1.0
C      1  0.6000900000000  0.5367540000000  0.5496090000000 1.0
C      1  0.5012230000000  0.3891140000000  0.4604090000000 1.0
C      1  0.5727900000000  0.5780220000000  0.5114340000000 1.0
C      1  0.4824000000000  0.4925650000000  0.4449610000000 1.0
C      1  0.4069860000000  0.5357580000000  0.5614560000000 1.0
C      1  0.3938370000000  0.5173480000000  0.5106590000000 1.0
C      1  0.4555200000000  0.5068330000000  0.3965680000000 1.0
C      1  0.6006370000000  0.4527600000000  0.4624380000000 1.0
C      1  0.5403900000000  0.5778490000000  0.5059690000000 1.0
C      1  0.4463140000000  0.5731800000000  0.4127120000000 1.0
C      1  0.4340200000000  0.4238000000000  0.5213890000000 1.0
C      1  0.5221060000000  0.5535040000000  0.5038540000000 1.0
C      1  0.4611700000000  0.4505590000000  0.4159550000000 1.0
C      1  0.5751600000000  0.3987120000000  0.4794550000000 1.0
C      1  0.5164090000000  0.5017240000000  0.4006840000000 1.0
C      1  0.5642970000000  0.5279390000000  0.5716850000000 1.0
C      1  0.4341660000000  0.4828460000000  0.5347460000000 1.0
C      1  0.4544770000000  0.3824210000000  0.4857890000000 1.0
C      1  0.4527820000000  0.4832590000000  0.4200150000000 1.0
C      1  0.4021690000000  0.5480400000000  0.4636280000000 1.0
C      1  0.4805730000000  0.4844460000000  0.4013430000000 1.0
C      1  0.4459820000000  0.5221940000000  0.4260230000000 1.0
C      1  0.4491000000000  0.4977740000000  0.4494870000000 1.0
C      1  0.5314520000000  0.4320260000000  0.5767470000000 1.0
C      1  0.4857310000000  0.5519320000000  0.5825170000000 1.0
C      1  0.4884150000000  0.4767200000000  0.5370390000000 1.0
C      1  0.5675900000000  0.4906970000000  0.4679030000000 1.0
C      1  0.5255260000000  0.4909230000000  0.5044990000000 1.0
C      1  0.4969440000000  0.5704130000000  0.4134360000000 1.0
C      1  0.4741520000000  0.6450120000000  0.4536180000000 1.0
C      1  0.5087550000000  0.6072170000000  0.4874790000000 1.0
C      1  0.4757830000000  0.5377430000000  0.4208800000000 1.0
C      1  0.5835610000000  0.4846170000000  0.5644990000000 1.0
C      1  0.5050270000000  0.6127720000000  0.5418360000000 1.0
C      1  0.3999370000000  0.5305570000000  0.4345360000000 1.0
C      1  0.6120260000000  0.4767740000000  0.4726800000000 1.0
C      1  0.5806150000000  0.4558400000000  0.5746470000000 1.0
C      1  0.5513400000000  0.5897690000000  0.5343160000000 1.0
C      1  0.4745710000000  0.4071310000000  0.5603780000000 1.0
C      1  0.4713310000000  0.4912490000000  0.5768520000000 1.0
C      1  0.4455880000000  0.4344890000000  0.5581060000000 1.0
C      1  0.4363250000000  0.4259850000000  0.4644330000000 1.0
C      1  0.4277290000000  0.5151390000000  0.5788010000000 1.0
C      1  0.5052270000000  0.4106930000000  0.5730770000000 1.0
C      1  0.5944670000000  0.5557380000000  0.4415710000000 1.0
C      1  0.5163020000000  0.5115020000000  0.4716750000000 1.0
C      1  0.5012690000000  0.5596510000000  0.4776740000000 1.0
C      1  0.4391870000000  0.4851540000000  0.5675880000000 1.0
C      1  0.5255570000000  0.4944990000000  0.5645220000000 1.0
C      1  0.4421680000000  0.4557100000000  0.4762390000000 1.0
C      1  0.5758630000000  0.4386800000000  0.4794440000000 1.0
C      1  0.5285770000000  0.4588600000000  0.4171570000000 1.0
C      1  0.5595510000000  0.4170810000000  0.4592150000000 1.0
C      1  0.5148120000000  0.4790440000000  0.4676130000000 1.0
C      1  0.5825710000000  0.4540240000000  0.4333780000000 1.0
C      1  0.5941710000000  0.5117530000000  0.4654210000000 1.0
C      1  0.4157930000000  0.5069620000000  0.4297050000000 1.0
C      1  0.4480490000000  0.5411320000000  0.5897290000000 1.0
C      1  0.5574610000000  0.4988110000000  0.5745330000000 1.0
C      1  0.5352790000000  0.5227540000000  0.4975610000000 1.0
C      1  0.4184670000000  0.4536340000000  0.5271850000000 1.0
C      1  0.4652220000000  0.4543230000000  0.5478640000000 1.0
C      1  0.5183690000000  0.4456350000000  0.4730340000000 1.0
C      1  0.4845920000000  0.4642060000000  0.4355420000000 1.0
C      1  0.5442330000000  0.5157940000000  0.5296200000000 1.0
C      1  0.4491430000000  0.5957680000000  0.5338100000000 1.0
C      1  0.5290360000000  0.5578320000000  0.4580260000000 1.0
C      1  0.4903970000000  0.4459890000000  0.4585170000000 1.0
C      1  0.5834880000000  0.4372410000000  0.5551160000000 1.0
C      1  0.5281780000000  0.5404980000000  0.5830960000000 1.0
C      1  0.5039590000000  0.4806630000000  0.6157500000000 1.0
C      1  0.6125210000000  0.4909810000000  0.4245480000000 1.0
C      1  0.5604900000000  0.5609960000000  0.4705550000000 1.0
C      1  0.4354030000000  0.4471010000000  0.4377860000000 1.0
C      1  0.4390300000000  0.5463620000000  0.5573610000000 1.0
C      1  0.6174180000000  0.4969560000000  0.4517620000000 1.0
C      1  0.4959960000000  0.5248390000000  0.5168260000000 1.0
C      1  0.5902510000000  0.4863310000000  0.5317670000000 1.0
C      1  0.5141920000000  0.5113580000000  0.5399120000000 1.0
C      1  0.4683570000000  0.6083240000000  0.4915390000000 1.0
C      1  0.4184460000000  0.4409900000000  0.4965280000000 1.0
C      1  0.4171430000000  0.4757930000000  0.4356130000000 1.0
C      1  0.5315380000000  0.3923620000000  0.5752020000000 1.0
C      1  0.4193320000000  0.5046370000000  0.5015160000000 1.0
C      1  0.5122820000000  0.4643380000000  0.5561290000000 1.0
C      1  0.5574500000000  0.5695750000000  0.5562120000000 1.0
C      1  0.4327900000000  0.5432350000000  0.4773360000000 1.0
END
