TITL C-2848497-6229-93 -0.00540878120381255 125000 -464.294591283992 0 0 80 (C1) n - 1
REM
REM in /home/bkarasulu/work/CARBON/AIRSS/Generating-Clusters/AIREBO/with-SteepDescent/Only-C1/SD-CG-opt/Try1-1.4A-POS3A/HFTN-CG
REM
REM
REM
REM
REM
REM ./C.cell (11c1c37f851c82e70ff6c80c92926a4b)
REM
REM compiler GCC version 9.2.1 20190827 (Red Hat 9.2.1-1)
REM options -cpp -mtune=generic -march=x86-64 -g -O0 -fpre-include=/usr/include/finclude/math-vector-fortran.h
REM seed 342916423 411953700 845892756 -1254773032 980374044 -1227809959 704176803 -1414436073 -885670250 -1153492177 -361591475 -583745786 695897127 -1781530918 -1970951052 2059494131 1831269674 1000176260 -903306054 -204955227 -614572950 -1166507783 -1635618713 1447748059 1322944603 -902952639 1613965718 -1122494819 -1094133664 -1710761823 -169009467 1438693061 -1562116361
REM
CELL 1.54180   50.00000   50.00000   50.00000   90.00000   90.00000   90.00000
LATT -1
SFAC C  
C      1  0.4703050000000  0.4188880000000  0.4837970000000 1.0
C      1  0.4642370000000  0.4355510000000  0.5111360000000 1.0
C      1  0.4842330000000  0.5384870000000  0.4130450000000 1.0
C      1  0.5701720000000  0.5074420000000  0.5628460000000 1.0
C      1  0.5509070000000  0.4475240000000  0.4978200000000 1.0
C      1  0.5054110000000  0.4670970000000  0.5469580000000 1.0
C      1  0.5035950000000  0.5723440000000  0.4474500000000 1.0
C      1  0.5551040000000  0.4682550000000  0.4789950000000 1.0
C      1  0.5267960000000  0.4290100000000  0.5722480000000 1.0
C      1  0.4776400000000  0.5492590000000  0.5476470000000 1.0
C      1  0.4866050000000  0.4461530000000  0.4432500000000 1.0
C      1  0.5501130000000  0.5107800000000  0.4413600000000 1.0
C      1  0.4800220000000  0.4964290000000  0.4339030000000 1.0
C      1  0.4683130000000  0.4805780000000  0.5520230000000 1.0
C      1  0.4800130000000  0.5004140000000  0.4634340000000 1.0
C      1  0.5247360000000  0.5077800000000  0.4221490000000 1.0
C      1  0.5166660000000  0.4169180000000  0.4758280000000 1.0
C      1  0.5132410000000  0.4473440000000  0.4610280000000 1.0
C      1  0.4370960000000  0.5520340000000  0.5231990000000 1.0
C      1  0.5616280000000  0.4943180000000  0.4878100000000 1.0
C      1  0.4353460000000  0.5286570000000  0.4654350000000 1.0
C      1  0.4758060000000  0.5643260000000  0.4525410000000 1.0
C      1  0.4732860000000  0.4415050000000  0.5814000000000 1.0
C      1  0.4662390000000  0.4372040000000  0.4607400000000 1.0
C      1  0.5139840000000  0.5516530000000  0.5231060000000 1.0
C      1  0.5332320000000  0.6012870000000  0.4143940000000 1.0
C      1  0.4640830000000  0.4154660000000  0.5346520000000 1.0
C      1  0.5252460000000  0.4364560000000  0.4975090000000 1.0
C      1  0.4482170000000  0.5047010000000  0.4258680000000 1.0
C      1  0.5110820000000  0.5096450000000  0.5871460000000 1.0
C      1  0.5211380000000  0.5747370000000  0.4914180000000 1.0
C      1  0.5133840000000  0.5057490000000  0.6139970000000 1.0
C      1  0.4949260000000  0.4905100000000  0.5686620000000 1.0
C      1  0.4763920000000  0.4221590000000  0.5570980000000 1.0
C      1  0.4453750000000  0.5005380000000  0.5229110000000 1.0
C      1  0.5495650000000  0.5305540000000  0.5641010000000 1.0
C      1  0.4589990000000  0.4639740000000  0.5773710000000 1.0
C      1  0.6478790000000  0.4860060000000  0.5340480000000 1.0
C      1  0.4930050000000  0.4026240000000  0.4807170000000 1.0
C      1  0.5399190000000  0.4815540000000  0.4341420000000 1.0
C      1  0.5039950000000  0.5322500000000  0.5458180000000 1.0
C      1  0.5380120000000  0.4801980000000  0.5167870000000 1.0
C      1  0.5433570000000  0.5417190000000  0.4878780000000 1.0
C      1  0.4700900000000  0.4899060000000  0.5132930000000 1.0
C      1  0.5994340000000  0.4993870000000  0.5179350000000 1.0
C      1  0.5383640000000  0.4640280000000  0.4556950000000 1.0
C      1  0.4561130000000  0.4854290000000  0.4761770000000 1.0
C      1  0.5156440000000  0.5001210000000  0.5448490000000 1.0
C      1  0.4250770000000  0.5070670000000  0.5045350000000 1.0
C      1  0.4952390000000  0.4984190000000  0.4932710000000 1.0
C      1  0.5089970000000  0.4753970000000  0.5141790000000 1.0
C      1  0.5580690000000  0.5286400000000  0.5311660000000 1.0
C      1  0.5182720000000  0.5201070000000  0.4812630000000 1.0
C      1  0.4339080000000  0.5023810000000  0.4779680000000 1.0
C      1  0.5185280000000  0.5880050000000  0.4315450000000 1.0
C      1  0.4985150000000  0.5145260000000  0.4190410000000 1.0
C      1  0.4648730000000  0.5482550000000  0.4323480000000 1.0
C      1  0.5464650000000  0.4988330000000  0.5400980000000 1.0
C      1  0.4725830000000  0.4628370000000  0.5247210000000 1.0
C      1  0.4980530000000  0.4557100000000  0.4907120000000 1.0
C      1  0.4422450000000  0.4914130000000  0.5715650000000 1.0
C      1  0.4909340000000  0.5680640000000  0.5041940000000 1.0
C      1  0.5733340000000  0.5056190000000  0.5113220000000 1.0
C      1  0.4172310000000  0.5344180000000  0.5066950000000 1.0
C      1  0.5228220000000  0.5293950000000  0.5709840000000 1.0
C      1  0.4446220000000  0.5125650000000  0.5491950000000 1.0
C      1  0.4703920000000  0.5581430000000  0.4833050000000 1.0
C      1  0.5086190000000  0.5511030000000  0.4711140000000 1.0
C      1  0.4526770000000  0.4769440000000  0.4128330000000 1.0
C      1  0.4822770000000  0.5301100000000  0.4731600000000 1.0
C      1  0.5031990000000  0.4407400000000  0.5639630000000 1.0
C      1  0.5409080000000  0.5474760000000  0.5150100000000 1.0
C      1  0.4784510000000  0.4649120000000  0.4252450000000 1.0
C      1  0.6236040000000  0.4914100000000  0.5257730000000 1.0
C      1  0.4821590000000  0.5730150000000  0.5344210000000 1.0
C      1  0.5487630000000  0.5148940000000  0.4703780000000 1.0
C      1  0.4432950000000  0.5298700000000  0.4381750000000 1.0
C      1  0.4648760000000  0.4582540000000  0.4857900000000 1.0
C      1  0.4512160000000  0.5402830000000  0.5450190000000 1.0
C      1  0.4408500000000  0.5522450000000  0.4894000000000 1.0
END
