TITL C-2848503-6230-252 0.0108467444806992 125000 -998.292019437526 0 0 191 (C1) n - 1
REM
REM in /home/bkarasulu/work/CARBON/AIRSS/Generating-Clusters/AIREBO/with-SteepDescent/Only-C1/SD-CG-opt/Try1-1.4A-POS3A/HFTN-CG
REM
REM
REM
REM
REM
REM ./C.cell (11c1c37f851c82e70ff6c80c92926a4b)
REM
REM compiler GCC version 9.2.1 20190827 (Red Hat 9.2.1-1)
REM options -cpp -mtune=generic -march=x86-64 -g -O0 -fpre-include=/usr/include/finclude/math-vector-fortran.h
REM seed -42902030 666198240 479329087 -669174457 -24454017 1308889824 -1121491889 -34295052 -1974853444 -1938888625 285243850 -2038777344 -935123256 -756302978 587023439 312878863 -139244119 -362297455 -351749385 1132737315 937510664 -377743716 39698848 -319092773 -611427061 -1654556102 -1349000212 384168134 -1878100178 1270604576 999410481 -286676734 -1266610433
REM
CELL 1.54180   50.00000   50.00000   50.00000   90.00000   90.00000   90.00000
LATT -1
SFAC C  
C      1  0.4646980000000  0.5333500000000  0.4348410000000 1.0
C      1  0.5670130000000  0.4758060000000  0.5927920000000 1.0
C      1  0.5415690000000  0.4580730000000  0.5606630000000 1.0
C      1  0.4937620000000  0.5648500000000  0.5780200000000 1.0
C      1  0.4531040000000  0.5339600000000  0.3846570000000 1.0
C      1  0.4339790000000  0.4360140000000  0.5655900000000 1.0
C      1  0.5131640000000  0.4870770000000  0.4916540000000 1.0
C      1  0.5418010000000  0.5958440000000  0.5518670000000 1.0
C      1  0.4848450000000  0.4698190000000  0.3950840000000 1.0
C      1  0.4482370000000  0.4407240000000  0.3910320000000 1.0
C      1  0.5460770000000  0.4281020000000  0.5232260000000 1.0
C      1  0.4382370000000  0.5660630000000  0.4505230000000 1.0
C      1  0.4931280000000  0.4363880000000  0.5397750000000 1.0
C      1  0.4952860000000  0.4273340000000  0.4072710000000 1.0
C      1  0.4756920000000  0.4311490000000  0.4839440000000 1.0
C      1  0.4344130000000  0.5923680000000  0.5323850000000 1.0
C      1  0.4924400000000  0.4471080000000  0.4513560000000 1.0
C      1  0.5487930000000  0.5152160000000  0.4633340000000 1.0
C      1  0.5040130000000  0.4050980000000  0.5321300000000 1.0
C      1  0.4682010000000  0.4373420000000  0.5629210000000 1.0
C      1  0.4355300000000  0.4647460000000  0.4980730000000 1.0
C      1  0.4655150000000  0.4306980000000  0.4531310000000 1.0
C      1  0.3922050000000  0.4595390000000  0.5200280000000 1.0
C      1  0.6097380000000  0.4831260000000  0.5149010000000 1.0
C      1  0.4510650000000  0.4848680000000  0.5964880000000 1.0
C      1  0.5377210000000  0.5224630000000  0.5942140000000 1.0
C      1  0.5321850000000  0.4934770000000  0.5773230000000 1.0
C      1  0.4349780000000  0.5737590000000  0.5054260000000 1.0
C      1  0.5649530000000  0.4386030000000  0.4472400000000 1.0
C      1  0.4660350000000  0.4838070000000  0.5110020000000 1.0
C      1  0.5639270000000  0.4871270000000  0.4752640000000 1.0
C      1  0.5018010000000  0.5421620000000  0.4765920000000 1.0
C      1  0.5441260000000  0.5895020000000  0.4717840000000 1.0
C      1  0.4315920000000  0.4585810000000  0.4056180000000 1.0
C      1  0.5139790000000  0.5955160000000  0.4453730000000 1.0
C      1  0.5259730000000  0.5155280000000  0.5261160000000 1.0
C      1  0.5093770000000  0.4101530000000  0.4545520000000 1.0
C      1  0.4034750000000  0.5291910000000  0.4652440000000 1.0
C      1  0.4178770000000  0.4529420000000  0.4302710000000 1.0
C      1  0.4713950000000  0.5096390000000  0.6024340000000 1.0
C      1  0.5301940000000  0.4766570000000  0.4570220000000 1.0
C      1  0.5792200000000  0.5693250000000  0.4991900000000 1.0
C      1  0.4577900000000  0.5265110000000  0.5790560000000 1.0
C      1  0.5547350000000  0.4681910000000  0.4413470000000 1.0
C      1  0.4943510000000  0.5406060000000  0.5541850000000 1.0
C      1  0.5913290000000  0.4807690000000  0.5695440000000 1.0
C      1  0.5354230000000  0.4720080000000  0.6035070000000 1.0
C      1  0.5423480000000  0.5418100000000  0.5595600000000 1.0
C      1  0.4607920000000  0.3946880000000  0.4697600000000 1.0
C      1  0.5472040000000  0.4413270000000  0.4738430000000 1.0
C      1  0.5758660000000  0.4846070000000  0.5175190000000 1.0
C      1  0.5475520000000  0.5750370000000  0.5103010000000 1.0
C      1  0.5089800000000  0.5192960000000  0.4305100000000 1.0
C      1  0.5338310000000  0.4278570000000  0.4387140000000 1.0
C      1  0.5228840000000  0.4422240000000  0.4130300000000 1.0
C      1  0.4893970000000  0.4017200000000  0.4808750000000 1.0
C      1  0.5003350000000  0.4634880000000  0.5087390000000 1.0
C      1  0.5491340000000  0.5557210000000  0.4052190000000 1.0
C      1  0.4061940000000  0.5159250000000  0.5250480000000 1.0
C      1  0.5333670000000  0.5486640000000  0.5264050000000 1.0
C      1  0.4292690000000  0.4909390000000  0.5249380000000 1.0
C      1  0.4247030000000  0.5053850000000  0.4297640000000 1.0
C      1  0.5665740000000  0.4526240000000  0.5116210000000 1.0
C      1  0.5349560000000  0.5022070000000  0.4350980000000 1.0
C      1  0.4250400000000  0.4172640000000  0.5449760000000 1.0
C      1  0.5309150000000  0.4289180000000  0.5745430000000 1.0
C      1  0.5539070000000  0.5455790000000  0.4481540000000 1.0
C      1  0.5423890000000  0.5554840000000  0.5875660000000 1.0
C      1  0.5664550000000  0.5216310000000  0.5578160000000 1.0
C      1  0.4308980000000  0.5873900000000  0.4759790000000 1.0
C      1  0.6060400000000  0.5274130000000  0.4839660000000 1.0
C      1  0.5988110000000  0.5473920000000  0.5108830000000 1.0
C      1  0.4118960000000  0.4258660000000  0.4881410000000 1.0
C      1  0.4542490000000  0.4411680000000  0.5321020000000 1.0
C      1  0.5570660000000  0.4223720000000  0.5538110000000 1.0
C      1  0.4642900000000  0.5983450000000  0.5164910000000 1.0
C      1  0.4956260000000  0.5233130000000  0.4018990000000 1.0
C      1  0.5730750000000  0.4887050000000  0.4349030000000 1.0
C      1  0.4700660000000  0.5783410000000  0.4499370000000 1.0
C      1  0.5152350000000  0.4371430000000  0.4728750000000 1.0
C      1  0.5202540000000  0.5153900000000  0.4782010000000 1.0
C      1  0.4275800000000  0.5196110000000  0.5678990000000 1.0
C      1  0.4335120000000  0.5324510000000  0.4483810000000 1.0
C      1  0.5969770000000  0.5184240000000  0.5720190000000 1.0
C      1  0.4515380000000  0.5128970000000  0.4695730000000 1.0
C      1  0.4799230000000  0.5072880000000  0.4354180000000 1.0
C      1  0.5023220000000  0.5544440000000  0.5275020000000 1.0
C      1  0.4771490000000  0.4935050000000  0.4630460000000 1.0
C      1  0.5591150000000  0.5288450000000  0.4927360000000 1.0
C      1  0.5212620000000  0.5642110000000  0.4916280000000 1.0
C      1  0.5150750000000  0.5860160000000  0.5705610000000 1.0
C      1  0.5234580000000  0.4429970000000  0.5053500000000 1.0
C      1  0.4578330000000  0.5166870000000  0.5139500000000 1.0
C      1  0.4905250000000  0.3875080000000  0.5082750000000 1.0
C      1  0.4480420000000  0.4669300000000  0.4517520000000 1.0
C      1  0.5645450000000  0.5351120000000  0.5270310000000 1.0
C      1  0.6019670000000  0.4998700000000  0.5434630000000 1.0
C      1  0.5404180000000  0.4756300000000  0.5337170000000 1.0
C      1  0.6015610000000  0.5338400000000  0.5420580000000 1.0
C      1  0.5819440000000  0.4590140000000  0.4684850000000 1.0
C      1  0.4332840000000  0.5039130000000  0.4941320000000 1.0
C      1  0.3902570000000  0.4896380000000  0.5104950000000 1.0
C      1  0.4349630000000  0.4209720000000  0.5126500000000 1.0
C      1  0.5152620000000  0.6103930000000  0.5118780000000 1.0
C      1  0.5332300000000  0.4006540000000  0.5489480000000 1.0
C      1  0.4007210000000  0.4888670000000  0.5449150000000 1.0
C      1  0.5853070000000  0.5449520000000  0.4409420000000 1.0
C      1  0.5006430000000  0.4739100000000  0.4649840000000 1.0
C      1  0.4841770000000  0.4010380000000  0.5594460000000 1.0
C      1  0.4852200000000  0.4131650000000  0.4316400000000 1.0
C      1  0.5379570000000  0.4919540000000  0.3941690000000 1.0
C      1  0.4843070000000  0.4970140000000  0.3842690000000 1.0
C      1  0.4137110000000  0.5357610000000  0.5484940000000 1.0
C      1  0.5404190000000  0.4584680000000  0.3887060000000 1.0
C      1  0.4339760000000  0.4360990000000  0.4549160000000 1.0
C      1  0.5045640000000  0.5146600000000  0.5968030000000 1.0
C      1  0.4402570000000  0.4133440000000  0.4794310000000 1.0
C      1  0.4922940000000  0.6038450000000  0.5267600000000 1.0
C      1  0.5854660000000  0.5682200000000  0.4657380000000 1.0
C      1  0.6006000000000  0.5230000000000  0.4567620000000 1.0
C      1  0.5689790000000  0.5370340000000  0.4124240000000 1.0
C      1  0.4067700000000  0.4864230000000  0.4809350000000 1.0
C      1  0.5824540000000  0.4358660000000  0.5355750000000 1.0
C      1  0.4097260000000  0.4527660000000  0.4847470000000 1.0
C      1  0.4843200000000  0.4885560000000  0.5393030000000 1.0
C      1  0.5159900000000  0.5082700000000  0.3801710000000 1.0
C      1  0.4928330000000  0.4938450000000  0.5725690000000 1.0
C      1  0.5104300000000  0.5463410000000  0.4439580000000 1.0
C      1  0.4637960000000  0.5281040000000  0.5455060000000 1.0
C      1  0.5946750000000  0.4958240000000  0.4515290000000 1.0
C      1  0.5120590000000  0.4671440000000  0.5717040000000 1.0
C      1  0.4953260000000  0.4920610000000  0.6204750000000 1.0
C      1  0.4921000000000  0.4670470000000  0.4266060000000 1.0
C      1  0.4719180000000  0.5464520000000  0.4066950000000 1.0
C      1  0.4045680000000  0.5362190000000  0.4983070000000 1.0
C      1  0.5692210000000  0.5698610000000  0.5686640000000 1.0
C      1  0.4917790000000  0.4483820000000  0.6005020000000 1.0
C      1  0.5968060000000  0.4842940000000  0.4834690000000 1.0
C      1  0.4992550000000  0.5073240000000  0.5151890000000 1.0
C      1  0.4843140000000  0.5361850000000  0.5051540000000 1.0
C      1  0.4161590000000  0.5574230000000  0.4743360000000 1.0
C      1  0.4633680000000  0.3916960000000  0.4420040000000 1.0
C      1  0.5860500000000  0.5159150000000  0.5089750000000 1.0
C      1  0.4732700000000  0.4508270000000  0.5068550000000 1.0
C      1  0.4410370000000  0.4894290000000  0.4058320000000 1.0
C      1  0.5201800000000  0.5191230000000  0.5584800000000 1.0
C      1  0.4721550000000  0.5486970000000  0.4624130000000 1.0
C      1  0.4245420000000  0.4574910000000  0.5289500000000 1.0
C      1  0.5388510000000  0.5742870000000  0.4450950000000 1.0
C      1  0.5085810000000  0.4675510000000  0.6154920000000 1.0
C      1  0.4644070000000  0.4089080000000  0.5359050000000 1.0
C      1  0.4883340000000  0.5647010000000  0.4272220000000 1.0
C      1  0.4572610000000  0.4749560000000  0.4797110000000 1.0
C      1  0.5682470000000  0.5982020000000  0.4852320000000 1.0
C      1  0.4631380000000  0.5922340000000  0.4848600000000 1.0
C      1  0.5437880000000  0.4127920000000  0.4865160000000 1.0
C      1  0.4670530000000  0.5648640000000  0.5111950000000 1.0
C      1  0.5388840000000  0.6004050000000  0.5251070000000 1.0
C      1  0.5680590000000  0.5077610000000  0.5874440000000 1.0
C      1  0.5423300000000  0.4690800000000  0.4943530000000 1.0
C      1  0.4766090000000  0.4425980000000  0.3928210000000 1.0
C      1  0.4893850000000  0.5990960000000  0.4666300000000 1.0
C      1  0.4773370000000  0.4718880000000  0.5909100000000 1.0
C      1  0.5002900000000  0.5822600000000  0.5427970000000 1.0
C      1  0.4629160000000  0.4806690000000  0.4280080000000 1.0
C      1  0.5211000000000  0.5667430000000  0.4187690000000 1.0
C      1  0.4542450000000  0.5593180000000  0.5413280000000 1.0
C      1  0.5152560000000  0.5960750000000  0.4851920000000 1.0
C      1  0.4547600000000  0.5060950000000  0.3843780000000 1.0
C      1  0.4182750000000  0.4810630000000  0.4493830000000 1.0
C      1  0.5475520000000  0.5532430000000  0.4775270000000 1.0
C      1  0.4185230000000  0.4649530000000  0.5615710000000 1.0
C      1  0.5451680000000  0.4974630000000  0.5131270000000 1.0
C      1  0.5519120000000  0.4450200000000  0.5959670000000 1.0
C      1  0.4634430000000  0.5576570000000  0.5720750000000 1.0
C      1  0.5459990000000  0.5891150000000  0.5843530000000 1.0
C      1  0.4566370000000  0.4712770000000  0.5478120000000 1.0
C      1  0.4232320000000  0.5615420000000  0.5415470000000 1.0
C      1  0.3858990000000  0.5060520000000  0.4626190000000 1.0
C      1  0.5086010000000  0.4647490000000  0.5391260000000 1.0
C      1  0.4983330000000  0.5399050000000  0.6187090000000 1.0
C      1  0.4970330000000  0.4265490000000  0.5779480000000 1.0
C      1  0.5804050000000  0.5595030000000  0.5446390000000 1.0
C      1  0.4911880000000  0.5619170000000  0.6088950000000 1.0
C      1  0.4376050000000  0.4886990000000  0.5699690000000 1.0
C      1  0.5316040000000  0.4023910000000  0.5124330000000 1.0
C      1  0.5699500000000  0.4717930000000  0.5485500000000 1.0
C      1  0.4348650000000  0.5413070000000  0.5090860000000 1.0
C      1  0.4514820000000  0.5411910000000  0.4830090000000 1.0
C      1  0.5600830000000  0.5081360000000  0.4129720000000 1.0
C      1  0.5214030000000  0.4758330000000  0.4182840000000 1.0
END
