TITL C-2847958-8115-452 -0.00690281041600162 125000 -847.311504203937 0 0 158 (C1) n - 1
REM
REM in /home/bkarasulu/work/CARBON/AIRSS/Generating-Clusters/AIREBO/with-SteepDescent/Only-C1/SD-CG-opt/Try1-1.4A-POS3A/HFTN-CG
REM
REM
REM
REM
REM
REM ./C.cell (11c1c37f851c82e70ff6c80c92926a4b)
REM
REM compiler GCC version 9.2.1 20190827 (Red Hat 9.2.1-1)
REM options -cpp -mtune=generic -march=x86-64 -g -O0 -fpre-include=/usr/include/finclude/math-vector-fortran.h
REM seed -1496868516 2123303966 -810636881 -1710724326 1117889274 -724345781 -1903048648 -739849442 448612463 225356127 -823222946 -1203044023 2082668486 -1204407574 -745936750 -1289986310 1873874970 -2057840546 -807850917 182791894 685801912 1050646190 -1426884749 2032496009 1386991092 -1084889069 1492196542 557930512 2139315327 -1439876006 1825035961 -850905943 -858955174
REM
CELL 1.54180   50.00000   50.00000   50.00000   90.00000   90.00000   90.00000
LATT -1
SFAC C  
C      1  0.5211630000000  0.4706360000000  0.5750670000000 1.0
C      1  0.5387020000000  0.4779510000000  0.4824040000000 1.0
C      1  0.4427890000000  0.5165180000000  0.4777840000000 1.0
C      1  0.4310970000000  0.5511520000000  0.4431470000000 1.0
C      1  0.5346420000000  0.4278070000000  0.5867880000000 1.0
C      1  0.5721130000000  0.5075960000000  0.5276390000000 1.0
C      1  0.4341800000000  0.4587300000000  0.4984740000000 1.0
C      1  0.4261420000000  0.4783080000000  0.5773510000000 1.0
C      1  0.4035540000000  0.5136140000000  0.5434510000000 1.0
C      1  0.6052450000000  0.5437330000000  0.5449700000000 1.0
C      1  0.4868460000000  0.5054160000000  0.5209500000000 1.0
C      1  0.4342730000000  0.4213150000000  0.4708710000000 1.0
C      1  0.4030930000000  0.5315010000000  0.5183690000000 1.0
C      1  0.5048150000000  0.5691750000000  0.5288830000000 1.0
C      1  0.5338610000000  0.5516510000000  0.4086760000000 1.0
C      1  0.4696100000000  0.4078940000000  0.4942830000000 1.0
C      1  0.4632530000000  0.5239520000000  0.4544400000000 1.0
C      1  0.5460460000000  0.3974860000000  0.4657400000000 1.0
C      1  0.5741590000000  0.4840300000000  0.5032500000000 1.0
C      1  0.5983860000000  0.4687520000000  0.5407960000000 1.0
C      1  0.4949210000000  0.5244420000000  0.3929620000000 1.0
C      1  0.4100440000000  0.4684630000000  0.5322810000000 1.0
C      1  0.4886450000000  0.4401770000000  0.4290670000000 1.0
C      1  0.5625720000000  0.4851390000000  0.5471590000000 1.0
C      1  0.4897580000000  0.5518710000000  0.4676080000000 1.0
C      1  0.5685600000000  0.5688650000000  0.5170280000000 1.0
C      1  0.4951420000000  0.5932990000000  0.5591890000000 1.0
C      1  0.5827950000000  0.4286010000000  0.4706120000000 1.0
C      1  0.4465630000000  0.5626740000000  0.5354820000000 1.0
C      1  0.4924220000000  0.4520670000000  0.4700610000000 1.0
C      1  0.4628370000000  0.4382850000000  0.4796220000000 1.0
C      1  0.4412200000000  0.5249220000000  0.5088060000000 1.0
C      1  0.4849240000000  0.3974590000000  0.5259680000000 1.0
C      1  0.4669610000000  0.4675480000000  0.4965390000000 1.0
C      1  0.4562890000000  0.5360800000000  0.4259630000000 1.0
C      1  0.4847840000000  0.5063560000000  0.4868310000000 1.0
C      1  0.5737330000000  0.5344430000000  0.4279370000000 1.0
C      1  0.4055360000000  0.4625150000000  0.4805130000000 1.0
C      1  0.5813230000000  0.5366600000000  0.4975490000000 1.0
C      1  0.5331290000000  0.5484560000000  0.4639900000000 1.0
C      1  0.6061530000000  0.5009850000000  0.4724810000000 1.0
C      1  0.5803720000000  0.5403720000000  0.5313450000000 1.0
C      1  0.4766490000000  0.4895120000000  0.5482670000000 1.0
C      1  0.5115640000000  0.5569020000000  0.4889260000000 1.0
C      1  0.4657580000000  0.4519800000000  0.5925920000000 1.0
C      1  0.5631850000000  0.4289080000000  0.4481820000000 1.0
C      1  0.4071490000000  0.4868210000000  0.5540700000000 1.0
C      1  0.5825990000000  0.5205520000000  0.4706410000000 1.0
C      1  0.4611210000000  0.4567630000000  0.4193180000000 1.0
C      1  0.4595110000000  0.4082570000000  0.4526070000000 1.0
C      1  0.5386940000000  0.4512690000000  0.4449720000000 1.0
C      1  0.5450630000000  0.4614130000000  0.4170810000000 1.0
C      1  0.4885770000000  0.4162070000000  0.4533680000000 1.0
C      1  0.5320470000000  0.5274070000000  0.5432330000000 1.0
C      1  0.5521410000000  0.5103420000000  0.5021770000000 1.0
C      1  0.4574870000000  0.5677240000000  0.4502330000000 1.0
C      1  0.5120800000000  0.4057480000000  0.5118540000000 1.0
C      1  0.5575150000000  0.4547280000000  0.4986550000000 1.0
C      1  0.5161760000000  0.5530190000000  0.4336310000000 1.0
C      1  0.5713060000000  0.4528960000000  0.5534990000000 1.0
C      1  0.6005210000000  0.4380840000000  0.4892660000000 1.0
C      1  0.5525690000000  0.5449770000000  0.5503890000000 1.0
C      1  0.5549060000000  0.4229290000000  0.4868180000000 1.0
C      1  0.4804270000000  0.5103650000000  0.5887870000000 1.0
C      1  0.5515810000000  0.4015650000000  0.5130630000000 1.0
C      1  0.5317980000000  0.4978250000000  0.4268730000000 1.0
C      1  0.5042660000000  0.5371850000000  0.5400950000000 1.0
C      1  0.4965510000000  0.4705410000000  0.4159420000000 1.0
C      1  0.4047950000000  0.4904250000000  0.4662800000000 1.0
C      1  0.5265430000000  0.6016260000000  0.5204080000000 1.0
C      1  0.5228560000000  0.4940260000000  0.5078490000000 1.0
C      1  0.4598610000000  0.4896720000000  0.4742640000000 1.0
C      1  0.4757530000000  0.4625640000000  0.5618650000000 1.0
C      1  0.5051880000000  0.4920060000000  0.4408710000000 1.0
C      1  0.5119780000000  0.5242410000000  0.4966620000000 1.0
C      1  0.4525190000000  0.4053460000000  0.5230120000000 1.0
C      1  0.5282880000000  0.4328060000000  0.4713730000000 1.0
C      1  0.4597230000000  0.5050690000000  0.4195170000000 1.0
C      1  0.4273710000000  0.5390500000000  0.5726020000000 1.0
C      1  0.5639820000000  0.5051090000000  0.4313120000000 1.0
C      1  0.4520960000000  0.4374960000000  0.5180870000000 1.0
C      1  0.4573200000000  0.4848580000000  0.5893330000000 1.0
C      1  0.4715470000000  0.5739560000000  0.5556450000000 1.0
C      1  0.5559420000000  0.5005370000000  0.4637060000000 1.0
C      1  0.5152900000000  0.4690720000000  0.4613950000000 1.0
C      1  0.5784130000000  0.5762320000000  0.4926320000000 1.0
C      1  0.4699020000000  0.6004260000000  0.4877480000000 1.0
C      1  0.4659470000000  0.4261250000000  0.5750170000000 1.0
C      1  0.5336610000000  0.4487510000000  0.5203420000000 1.0
C      1  0.4536210000000  0.4614090000000  0.4564530000000 1.0
C      1  0.5308660000000  0.5016130000000  0.5737630000000 1.0
C      1  0.5409760000000  0.4552790000000  0.5930310000000 1.0
C      1  0.4876470000000  0.5458160000000  0.4165530000000 1.0
C      1  0.5389510000000  0.4096300000000  0.4395370000000 1.0
C      1  0.4504650000000  0.4968040000000  0.5350680000000 1.0
C      1  0.5255990000000  0.5858700000000  0.5495560000000 1.0
C      1  0.5701700000000  0.5687260000000  0.4664520000000 1.0
C      1  0.4203000000000  0.5657090000000  0.4720670000000 1.0
C      1  0.4862270000000  0.5376070000000  0.5129820000000 1.0
C      1  0.4445060000000  0.4831560000000  0.4328730000000 1.0
C      1  0.5404450000000  0.5648570000000  0.5664480000000 1.0
C      1  0.4858680000000  0.5186630000000  0.5585450000000 1.0
C      1  0.5037510000000  0.4526250000000  0.5577050000000 1.0
C      1  0.4990240000000  0.4223210000000  0.4851610000000 1.0
C      1  0.6021130000000  0.4831130000000  0.4900610000000 1.0
C      1  0.5076980000000  0.5779530000000  0.4551370000000 1.0
C      1  0.4632770000000  0.5678040000000  0.4810790000000 1.0
C      1  0.5563960000000  0.4826030000000  0.5864630000000 1.0
C      1  0.4034980000000  0.4831360000000  0.5054190000000 1.0
C      1  0.5593940000000  0.4343190000000  0.5329580000000 1.0
C      1  0.4176600000000  0.5554780000000  0.5190810000000 1.0
C      1  0.4414290000000  0.5138550000000  0.5813740000000 1.0
C      1  0.4172320000000  0.5321310000000  0.4676850000000 1.0
C      1  0.4259100000000  0.5746990000000  0.4983750000000 1.0
C      1  0.5067360000000  0.4532910000000  0.5277950000000 1.0
C      1  0.4963470000000  0.5198080000000  0.4583640000000 1.0
C      1  0.4759780000000  0.5871670000000  0.5246790000000 1.0
C      1  0.5367380000000  0.5632500000000  0.5185650000000 1.0
C      1  0.5662110000000  0.4780970000000  0.4152420000000 1.0
C      1  0.4344850000000  0.5252790000000  0.5423270000000 1.0
C      1  0.4990820000000  0.6015700000000  0.5051640000000 1.0
C      1  0.4606090000000  0.5503710000000  0.5070620000000 1.0
C      1  0.4430590000000  0.4586470000000  0.5612070000000 1.0
C      1  0.4352480000000  0.5617850000000  0.5849970000000 1.0
C      1  0.4003880000000  0.5137260000000  0.4907890000000 1.0
C      1  0.4310630000000  0.4508780000000  0.5374430000000 1.0
C      1  0.4986840000000  0.6022920000000  0.4717520000000 1.0
C      1  0.4421380000000  0.4335880000000  0.4417570000000 1.0
C      1  0.4650380000000  0.5373670000000  0.5468320000000 1.0
C      1  0.5858120000000  0.4482220000000  0.5166770000000 1.0
C      1  0.4677000000000  0.5643820000000  0.5854670000000 1.0
C      1  0.5332710000000  0.3895390000000  0.4907770000000 1.0
C      1  0.5137520000000  0.4173790000000  0.4318990000000 1.0
C      1  0.5259930000000  0.5532220000000  0.5876010000000 1.0
C      1  0.4360480000000  0.4913200000000  0.5079920000000 1.0
C      1  0.5124350000000  0.5220300000000  0.5879650000000 1.0
C      1  0.4809080000000  0.5719310000000  0.4343070000000 1.0
C      1  0.4838410000000  0.4994110000000  0.4079030000000 1.0
C      1  0.5517540000000  0.5710200000000  0.4016380000000 1.0
C      1  0.4954590000000  0.5507660000000  0.5959780000000 1.0
C      1  0.4685170000000  0.4118230000000  0.5523080000000 1.0
C      1  0.4464100000000  0.5917160000000  0.5080390000000 1.0
C      1  0.4940470000000  0.4757270000000  0.5104560000000 1.0
C      1  0.5231680000000  0.4631500000000  0.4010540000000 1.0
C      1  0.5256430000000  0.5311270000000  0.3927750000000 1.0
C      1  0.4603100000000  0.5339550000000  0.5987360000000 1.0
C      1  0.5334150000000  0.4128740000000  0.5376670000000 1.0
C      1  0.4146850000000  0.4899600000000  0.4408260000000 1.0
C      1  0.5297150000000  0.5169030000000  0.4618740000000 1.0
C      1  0.4858080000000  0.4368880000000  0.5129170000000 1.0
C      1  0.5853950000000  0.4782910000000  0.5714130000000 1.0
C      1  0.5412170000000  0.5812240000000  0.4598610000000 1.0
C      1  0.5336170000000  0.4973840000000  0.5401140000000 1.0
C      1  0.4825520000000  0.5284510000000  0.3680080000000 1.0
C      1  0.5487600000000  0.5431040000000  0.4937220000000 1.0
C      1  0.5320410000000  0.5837160000000  0.4920180000000 1.0
C      1  0.5211290000000  0.4259040000000  0.5626370000000 1.0
C      1  0.5789030000000  0.5460780000000  0.4527810000000 1.0
END
