TITL C-2847946-5639-114 -0.000267564790065438 125000 -491.354775377327 0 0 91 (C1) n - 1
REM
REM in /home/bkarasulu/work/CARBON/AIRSS/Generating-Clusters/AIREBO/with-SteepDescent/Only-C1/SD-CG-opt/Try1-1.4A-POS3A/HFTN-CG
REM
REM
REM
REM
REM
REM ./C.cell (11c1c37f851c82e70ff6c80c92926a4b)
REM
REM compiler GCC version 9.2.1 20190827 (Red Hat 9.2.1-1)
REM options -cpp -mtune=generic -march=x86-64 -g -O0 -fpre-include=/usr/include/finclude/math-vector-fortran.h
REM seed 1479992994 -538298497 -1459142485 53457690 89486920 -1746029432 -980977788 -1890592185 1410063000 -194733804 -508201006 835038995 -1872848694 -1040465396 -884519473 -1502486286 -1570968176 -538285125 1164557564 -1327708682 -983364970 337237129 -519187246 -1679330346 -656677274 529042988 -1752376548 -1770257976 1693575879 869307342 362323203 -1753949931 2107424851
REM
CELL 1.54180   50.00000   50.00000   50.00000   90.00000   90.00000   90.00000
LATT -1
SFAC C  
C      1  0.4598780000000  0.5838140000000  0.4991060000000 1.0
C      1  0.5644290000000  0.5557450000000  0.4672610000000 1.0
C      1  0.5353230000000  0.5420690000000  0.5445000000000 1.0
C      1  0.5120190000000  0.4968680000000  0.5526000000000 1.0
C      1  0.5184530000000  0.5264110000000  0.4692200000000 1.0
C      1  0.5225040000000  0.4620250000000  0.5067690000000 1.0
C      1  0.5271030000000  0.4935710000000  0.4307190000000 1.0
C      1  0.5077960000000  0.5283670000000  0.5441360000000 1.0
C      1  0.5713770000000  0.4735160000000  0.5303600000000 1.0
C      1  0.5434720000000  0.4865220000000  0.5448530000000 1.0
C      1  0.4916110000000  0.4832770000000  0.4751810000000 1.0
C      1  0.4719980000000  0.5390470000000  0.4961390000000 1.0
C      1  0.5374310000000  0.4980340000000  0.5134290000000 1.0
C      1  0.4979840000000  0.5801300000000  0.4668400000000 1.0
C      1  0.4447200000000  0.5543310000000  0.4524840000000 1.0
C      1  0.4377850000000  0.4519350000000  0.5225300000000 1.0
C      1  0.5397650000000  0.5191080000000  0.4437380000000 1.0
C      1  0.4513840000000  0.4817990000000  0.5585870000000 1.0
C      1  0.4026040000000  0.4863160000000  0.5015830000000 1.0
C      1  0.5682030000000  0.5105510000000  0.4562690000000 1.0
C      1  0.4850610000000  0.5605780000000  0.5502060000000 1.0
C      1  0.4428020000000  0.4488090000000  0.4695300000000 1.0
C      1  0.5125970000000  0.4433210000000  0.4628420000000 1.0
C      1  0.5922370000000  0.5176240000000  0.5115840000000 1.0
C      1  0.4656360000000  0.4797550000000  0.5166080000000 1.0
C      1  0.4283660000000  0.5337770000000  0.4432000000000 1.0
C      1  0.5694310000000  0.4840050000000  0.4642510000000 1.0
C      1  0.4379420000000  0.5089850000000  0.4486740000000 1.0
C      1  0.5350730000000  0.4655710000000  0.4753580000000 1.0
C      1  0.4917190000000  0.4505940000000  0.4369300000000 1.0
C      1  0.4480140000000  0.5788690000000  0.5230400000000 1.0
C      1  0.4665100000000  0.5095580000000  0.5299420000000 1.0
C      1  0.5501130000000  0.5504720000000  0.4440030000000 1.0
C      1  0.4771030000000  0.4742670000000  0.4349100000000 1.0
C      1  0.5272840000000  0.4170140000000  0.4890760000000 1.0
C      1  0.5015700000000  0.5610900000000  0.5204840000000 1.0
C      1  0.5755180000000  0.4598140000000  0.4517830000000 1.0
C      1  0.4749000000000  0.4607150000000  0.5683090000000 1.0
C      1  0.4944050000000  0.5221350000000  0.5151190000000 1.0
C      1  0.5223670000000  0.5734800000000  0.4890020000000 1.0
C      1  0.5219470000000  0.4951180000000  0.4701750000000 1.0
C      1  0.4188280000000  0.4789660000000  0.4798810000000 1.0
C      1  0.5464650000000  0.4324730000000  0.5423860000000 1.0
C      1  0.4385080000000  0.5171790000000  0.5725790000000 1.0
C      1  0.4510280000000  0.4838640000000  0.4861220000000 1.0
C      1  0.4851150000000  0.4390580000000  0.5452340000000 1.0
C      1  0.4553170000000  0.5609010000000  0.5423830000000 1.0
C      1  0.5415890000000  0.5281680000000  0.5146700000000 1.0
C      1  0.4582380000000  0.5110380000000  0.4716680000000 1.0
C      1  0.4165570000000  0.4960710000000  0.5243080000000 1.0
C      1  0.5072280000000  0.4562000000000  0.5769550000000 1.0
C      1  0.5411910000000  0.5696220000000  0.5261740000000 1.0
C      1  0.5167940000000  0.5409280000000  0.4977140000000 1.0
C      1  0.4835840000000  0.4265370000000  0.4571290000000 1.0
C      1  0.5583560000000  0.4823030000000  0.4936490000000 1.0
C      1  0.4918250000000  0.5840210000000  0.4996230000000 1.0
C      1  0.4137190000000  0.4611900000000  0.4570010000000 1.0
C      1  0.5515380000000  0.5620750000000  0.4959290000000 1.0
C      1  0.4323580000000  0.4756000000000  0.5383930000000 1.0
C      1  0.4878210000000  0.5359040000000  0.5706170000000 1.0
C      1  0.4960240000000  0.4983700000000  0.4305060000000 1.0
C      1  0.4791990000000  0.5442120000000  0.4473990000000 1.0
C      1  0.4702420000000  0.5093980000000  0.5631590000000 1.0
C      1  0.4270790000000  0.4444540000000  0.4982980000000 1.0
C      1  0.4873950000000  0.5282640000000  0.4228020000000 1.0
C      1  0.4991810000000  0.4149380000000  0.4926380000000 1.0
C      1  0.5826020000000  0.5491970000000  0.5019950000000 1.0
C      1  0.5528630000000  0.4414520000000  0.4462320000000 1.0
C      1  0.5377150000000  0.4219000000000  0.4615610000000 1.0
C      1  0.5380340000000  0.4692780000000  0.4416690000000 1.0
C      1  0.5064410000000  0.5113910000000  0.5799590000000 1.0
C      1  0.5751010000000  0.5282560000000  0.4763480000000 1.0
C      1  0.4796580000000  0.4333900000000  0.4961800000000 1.0
C      1  0.4499130000000  0.4773840000000  0.4525170000000 1.0
C      1  0.4683020000000  0.4461320000000  0.5211110000000 1.0
C      1  0.4297750000000  0.5207300000000  0.5192760000000 1.0
C      1  0.4448550000000  0.5323830000000  0.5431660000000 1.0
C      1  0.5049340000000  0.4911410000000  0.5056110000000 1.0
C      1  0.5558420000000  0.5170670000000  0.5534800000000 1.0
C      1  0.5678440000000  0.4464350000000  0.5240380000000 1.0
C      1  0.5151400000000  0.5762530000000  0.5469930000000 1.0
C      1  0.5714590000000  0.5341710000000  0.5297900000000 1.0
C      1  0.4759510000000  0.4555080000000  0.4732140000000 1.0
C      1  0.5119820000000  0.4558540000000  0.5361320000000 1.0
C      1  0.5848530000000  0.4909750000000  0.5103530000000 1.0
C      1  0.4880960000000  0.5134710000000  0.4599210000000 1.0
C      1  0.4879520000000  0.4783360000000  0.5422610000000 1.0
C      1  0.5346750000000  0.4568340000000  0.5589260000000 1.0
C      1  0.4695020000000  0.5627280000000  0.4742260000000 1.0
C      1  0.5396620000000  0.4346240000000  0.5091220000000 1.0
C      1  0.4452350000000  0.5243910000000  0.4973750000000 1.0
END
