TITL C-2848504-8560-154 -0.00204693163942334 125000 -970.863456282676 0 0 178 (C1) n - 1
REM
REM in /home/bkarasulu/work/CARBON/AIRSS/Generating-Clusters/AIREBO/with-SteepDescent/Only-C1/SD-CG-opt/Try1-1.4A-POS3A/HFTN-CG
REM
REM
REM
REM
REM
REM ./C.cell (11c1c37f851c82e70ff6c80c92926a4b)
REM
REM compiler GCC version 9.2.1 20190827 (Red Hat 9.2.1-1)
REM options -cpp -mtune=generic -march=x86-64 -g -O0 -fpre-include=/usr/include/finclude/math-vector-fortran.h
REM seed -2106004849 377235166 817825573 1124299024 979249141 -1867771329 1450456113 -1577905664 943931894 -1249890528 1107438646 -1762095543 -603905685 733798970 -1403241017 1838693353 1788101729 -506745413 1636738198 -489312704 -225713125 -373417564 -40055158 -440754919 -123231817 -1194338833 2040599300 2025264464 -702862158 663885202 2053499496 2079264377 624340157
REM
CELL 1.54180   50.00000   50.00000   50.00000   90.00000   90.00000   90.00000
LATT -1
SFAC C  
C      1  0.6085470000000  0.4843460000000  0.4846510000000 1.0
C      1  0.5215600000000  0.4256360000000  0.5098050000000 1.0
C      1  0.4385210000000  0.5020970000000  0.4926250000000 1.0
C      1  0.4759770000000  0.5387120000000  0.5278060000000 1.0
C      1  0.5134220000000  0.4396730000000  0.5822710000000 1.0
C      1  0.5436420000000  0.4635930000000  0.5177450000000 1.0
C      1  0.4875350000000  0.6201140000000  0.5054870000000 1.0
C      1  0.5508740000000  0.5656070000000  0.5314960000000 1.0
C      1  0.4261810000000  0.4950760000000  0.4143790000000 1.0
C      1  0.5188590000000  0.5768820000000  0.5515920000000 1.0
C      1  0.5963240000000  0.4794710000000  0.4569070000000 1.0
C      1  0.4643940000000  0.4606100000000  0.5577910000000 1.0
C      1  0.4702810000000  0.5824510000000  0.5464490000000 1.0
C      1  0.5238500000000  0.4903460000000  0.5223990000000 1.0
C      1  0.4670530000000  0.5779570000000  0.4961830000000 1.0
C      1  0.5014320000000  0.5083530000000  0.5340590000000 1.0
C      1  0.5209950000000  0.5729820000000  0.5178520000000 1.0
C      1  0.4443420000000  0.4612820000000  0.4992470000000 1.0
C      1  0.5416190000000  0.4092800000000  0.4631580000000 1.0
C      1  0.4832030000000  0.4841740000000  0.4140570000000 1.0
C      1  0.4277850000000  0.5313330000000  0.5402530000000 1.0
C      1  0.5257790000000  0.4348360000000  0.4772340000000 1.0
C      1  0.4766790000000  0.4913090000000  0.4928220000000 1.0
C      1  0.4684980000000  0.4908830000000  0.5615000000000 1.0
C      1  0.5084260000000  0.5373560000000  0.5044730000000 1.0
C      1  0.4358500000000  0.4720110000000  0.3987680000000 1.0
C      1  0.5993240000000  0.4909050000000  0.5167610000000 1.0
C      1  0.5719670000000  0.4858470000000  0.5006260000000 1.0
C      1  0.5540260000000  0.4675770000000  0.5944830000000 1.0
C      1  0.5160550000000  0.4639620000000  0.5608150000000 1.0
C      1  0.5153530000000  0.5081730000000  0.5915070000000 1.0
C      1  0.4003600000000  0.4796790000000  0.4683550000000 1.0
C      1  0.4649590000000  0.4026740000000  0.5460690000000 1.0
C      1  0.5218360000000  0.5590070000000  0.4239240000000 1.0
C      1  0.5843240000000  0.4341300000000  0.4647830000000 1.0
C      1  0.4559790000000  0.5164230000000  0.5439130000000 1.0
C      1  0.5670340000000  0.4171050000000  0.5050640000000 1.0
C      1  0.4784360000000  0.4753620000000  0.6075290000000 1.0
C      1  0.5471940000000  0.4549310000000  0.5674110000000 1.0
C      1  0.5540990000000  0.5638420000000  0.4234030000000 1.0
C      1  0.5134460000000  0.4525990000000  0.5288680000000 1.0
C      1  0.4482410000000  0.4338620000000  0.4817180000000 1.0
C      1  0.4582740000000  0.5181320000000  0.6062710000000 1.0
C      1  0.4296800000000  0.5260090000000  0.4466750000000 1.0
C      1  0.5921780000000  0.4505980000000  0.5477540000000 1.0
C      1  0.5124690000000  0.4930900000000  0.4757760000000 1.0
C      1  0.5660310000000  0.5622090000000  0.5700970000000 1.0
C      1  0.4231320000000  0.4359360000000  0.4594490000000 1.0
C      1  0.4143380000000  0.4359060000000  0.5317600000000 1.0
C      1  0.6065370000000  0.5220180000000  0.5176450000000 1.0
C      1  0.4006260000000  0.4515730000000  0.5131850000000 1.0
C      1  0.4928140000000  0.5550280000000  0.5524490000000 1.0
C      1  0.5265570000000  0.5043080000000  0.4260660000000 1.0
C      1  0.4236230000000  0.5531070000000  0.4749780000000 1.0
C      1  0.5144160000000  0.5577610000000  0.4814710000000 1.0
C      1  0.5539130000000  0.4448580000000  0.3951490000000 1.0
C      1  0.4588890000000  0.5649930000000  0.5229270000000 1.0
C      1  0.4323780000000  0.4722550000000  0.5338150000000 1.0
C      1  0.5418400000000  0.4113710000000  0.4299890000000 1.0
C      1  0.4764330000000  0.3935330000000  0.4769330000000 1.0
C      1  0.4967930000000  0.5181810000000  0.4589210000000 1.0
C      1  0.4390250000000  0.5730090000000  0.4543360000000 1.0
C      1  0.4713740000000  0.4235240000000  0.5245750000000 1.0
C      1  0.5129330000000  0.5205280000000  0.3883990000000 1.0
C      1  0.5113820000000  0.4478160000000  0.4495620000000 1.0
C      1  0.5793330000000  0.5038140000000  0.4424880000000 1.0
C      1  0.5230490000000  0.5397290000000  0.5814380000000 1.0
C      1  0.5893890000000  0.5359480000000  0.4746560000000 1.0
C      1  0.4673540000000  0.4161140000000  0.4967660000000 1.0
C      1  0.5878460000000  0.5333000000000  0.4467660000000 1.0
C      1  0.5586010000000  0.5403880000000  0.4883970000000 1.0
C      1  0.4756200000000  0.5336330000000  0.4739490000000 1.0
C      1  0.4439210000000  0.4395510000000  0.5748130000000 1.0
C      1  0.4807180000000  0.4831400000000  0.5244920000000 1.0
C      1  0.4594840000000  0.5774320000000  0.4036390000000 1.0
C      1  0.5269710000000  0.5298170000000  0.5274920000000 1.0
C      1  0.4165820000000  0.4841970000000  0.5614530000000 1.0
C      1  0.5505870000000  0.4962770000000  0.5395510000000 1.0
C      1  0.4302500000000  0.5549100000000  0.5261180000000 1.0
C      1  0.5342240000000  0.5040780000000  0.5635050000000 1.0
C      1  0.5090890000000  0.4702100000000  0.4995140000000 1.0
C      1  0.5166810000000  0.5461110000000  0.3934930000000 1.0
C      1  0.4985630000000  0.4044650000000  0.5501760000000 1.0
C      1  0.4575190000000  0.5067350000000  0.4435570000000 1.0
C      1  0.5350150000000  0.6148440000000  0.5241050000000 1.0
C      1  0.5816970000000  0.5342290000000  0.5281220000000 1.0
C      1  0.4444430000000  0.5540690000000  0.5810580000000 1.0
C      1  0.4771200000000  0.5836960000000  0.5928890000000 1.0
C      1  0.6001160000000  0.4513870000000  0.4839450000000 1.0
C      1  0.3948500000000  0.5333250000000  0.4943290000000 1.0
C      1  0.3914450000000  0.4816870000000  0.5019860000000 1.0
C      1  0.5683720000000  0.4130930000000  0.4771760000000 1.0
C      1  0.5317940000000  0.4058630000000  0.5576030000000 1.0
C      1  0.4653810000000  0.4222850000000  0.4329210000000 1.0
C      1  0.5977740000000  0.4831970000000  0.5467310000000 1.0
C      1  0.5391810000000  0.5756850000000  0.5748040000000 1.0
C      1  0.5525520000000  0.5945950000000  0.4519930000000 1.0
C      1  0.4714980000000  0.5298820000000  0.4247300000000 1.0
C      1  0.4983080000000  0.4894030000000  0.5688480000000 1.0
C      1  0.4654050000000  0.4737390000000  0.4411000000000 1.0
C      1  0.4996860000000  0.4937120000000  0.4380660000000 1.0
C      1  0.4131440000000  0.4770580000000  0.4369160000000 1.0
C      1  0.4487940000000  0.4943270000000  0.5209930000000 1.0
C      1  0.5436720000000  0.5707320000000  0.4926020000000 1.0
C      1  0.4131540000000  0.5115100000000  0.5717380000000 1.0
C      1  0.5431940000000  0.4996080000000  0.4888090000000 1.0
C      1  0.4881030000000  0.4099400000000  0.4523640000000 1.0
C      1  0.4272790000000  0.5455630000000  0.4201650000000 1.0
C      1  0.4635530000000  0.4601830000000  0.5918170000000 1.0
C      1  0.4957290000000  0.4702340000000  0.4567090000000 1.0
C      1  0.4849190000000  0.5035590000000  0.6062930000000 1.0
C      1  0.5150690000000  0.4006150000000  0.4437110000000 1.0
C      1  0.4188410000000  0.5893320000000  0.4938160000000 1.0
C      1  0.4546790000000  0.4512520000000  0.4179370000000 1.0
C      1  0.5052650000000  0.5316500000000  0.4288610000000 1.0
C      1  0.4558870000000  0.5795750000000  0.5748300000000 1.0
C      1  0.5438340000000  0.5416360000000  0.5545640000000 1.0
C      1  0.5833650000000  0.4737170000000  0.4290850000000 1.0
C      1  0.5692370000000  0.4484560000000  0.4408290000000 1.0
C      1  0.5618350000000  0.4567600000000  0.4939340000000 1.0
C      1  0.5514920000000  0.4251830000000  0.5570570000000 1.0
C      1  0.4793660000000  0.5746100000000  0.4467340000000 1.0
C      1  0.5567390000000  0.5155550000000  0.4643460000000 1.0
C      1  0.5774650000000  0.5522310000000  0.4295620000000 1.0
C      1  0.5298840000000  0.5707120000000  0.4543280000000 1.0
C      1  0.5664940000000  0.4729620000000  0.5498050000000 1.0
C      1  0.5479880000000  0.4702590000000  0.3884090000000 1.0
C      1  0.5146070000000  0.4014160000000  0.5220450000000 1.0
C      1  0.4921770000000  0.4300580000000  0.4795260000000 1.0
C      1  0.5215950000000  0.3760810000000  0.5142060000000 1.0
C      1  0.4931780000000  0.5222400000000  0.5615350000000 1.0
C      1  0.4427090000000  0.5878570000000  0.4800900000000 1.0
C      1  0.4000000000000  0.5330700000000  0.4606570000000 1.0
C      1  0.4144900000000  0.4548250000000  0.4841600000000 1.0
C      1  0.4030650000000  0.5146890000000  0.5397960000000 1.0
C      1  0.4622310000000  0.4434810000000  0.4562890000000 1.0
C      1  0.4810390000000  0.4502850000000  0.5333670000000 1.0
C      1  0.5270820000000  0.5667350000000  0.6017000000000 1.0
C      1  0.5430020000000  0.4875590000000  0.4507680000000 1.0
C      1  0.5013910000000  0.4177030000000  0.5803070000000 1.0
C      1  0.4818160000000  0.5210910000000  0.5017580000000 1.0
C      1  0.4985320000000  0.5632610000000  0.5849570000000 1.0
C      1  0.3921780000000  0.5076740000000  0.5144680000000 1.0
C      1  0.4999930000000  0.5883940000000  0.4348600000000 1.0
C      1  0.4108160000000  0.5602960000000  0.5044210000000 1.0
C      1  0.5546540000000  0.5188310000000  0.5144170000000 1.0
C      1  0.5142480000000  0.6050680000000  0.5410090000000 1.0
C      1  0.5771430000000  0.5644420000000  0.5217820000000 1.0
C      1  0.4111830000000  0.5075700000000  0.4792980000000 1.0
C      1  0.5867060000000  0.4419630000000  0.5109220000000 1.0
C      1  0.4836320000000  0.5629750000000  0.4739590000000 1.0
C      1  0.4957520000000  0.4929960000000  0.3906800000000 1.0
C      1  0.4536770000000  0.4799670000000  0.4724140000000 1.0
C      1  0.5485770000000  0.4569800000000  0.4650670000000 1.0
C      1  0.4200710000000  0.4528240000000  0.5589180000000 1.0
C      1  0.5853710000000  0.5045000000000  0.5692970000000 1.0
C      1  0.4780720000000  0.4573520000000  0.4941300000000 1.0
C      1  0.6061160000000  0.5178780000000  0.4882340000000 1.0
C      1  0.5716130000000  0.4945050000000  0.5914940000000 1.0
C      1  0.5200130000000  0.6032710000000  0.4548430000000 1.0
C      1  0.4761180000000  0.4490630000000  0.3958740000000 1.0
C      1  0.4978230000000  0.5879200000000  0.5017800000000 1.0
C      1  0.5755590000000  0.4239160000000  0.5374990000000 1.0
C      1  0.5760720000000  0.5315240000000  0.5586710000000 1.0
C      1  0.4421850000000  0.5196690000000  0.4096210000000 1.0
C      1  0.5296710000000  0.4926870000000  0.3949370000000 1.0
C      1  0.4566200000000  0.5602880000000  0.4281640000000 1.0
C      1  0.4638300000000  0.5346100000000  0.5702880000000 1.0
C      1  0.5419030000000  0.4949750000000  0.6063060000000 1.0
C      1  0.4713500000000  0.3681460000000  0.4781070000000 1.0
C      1  0.4255470000000  0.4507960000000  0.4354770000000 1.0
C      1  0.4456650000000  0.5279720000000  0.4752760000000 1.0
C      1  0.4395960000000  0.4201190000000  0.5483000000000 1.0
C      1  0.4868460000000  0.6076900000000  0.5345840000000 1.0
C      1  0.4307400000000  0.5254910000000  0.5899100000000 1.0
C      1  0.5372860000000  0.6037590000000  0.4988220000000 1.0
C      1  0.5560390000000  0.4320220000000  0.4196540000000 1.0
C      1  0.5111220000000  0.6115640000000  0.4820540000000 1.0
END
