TITL C-2848507-1641-200 0.00162204053453492 125000 -851.712497206434 0 0 159 (C1) n - 1
REM
REM in /home/bkarasulu/work/CARBON/AIRSS/Generating-Clusters/AIREBO/with-SteepDescent/Only-C1/SD-CG-opt/Try1-1.4A-POS3A/HFTN-CG
REM
REM
REM
REM
REM
REM ./C.cell (11c1c37f851c82e70ff6c80c92926a4b)
REM
REM compiler GCC version 9.2.1 20190827 (Red Hat 9.2.1-1)
REM options -cpp -mtune=generic -march=x86-64 -g -O0 -fpre-include=/usr/include/finclude/math-vector-fortran.h
REM seed 856785214 695259601 -156734590 903082681 1764016214 -1813440291 837158540 978238633 -117047545 -1590967684 -1282698244 -792050459 1814956777 93490593 -292564839 1112071553 -739698820 8275283 -29522890 1585218741 1412017734 979173487 -714433959 1717841919 1022920931 954960480 1494658109 -1474598595 -1206562905 -976873691 2010449222 1933912763 -957394476
REM
CELL 1.54180   50.00000   50.00000   50.00000   90.00000   90.00000   90.00000
LATT -1
SFAC C  
C      1  0.5536250000000  0.4581460000000  0.4833690000000 1.0
C      1  0.4301220000000  0.4417480000000  0.5457940000000 1.0
C      1  0.5237400000000  0.5329600000000  0.5889260000000 1.0
C      1  0.4979960000000  0.5671650000000  0.5246540000000 1.0
C      1  0.6058990000000  0.5194950000000  0.4739600000000 1.0
C      1  0.4163830000000  0.4497770000000  0.4703880000000 1.0
C      1  0.5593120000000  0.4977580000000  0.5264430000000 1.0
C      1  0.5539640000000  0.6020920000000  0.4673650000000 1.0
C      1  0.4675810000000  0.6015670000000  0.5120880000000 1.0
C      1  0.5149660000000  0.3990160000000  0.4752210000000 1.0
C      1  0.5786430000000  0.4627490000000  0.5000380000000 1.0
C      1  0.5231160000000  0.4844730000000  0.4222820000000 1.0
C      1  0.4808360000000  0.5629340000000  0.5519950000000 1.0
C      1  0.4590630000000  0.4321240000000  0.4369880000000 1.0
C      1  0.5499800000000  0.4900190000000  0.4946370000000 1.0
C      1  0.5535790000000  0.4105710000000  0.5077050000000 1.0
C      1  0.5028230000000  0.5473410000000  0.4692000000000 1.0
C      1  0.4383720000000  0.4725880000000  0.4404360000000 1.0
C      1  0.5419540000000  0.4952440000000  0.4484600000000 1.0
C      1  0.4774760000000  0.4698840000000  0.4061710000000 1.0
C      1  0.4094100000000  0.5012750000000  0.4604250000000 1.0
C      1  0.5526040000000  0.4684230000000  0.4168380000000 1.0
C      1  0.4843400000000  0.5279810000000  0.6145840000000 1.0
C      1  0.5652110000000  0.5308550000000  0.5316170000000 1.0
C      1  0.4942370000000  0.4707300000000  0.5622820000000 1.0
C      1  0.4325710000000  0.4681310000000  0.5018840000000 1.0
C      1  0.4490750000000  0.4984560000000  0.4570730000000 1.0
C      1  0.5796340000000  0.5008810000000  0.4820370000000 1.0
C      1  0.4317060000000  0.5381620000000  0.4306920000000 1.0
C      1  0.4775760000000  0.4636290000000  0.5979100000000 1.0
C      1  0.4617430000000  0.4974500000000  0.5320600000000 1.0
C      1  0.4594040000000  0.5409760000000  0.5122730000000 1.0
C      1  0.4683310000000  0.4283390000000  0.4682850000000 1.0
C      1  0.4736530000000  0.5086200000000  0.5731740000000 1.0
C      1  0.5835770000000  0.5151970000000  0.5639290000000 1.0
C      1  0.5520380000000  0.5596600000000  0.5060730000000 1.0
C      1  0.5699920000000  0.4958660000000  0.4437200000000 1.0
C      1  0.5136640000000  0.4068970000000  0.5513310000000 1.0
C      1  0.4917050000000  0.5478230000000  0.5002520000000 1.0
C      1  0.5095340000000  0.4256960000000  0.4584460000000 1.0
C      1  0.4546710000000  0.4789660000000  0.5918640000000 1.0
C      1  0.6205460000000  0.4712300000000  0.5145050000000 1.0
C      1  0.4844350000000  0.5025430000000  0.6038920000000 1.0
C      1  0.5010670000000  0.4866910000000  0.4567760000000 1.0
C      1  0.4677870000000  0.4759080000000  0.4842830000000 1.0
C      1  0.4289810000000  0.4670980000000  0.5544390000000 1.0
C      1  0.4282680000000  0.4885360000000  0.4137260000000 1.0
C      1  0.5312750000000  0.5014180000000  0.5991640000000 1.0
C      1  0.5607120000000  0.5410420000000  0.4310330000000 1.0
C      1  0.5326280000000  0.5109620000000  0.4741940000000 1.0
C      1  0.4184240000000  0.5188960000000  0.5048980000000 1.0
C      1  0.4342340000000  0.5648980000000  0.5339220000000 1.0
C      1  0.4861490000000  0.5458450000000  0.5932520000000 1.0
C      1  0.5349660000000  0.5092520000000  0.5598660000000 1.0
C      1  0.5418410000000  0.4106630000000  0.5357530000000 1.0
C      1  0.4003340000000  0.4592140000000  0.4967510000000 1.0
C      1  0.4633580000000  0.5485410000000  0.4726050000000 1.0
C      1  0.4631220000000  0.5770500000000  0.4448930000000 1.0
C      1  0.5381810000000  0.4304100000000  0.4858960000000 1.0
C      1  0.5277690000000  0.4550550000000  0.5818880000000 1.0
C      1  0.4919980000000  0.4447950000000  0.5173230000000 1.0
C      1  0.5772580000000  0.4251550000000  0.4881220000000 1.0
C      1  0.4895540000000  0.4179710000000  0.4360760000000 1.0
C      1  0.5185240000000  0.5815590000000  0.4452950000000 1.0
C      1  0.5163060000000  0.4244770000000  0.5057000000000 1.0
C      1  0.3955510000000  0.5347980000000  0.5195880000000 1.0
C      1  0.5559240000000  0.5276660000000  0.5793020000000 1.0
C      1  0.4522130000000  0.4959070000000  0.5022300000000 1.0
C      1  0.4232670000000  0.5692710000000  0.4764250000000 1.0
C      1  0.5046070000000  0.5435030000000  0.4146660000000 1.0
C      1  0.5514530000000  0.4409430000000  0.5343420000000 1.0
C      1  0.5801230000000  0.5213190000000  0.4357910000000 1.0
C      1  0.4032730000000  0.4909740000000  0.4357620000000 1.0
C      1  0.4357840000000  0.5396340000000  0.4874560000000 1.0
C      1  0.5402450000000  0.4150340000000  0.4571360000000 1.0
C      1  0.4962980000000  0.5158280000000  0.5108000000000 1.0
C      1  0.5179510000000  0.4388550000000  0.5577080000000 1.0
C      1  0.4151010000000  0.4939710000000  0.4882630000000 1.0
C      1  0.4831300000000  0.4198160000000  0.5588880000000 1.0
C      1  0.5233620000000  0.5955230000000  0.5123630000000 1.0
C      1  0.4790840000000  0.5405780000000  0.4461850000000 1.0
C      1  0.5477080000000  0.5648530000000  0.4504740000000 1.0
C      1  0.4962870000000  0.5684410000000  0.5773120000000 1.0
C      1  0.5100850000000  0.4569170000000  0.4716860000000 1.0
C      1  0.4829250000000  0.6067180000000  0.4868410000000 1.0
C      1  0.6047870000000  0.5279210000000  0.4477530000000 1.0
C      1  0.5251020000000  0.5655160000000  0.5792130000000 1.0
C      1  0.4821330000000  0.4722800000000  0.5346860000000 1.0
C      1  0.5782360000000  0.4392230000000  0.5201340000000 1.0
C      1  0.4858710000000  0.5966610000000  0.5320640000000 1.0
C      1  0.4276000000000  0.4403420000000  0.4396050000000 1.0
C      1  0.4669200000000  0.5805760000000  0.4784980000000 1.0
C      1  0.4455620000000  0.4078210000000  0.5028740000000 1.0
C      1  0.4904630000000  0.4834390000000  0.5072380000000 1.0
C      1  0.5182750000000  0.4864680000000  0.5440250000000 1.0
C      1  0.4065150000000  0.5583460000000  0.5307080000000 1.0
C      1  0.5994640000000  0.4574270000000  0.5337680000000 1.0
C      1  0.5774500000000  0.5294780000000  0.4999220000000 1.0
C      1  0.4502210000000  0.5733370000000  0.5072630000000 1.0
C      1  0.4988880000000  0.5302240000000  0.5658360000000 1.0
C      1  0.4817560000000  0.5326630000000  0.5365320000000 1.0
C      1  0.5217300000000  0.4565720000000  0.5289320000000 1.0
C      1  0.4350990000000  0.5040430000000  0.5886440000000 1.0
C      1  0.6046940000000  0.4719770000000  0.4901020000000 1.0
C      1  0.3940190000000  0.4828800000000  0.5203370000000 1.0
C      1  0.5284040000000  0.5109630000000  0.5209180000000 1.0
C      1  0.4690210000000  0.4249060000000  0.5302040000000 1.0
C      1  0.4467470000000  0.5288950000000  0.5685700000000 1.0
C      1  0.4401700000000  0.5632310000000  0.4262470000000 1.0
C      1  0.5070790000000  0.4799300000000  0.5923930000000 1.0
C      1  0.4656440000000  0.5173500000000  0.4342440000000 1.0
C      1  0.5094380000000  0.4602190000000  0.4378460000000 1.0
C      1  0.5440140000000  0.5306280000000  0.4979860000000 1.0
C      1  0.4924550000000  0.3949360000000  0.4938380000000 1.0
C      1  0.4411780000000  0.4385210000000  0.5165040000000 1.0
C      1  0.5317900000000  0.5275870000000  0.4235270000000 1.0
C      1  0.4835850000000  0.4494600000000  0.4868060000000 1.0
C      1  0.4508870000000  0.5545240000000  0.5540780000000 1.0
C      1  0.4963980000000  0.4056440000000  0.5239310000000 1.0
C      1  0.5795480000000  0.5790010000000  0.5055600000000 1.0
C      1  0.4667770000000  0.4044180000000  0.4855590000000 1.0
C      1  0.5604320000000  0.5462080000000  0.5540000000000 1.0
C      1  0.4537870000000  0.4843800000000  0.5598450000000 1.0
C      1  0.5850990000000  0.4736570000000  0.4623390000000 1.0
C      1  0.5611570000000  0.4896250000000  0.5594410000000 1.0
C      1  0.4495680000000  0.4566910000000  0.4675820000000 1.0
C      1  0.4078200000000  0.4835270000000  0.5447890000000 1.0
C      1  0.6032560000000  0.5342660000000  0.5208920000000 1.0
C      1  0.6006550000000  0.5149620000000  0.5409780000000 1.0
C      1  0.5257060000000  0.6028070000000  0.4638890000000 1.0
C      1  0.4218010000000  0.5092540000000  0.5574240000000 1.0
C      1  0.5301970000000  0.5664120000000  0.5285730000000 1.0
C      1  0.5449800000000  0.4415430000000  0.4362790000000 1.0
C      1  0.4999490000000  0.5085700000000  0.4777720000000 1.0
C      1  0.5697960000000  0.4429900000000  0.4600150000000 1.0
C      1  0.4290440000000  0.5256520000000  0.4578790000000 1.0
C      1  0.5233140000000  0.5363530000000  0.5429570000000 1.0
C      1  0.5434930000000  0.5700290000000  0.5582560000000 1.0
C      1  0.5630770000000  0.5725810000000  0.4770950000000 1.0
C      1  0.5495470000000  0.5019290000000  0.4099010000000 1.0
C      1  0.5032160000000  0.4879120000000  0.3958870000000 1.0
C      1  0.4848200000000  0.4926430000000  0.4303480000000 1.0
C      1  0.5566930000000  0.4904180000000  0.5931430000000 1.0
C      1  0.4830000000000  0.4420170000000  0.4142740000000 1.0
C      1  0.3813140000000  0.5082300000000  0.5152230000000 1.0
C      1  0.4938890000000  0.5682620000000  0.4331210000000 1.0
C      1  0.4963900000000  0.5162740000000  0.4087790000000 1.0
C      1  0.5516640000000  0.4592990000000  0.5607980000000 1.0
C      1  0.4329060000000  0.5849740000000  0.4584540000000 1.0
C      1  0.4488660000000  0.4735680000000  0.3945150000000 1.0
C      1  0.4681100000000  0.5155600000000  0.4794720000000 1.0
C      1  0.5206640000000  0.4734720000000  0.4994420000000 1.0
C      1  0.4389930000000  0.5206490000000  0.5303540000000 1.0
C      1  0.5295950000000  0.5386500000000  0.4557250000000 1.0
C      1  0.5922590000000  0.4891600000000  0.5264470000000 1.0
C      1  0.4411160000000  0.5167090000000  0.4125940000000 1.0
C      1  0.5110060000000  0.6054360000000  0.4881450000000 1.0
C      1  0.4830440000000  0.4420180000000  0.5766540000000 1.0
C      1  0.5156650000000  0.4344820000000  0.4200350000000 1.0
END
