TITL C-2847944-5688-585 -0.000320099839284194 125000 -356.137260067694 0 0 64 (C1) n - 1
REM
REM in /home/bkarasulu/work/CARBON/AIRSS/Generating-Clusters/AIREBO/with-SteepDescent/Only-C1/SD-CG-opt/Try1-1.4A-POS3A/HFTN-CG
REM
REM
REM
REM
REM
REM ./C.cell (11c1c37f851c82e70ff6c80c92926a4b)
REM
REM compiler GCC version 9.2.1 20190827 (Red Hat 9.2.1-1)
REM options -cpp -mtune=generic -march=x86-64 -g -O0 -fpre-include=/usr/include/finclude/math-vector-fortran.h
REM seed -12066773 -1364172791 377789626 1610415644 82146945 -1966688027 -61197332 1635783291 1080763460 -1602343382 -235191853 -758523585 -1009702020 -784162255 -398028577 -1347406273 454617621 1806292756 -34293771 1748705698 385759815 -1005197605 991030097 1376103489 751789851 1141171257 674042794 682661751 -1400218845 -1944799567 -1578291996 -658338363 710194501
REM
CELL 1.54180   50.00000   50.00000   50.00000   90.00000   90.00000   90.00000
LATT -1
SFAC C  
C      1  0.5692450000000  0.5017170000000  0.5041440000000 1.0
C      1  0.4941550000000  0.5450420000000  0.4521870000000 1.0
C      1  0.4858950000000  0.4393390000000  0.4468080000000 1.0
C      1  0.4598470000000  0.4638200000000  0.5623740000000 1.0
C      1  0.5516150000000  0.5793350000000  0.4927150000000 1.0
C      1  0.5253360000000  0.4952700000000  0.4497620000000 1.0
C      1  0.5401390000000  0.5518690000000  0.5304390000000 1.0
C      1  0.5029090000000  0.5818230000000  0.4863250000000 1.0
C      1  0.5341010000000  0.5177160000000  0.5696540000000 1.0
C      1  0.4856060000000  0.5611790000000  0.4731170000000 1.0
C      1  0.4454170000000  0.4645620000000  0.4747460000000 1.0
C      1  0.5329560000000  0.5149730000000  0.5135910000000 1.0
C      1  0.4705440000000  0.5457740000000  0.4985820000000 1.0
C      1  0.4950070000000  0.5100430000000  0.4180400000000 1.0
C      1  0.4781840000000  0.5235840000000  0.4366140000000 1.0
C      1  0.5070560000000  0.4900790000000  0.5504960000000 1.0
C      1  0.4599150000000  0.4863470000000  0.4978250000000 1.0
C      1  0.4393310000000  0.5384270000000  0.4971150000000 1.0
C      1  0.5142260000000  0.5253990000000  0.4036760000000 1.0
C      1  0.5708540000000  0.5057550000000  0.5321030000000 1.0
C      1  0.4709610000000  0.4545810000000  0.5029530000000 1.0
C      1  0.4375750000000  0.5230650000000  0.5412100000000 1.0
C      1  0.5076910000000  0.4825500000000  0.4272760000000 1.0
C      1  0.5083340000000  0.4499150000000  0.4321100000000 1.0
C      1  0.5911230000000  0.4979660000000  0.5486930000000 1.0
C      1  0.5562590000000  0.5280720000000  0.4921920000000 1.0
C      1  0.5065240000000  0.4519650000000  0.5799920000000 1.0
C      1  0.5446220000000  0.5184470000000  0.4413150000000 1.0
C      1  0.5093880000000  0.5205110000000  0.4613070000000 1.0
C      1  0.5576890000000  0.5294840000000  0.4618560000000 1.0
C      1  0.5317740000000  0.4354370000000  0.4319460000000 1.0
C      1  0.5394640000000  0.5279200000000  0.4152260000000 1.0
C      1  0.5249230000000  0.4831550000000  0.5084420000000 1.0
C      1  0.4764650000000  0.4549440000000  0.4694070000000 1.0
C      1  0.4744320000000  0.4165780000000  0.4401680000000 1.0
C      1  0.5401590000000  0.4920060000000  0.5807750000000 1.0
C      1  0.4644430000000  0.5240850000000  0.5387780000000 1.0
C      1  0.4785200000000  0.4533580000000  0.5776490000000 1.0
C      1  0.5287020000000  0.5920890000000  0.4844290000000 1.0
C      1  0.5540180000000  0.5551520000000  0.5064590000000 1.0
C      1  0.4946610000000  0.5660530000000  0.5114360000000 1.0
C      1  0.4361600000000  0.4747460000000  0.5405610000000 1.0
C      1  0.5049030000000  0.5109840000000  0.5275320000000 1.0
C      1  0.4929820000000  0.4746850000000  0.5165240000000 1.0
C      1  0.5019870000000  0.4657430000000  0.3993590000000 1.0
C      1  0.4879720000000  0.5062580000000  0.4775850000000 1.0
C      1  0.4966930000000  0.4766720000000  0.4820830000000 1.0
C      1  0.4620890000000  0.4285870000000  0.5146640000000 1.0
C      1  0.5602870000000  0.4796650000000  0.4903130000000 1.0
C      1  0.4390780000000  0.4962770000000  0.4728590000000 1.0
C      1  0.5202220000000  0.4745200000000  0.5701080000000 1.0
C      1  0.5074490000000  0.5239800000000  0.5718870000000 1.0
C      1  0.5145510000000  0.5639660000000  0.5311810000000 1.0
C      1  0.4810720000000  0.5090580000000  0.5594100000000 1.0
C      1  0.4297010000000  0.5124230000000  0.4981770000000 1.0
C      1  0.4694310000000  0.4844010000000  0.5390630000000 1.0
C      1  0.5192430000000  0.4307480000000  0.5906150000000 1.0
C      1  0.5466210000000  0.5238240000000  0.5434420000000 1.0
C      1  0.4568050000000  0.4054960000000  0.5241670000000 1.0
C      1  0.4632600000000  0.5086310000000  0.4571660000000 1.0
C      1  0.5301360000000  0.4771580000000  0.4758920000000 1.0
C      1  0.4766800000000  0.5139020000000  0.5087330000000 1.0
C      1  0.4278720000000  0.5021320000000  0.5244370000000 1.0
C      1  0.4147440000000  0.4567590000000  0.5403140000000 1.0
END
