TITL C-2847957-7266-167 -9.85673591500371e-05 125000 -377.374046620332 0 0 70 (C1) n - 1
REM
REM in /home/bkarasulu/work/CARBON/AIRSS/Generating-Clusters/AIREBO/with-SteepDescent/Only-C1/SD-CG-opt/Try1-1.4A-POS3A/HFTN-CG
REM
REM
REM
REM
REM
REM ./C.cell (11c1c37f851c82e70ff6c80c92926a4b)
REM
REM compiler GCC version 9.2.1 20190827 (Red Hat 9.2.1-1)
REM options -cpp -mtune=generic -march=x86-64 -g -O0 -fpre-include=/usr/include/finclude/math-vector-fortran.h
REM seed -1780132156 488419789 1295317979 -1071542227 757740348 1485049037 -1485207144 1184698528 -765836949 -1007198374 95144721 1801469947 -1194413295 1751760025 2117221756 -161175269 2007139232 1335351850 -1687446442 2078269984 714090066 -1676561579 1218031740 331906089 -1072344238 -1157000300 964469472 532856073 1862241283 166191347 -902196580 -824756419 1093202478
REM
CELL 1.54180   50.00000   50.00000   50.00000   90.00000   90.00000   90.00000
LATT -1
SFAC C  
C      1  0.4419550000000  0.5156450000000  0.5432060000000 1.0
C      1  0.5144340000000  0.4569710000000  0.5713500000000 1.0
C      1  0.5404430000000  0.5451240000000  0.5326690000000 1.0
C      1  0.4819040000000  0.5627250000000  0.5413690000000 1.0
C      1  0.5421510000000  0.4742730000000  0.4535450000000 1.0
C      1  0.4699350000000  0.5666420000000  0.4890480000000 1.0
C      1  0.4394340000000  0.4905090000000  0.5278170000000 1.0
C      1  0.5311040000000  0.4459060000000  0.4529560000000 1.0
C      1  0.4573160000000  0.4889910000000  0.4613240000000 1.0
C      1  0.5773420000000  0.4986060000000  0.4632270000000 1.0
C      1  0.5350030000000  0.4269890000000  0.5155340000000 1.0
C      1  0.5070430000000  0.4879190000000  0.5644860000000 1.0
C      1  0.4393190000000  0.5239910000000  0.4420850000000 1.0
C      1  0.5023970000000  0.4245940000000  0.4758170000000 1.0
C      1  0.5184550000000  0.4962660000000  0.4599160000000 1.0
C      1  0.4569410000000  0.5370910000000  0.4866240000000 1.0
C      1  0.4590110000000  0.4797910000000  0.4312880000000 1.0
C      1  0.5490330000000  0.5121970000000  0.5325940000000 1.0
C      1  0.5736890000000  0.4917840000000  0.5255230000000 1.0
C      1  0.4771160000000  0.4978360000000  0.5751540000000 1.0
C      1  0.4973650000000  0.5618400000000  0.5046290000000 1.0
C      1  0.5257860000000  0.5309800000000  0.5582670000000 1.0
C      1  0.4319170000000  0.5095470000000  0.4705540000000 1.0
C      1  0.4606730000000  0.5183630000000  0.5641300000000 1.0
C      1  0.5078850000000  0.4474990000000  0.5153750000000 1.0
C      1  0.4981370000000  0.4730290000000  0.4722770000000 1.0
C      1  0.5352740000000  0.4930610000000  0.5078800000000 1.0
C      1  0.5248900000000  0.5236020000000  0.5029130000000 1.0
C      1  0.4655620000000  0.4765380000000  0.5331440000000 1.0
C      1  0.4879100000000  0.4970560000000  0.5031330000000 1.0
C      1  0.5459850000000  0.5291250000000  0.4768170000000 1.0
C      1  0.4673150000000  0.5208470000000  0.5127200000000 1.0
C      1  0.5304380000000  0.5600300000000  0.4651000000000 1.0
C      1  0.5124900000000  0.4906350000000  0.4210330000000 1.0
C      1  0.5130390000000  0.5652760000000  0.5338870000000 1.0
C      1  0.5075260000000  0.5429880000000  0.4811200000000 1.0
C      1  0.4972910000000  0.5270350000000  0.5507300000000 1.0
C      1  0.4178390000000  0.4996470000000  0.4992070000000 1.0
C      1  0.5106830000000  0.4749750000000  0.5024580000000 1.0
C      1  0.5137510000000  0.5441190000000  0.4418180000000 1.0
C      1  0.5271910000000  0.5161910000000  0.4358510000000 1.0
C      1  0.4612880000000  0.5639130000000  0.5213840000000 1.0
C      1  0.5413890000000  0.4698860000000  0.5544070000000 1.0
C      1  0.4754340000000  0.5704550000000  0.4579420000000 1.0
C      1  0.5571870000000  0.4518250000000  0.4938790000000 1.0
C      1  0.5667900000000  0.4664360000000  0.5377630000000 1.0
C      1  0.4608680000000  0.4444280000000  0.5378080000000 1.0
C      1  0.4232890000000  0.4706480000000  0.5077050000000 1.0
C      1  0.4668820000000  0.4629090000000  0.4810410000000 1.0
C      1  0.4963750000000  0.5319550000000  0.5199950000000 1.0
C      1  0.4968310000000  0.5127370000000  0.4765920000000 1.0
C      1  0.5835130000000  0.4951880000000  0.4940020000000 1.0
C      1  0.5547780000000  0.5120940000000  0.4553250000000 1.0
C      1  0.4856460000000  0.5469290000000  0.4460170000000 1.0
C      1  0.4891720000000  0.4967000000000  0.5371260000000 1.0
C      1  0.4256600000000  0.5313520000000  0.4957870000000 1.0
C      1  0.5238940000000  0.4435240000000  0.5431480000000 1.0
C      1  0.4359160000000  0.4540580000000  0.4902130000000 1.0
C      1  0.5641590000000  0.4435910000000  0.5211300000000 1.0
C      1  0.5410930000000  0.5534330000000  0.4999360000000 1.0
C      1  0.4745170000000  0.5452950000000  0.5650590000000 1.0
C      1  0.5570050000000  0.4792780000000  0.4916340000000 1.0
C      1  0.5314250000000  0.4372340000000  0.4832450000000 1.0
C      1  0.5371040000000  0.5014480000000  0.5627370000000 1.0
C      1  0.4777910000000  0.4543580000000  0.5120920000000 1.0
C      1  0.4836030000000  0.4764180000000  0.4212230000000 1.0
C      1  0.4796350000000  0.4333680000000  0.4700470000000 1.0
C      1  0.5060330000000  0.4634730000000  0.4409480000000 1.0
C      1  0.4686980000000  0.5210150000000  0.4601100000000 1.0
C      1  0.4410550000000  0.5398170000000  0.5231300000000 1.0
END
