TITL C-2847959-7740-266 0.000236198401050503 125000 -838.269190717287 0 0 157 (C1) n - 1
REM
REM in /home/bkarasulu/work/CARBON/AIRSS/Generating-Clusters/AIREBO/with-SteepDescent/Only-C1/SD-CG-opt/Try1-1.4A-POS3A/HFTN-CG
REM
REM
REM
REM
REM
REM ./C.cell (11c1c37f851c82e70ff6c80c92926a4b)
REM
REM compiler GCC version 9.2.1 20190827 (Red Hat 9.2.1-1)
REM options -cpp -mtune=generic -march=x86-64 -g -O0 -fpre-include=/usr/include/finclude/math-vector-fortran.h
REM seed 545379169 -99464523 1369897138 -858792729 -1775444415 -239290683 705117068 -792170506 1279009379 1071809539 1295099321 -347354135 784131533 164370051 -1608309537 -262676451 -1234016178 -1267837186 1433170677 -72209533 -220972276 -1765033790 91115361 687175230 312358904 -1558663324 -1678580973 319232071 -268711964 -65218594 667270980 -487320678 586637801
REM
CELL 1.54180   50.00000   50.00000   50.00000   90.00000   90.00000   90.00000
LATT -1
SFAC C  
C      1  0.4472840000000  0.5878930000000  0.4655960000000 1.0
C      1  0.4553850000000  0.5395130000000  0.4505380000000 1.0
C      1  0.4326900000000  0.4909530000000  0.5515750000000 1.0
C      1  0.4933510000000  0.4578600000000  0.4566370000000 1.0
C      1  0.4942640000000  0.5777070000000  0.4553570000000 1.0
C      1  0.5780950000000  0.4408240000000  0.4622060000000 1.0
C      1  0.4485100000000  0.4838410000000  0.4303120000000 1.0
C      1  0.4643520000000  0.4460640000000  0.5416030000000 1.0
C      1  0.5157720000000  0.5536000000000  0.4621310000000 1.0
C      1  0.4703470000000  0.5576200000000  0.4287060000000 1.0
C      1  0.4742280000000  0.5984010000000  0.4694800000000 1.0
C      1  0.5398140000000  0.4607410000000  0.5374900000000 1.0
C      1  0.5342660000000  0.5713910000000  0.5444730000000 1.0
C      1  0.4200700000000  0.4614250000000  0.4827230000000 1.0
C      1  0.4143290000000  0.5427210000000  0.5474080000000 1.0
C      1  0.5121270000000  0.4675500000000  0.3933680000000 1.0
C      1  0.4969200000000  0.5117790000000  0.3992440000000 1.0
C      1  0.4606220000000  0.4740170000000  0.5611200000000 1.0
C      1  0.4519100000000  0.5480270000000  0.5348480000000 1.0
C      1  0.4963700000000  0.5145900000000  0.4810170000000 1.0
C      1  0.4385320000000  0.5337070000000  0.5001160000000 1.0
C      1  0.5132650000000  0.4336790000000  0.4629830000000 1.0
C      1  0.5697130000000  0.5707340000000  0.5130860000000 1.0
C      1  0.5369010000000  0.5288800000000  0.5328300000000 1.0
C      1  0.5661770000000  0.5592860000000  0.5433900000000 1.0
C      1  0.4650290000000  0.5848060000000  0.5512910000000 1.0
C      1  0.4952190000000  0.5980140000000  0.4963660000000 1.0
C      1  0.5115620000000  0.5560680000000  0.4962210000000 1.0
C      1  0.4720260000000  0.4101730000000  0.5574620000000 1.0
C      1  0.4678260000000  0.4735240000000  0.4111270000000 1.0
C      1  0.4446330000000  0.5053060000000  0.4892820000000 1.0
C      1  0.4103330000000  0.4885530000000  0.5005480000000 1.0
C      1  0.5651120000000  0.4736930000000  0.4444770000000 1.0
C      1  0.5581140000000  0.5177440000000  0.4369590000000 1.0
C      1  0.5610000000000  0.5805300000000  0.4899200000000 1.0
C      1  0.4063440000000  0.5388560000000  0.4996630000000 1.0
C      1  0.5290350000000  0.4408770000000  0.5771650000000 1.0
C      1  0.4832540000000  0.5623150000000  0.4836140000000 1.0
C      1  0.5773040000000  0.5292750000000  0.5549610000000 1.0
C      1  0.4499300000000  0.5171510000000  0.5270090000000 1.0
C      1  0.4327210000000  0.5197890000000  0.4244810000000 1.0
C      1  0.4232950000000  0.5452830000000  0.4536910000000 1.0
C      1  0.4983410000000  0.4778370000000  0.5911030000000 1.0
C      1  0.5711260000000  0.5439450000000  0.4470790000000 1.0
C      1  0.4614800000000  0.4547990000000  0.4623250000000 1.0
C      1  0.5461140000000  0.4885330000000  0.4841200000000 1.0
C      1  0.5524310000000  0.4602990000000  0.4731440000000 1.0
C      1  0.5185950000000  0.5033110000000  0.5457940000000 1.0
C      1  0.4613370000000  0.5104000000000  0.4421360000000 1.0
C      1  0.4820170000000  0.5428510000000  0.5695490000000 1.0
C      1  0.4734960000000  0.5318900000000  0.6005940000000 1.0
C      1  0.5348400000000  0.4086450000000  0.4709790000000 1.0
C      1  0.5071580000000  0.5710280000000  0.4272330000000 1.0
C      1  0.4554240000000  0.5074050000000  0.5967050000000 1.0
C      1  0.5563590000000  0.4572190000000  0.5652330000000 1.0
C      1  0.5627070000000  0.5004610000000  0.5527940000000 1.0
C      1  0.5004660000000  0.5492410000000  0.5413810000000 1.0
C      1  0.3994820000000  0.5704970000000  0.5024950000000 1.0
C      1  0.4679350000000  0.5834110000000  0.5054530000000 1.0
C      1  0.4228140000000  0.4622070000000  0.5668280000000 1.0
C      1  0.4513610000000  0.4839780000000  0.5239910000000 1.0
C      1  0.5436290000000  0.5287310000000  0.4760640000000 1.0
C      1  0.5392010000000  0.5014170000000  0.4562620000000 1.0
C      1  0.4511770000000  0.5869740000000  0.5265390000000 1.0
C      1  0.5235510000000  0.4907220000000  0.6011750000000 1.0
C      1  0.4443130000000  0.5759570000000  0.4390580000000 1.0
C      1  0.4115930000000  0.5150490000000  0.5400710000000 1.0
C      1  0.4181390000000  0.4996160000000  0.4710650000000 1.0
C      1  0.5287170000000  0.4428730000000  0.4902330000000 1.0
C      1  0.5061520000000  0.4654390000000  0.5363280000000 1.0
C      1  0.5135010000000  0.4383810000000  0.5170790000000 1.0
C      1  0.4898630000000  0.4922850000000  0.5615060000000 1.0
C      1  0.5456840000000  0.5623690000000  0.4715370000000 1.0
C      1  0.4361480000000  0.4417080000000  0.5601030000000 1.0
C      1  0.5222130000000  0.5352090000000  0.4364410000000 1.0
C      1  0.4980470000000  0.5558300000000  0.5965960000000 1.0
C      1  0.4549500000000  0.5511920000000  0.4793670000000 1.0
C      1  0.5527920000000  0.4849550000000  0.4148130000000 1.0
C      1  0.4724490000000  0.4959890000000  0.4924300000000 1.0
C      1  0.4763730000000  0.4389250000000  0.5719560000000 1.0
C      1  0.4854170000000  0.4882770000000  0.5220220000000 1.0
C      1  0.5450140000000  0.4648470000000  0.5955680000000 1.0
C      1  0.5434700000000  0.4901090000000  0.5267270000000 1.0
C      1  0.6101770000000  0.4762070000000  0.5437680000000 1.0
C      1  0.4250830000000  0.5652760000000  0.5242640000000 1.0
C      1  0.5217030000000  0.5240650000000  0.5016320000000 1.0
C      1  0.4977560000000  0.4636770000000  0.4239380000000 1.0
C      1  0.4568620000000  0.4571620000000  0.5904160000000 1.0
C      1  0.4462490000000  0.4232220000000  0.5111100000000 1.0
C      1  0.4150360000000  0.4258280000000  0.5178420000000 1.0
C      1  0.5336300000000  0.5776930000000  0.4247480000000 1.0
C      1  0.4718190000000  0.4648570000000  0.4915880000000 1.0
C      1  0.5755330000000  0.4344810000000  0.5135960000000 1.0
C      1  0.5661770000000  0.5376270000000  0.5177480000000 1.0
C      1  0.5396690000000  0.5223100000000  0.4101810000000 1.0
C      1  0.4326990000000  0.4661010000000  0.4550240000000 1.0
C      1  0.4290770000000  0.5504070000000  0.4225270000000 1.0
C      1  0.4730070000000  0.4407500000000  0.4195310000000 1.0
C      1  0.3992460000000  0.5128680000000  0.5151560000000 1.0
C      1  0.4440580000000  0.4560620000000  0.5059690000000 1.0
C      1  0.4957650000000  0.5414420000000  0.4158210000000 1.0
C      1  0.5262270000000  0.4129740000000  0.5634140000000 1.0
C      1  0.5647750000000  0.5485190000000  0.5800370000000 1.0
C      1  0.5264250000000  0.4952150000000  0.3959000000000 1.0
C      1  0.4806730000000  0.4431390000000  0.5150560000000 1.0
C      1  0.4668890000000  0.4046690000000  0.5315420000000 1.0
C      1  0.4185170000000  0.4934150000000  0.4405660000000 1.0
C      1  0.5846590000000  0.4944320000000  0.4632250000000 1.0
C      1  0.5357650000000  0.5433160000000  0.5636140000000 1.0
C      1  0.6151270000000  0.5052460000000  0.5008150000000 1.0
C      1  0.5295310000000  0.5183990000000  0.5823520000000 1.0
C      1  0.4958550000000  0.5814780000000  0.5481240000000 1.0
C      1  0.5926130000000  0.4603230000000  0.5191670000000 1.0
C      1  0.5042090000000  0.4821940000000  0.4727840000000 1.0
C      1  0.4736350000000  0.5177400000000  0.5482110000000 1.0
C      1  0.4321390000000  0.5721700000000  0.4917040000000 1.0
C      1  0.5224650000000  0.4301020000000  0.4164050000000 1.0
C      1  0.5497620000000  0.4941630000000  0.5790120000000 1.0
C      1  0.4992540000000  0.5169170000000  0.5832070000000 1.0
C      1  0.5774990000000  0.4728880000000  0.5469020000000 1.0
C      1  0.5027990000000  0.4552000000000  0.5684910000000 1.0
C      1  0.4750590000000  0.4942150000000  0.3917950000000 1.0
C      1  0.5690320000000  0.4923480000000  0.5046250000000 1.0
C      1  0.5912670000000  0.5062240000000  0.5254030000000 1.0
C      1  0.5199420000000  0.4901030000000  0.5019110000000 1.0
C      1  0.4767120000000  0.4128830000000  0.5000310000000 1.0
C      1  0.5292160000000  0.4150510000000  0.5361820000000 1.0
C      1  0.5967750000000  0.4784620000000  0.4907010000000 1.0
C      1  0.4091380000000  0.5294980000000  0.4707440000000 1.0
C      1  0.5198030000000  0.4408620000000  0.3905440000000 1.0
C      1  0.6013900000000  0.4506110000000  0.4724960000000 1.0
C      1  0.6021990000000  0.5061120000000  0.5549950000000 1.0
C      1  0.5084800000000  0.4055660000000  0.4922420000000 1.0
C      1  0.4049290000000  0.4506750000000  0.5111920000000 1.0
C      1  0.4550260000000  0.5591880000000  0.5664660000000 1.0
C      1  0.4116430000000  0.4744250000000  0.5305650000000 1.0
C      1  0.5147420000000  0.5682930000000  0.5731390000000 1.0
C      1  0.4305760000000  0.5403220000000  0.5704140000000 1.0
C      1  0.4881250000000  0.5030510000000  0.4512810000000 1.0
C      1  0.5565980000000  0.4248950000000  0.4915270000000 1.0
C      1  0.4689830000000  0.4263550000000  0.4502230000000 1.0
C      1  0.5383260000000  0.4459150000000  0.4341780000000 1.0
C      1  0.5132880000000  0.5796520000000  0.5189780000000 1.0
C      1  0.4347400000000  0.5122360000000  0.5780790000000 1.0
C      1  0.5535330000000  0.4279380000000  0.4504650000000 1.0
C      1  0.5087180000000  0.5063640000000  0.4298600000000 1.0
C      1  0.5888610000000  0.4929770000000  0.4296640000000 1.0
C      1  0.5538300000000  0.5675270000000  0.4411410000000 1.0
C      1  0.4980840000000  0.4245380000000  0.4338980000000 1.0
C      1  0.5887210000000  0.5265420000000  0.4985040000000 1.0
C      1  0.5760680000000  0.5221170000000  0.4722860000000 1.0
C      1  0.4682660000000  0.4832980000000  0.5996230000000 1.0
C      1  0.5510510000000  0.4337610000000  0.5297950000000 1.0
C      1  0.4640730000000  0.4067920000000  0.4700580000000 1.0
C      1  0.4974050000000  0.5199640000000  0.5250660000000 1.0
C      1  0.5265500000000  0.4778980000000  0.4351840000000 1.0
C      1  0.5725860000000  0.5112360000000  0.4070000000000 1.0
END
