TITL C-2848501-3133-199 -0.000758337028697234 125000 -1004.67152115305 0 0 184 (C1) n - 1
REM
REM in /home/bkarasulu/work/CARBON/AIRSS/Generating-Clusters/AIREBO/with-SteepDescent/Only-C1/SD-CG-opt/Try1-1.4A-POS3A/HFTN-CG
REM
REM
REM
REM
REM
REM ./C.cell (11c1c37f851c82e70ff6c80c92926a4b)
REM
REM compiler GCC version 9.2.1 20190827 (Red Hat 9.2.1-1)
REM options -cpp -mtune=generic -march=x86-64 -g -O0 -fpre-include=/usr/include/finclude/math-vector-fortran.h
REM seed -1073990205 -781551155 -1298659594 738372602 -1421512862 -1523352571 -677390402 -922728917 -583795675 1131367395 205508896 2066841904 -439138468 15783156 1344130328 1225449171 1837776627 -738508405 -143585023 -2061983414 -947315057 -98075116 -203174881 -1204500280 -1739697711 -782187179 -169253544 437090364 -1425306316 -168739635 529832913 436771906 -1372903013
REM
CELL 1.54180   50.00000   50.00000   50.00000   90.00000   90.00000   90.00000
LATT -1
SFAC C  
C      1  0.4778020000000  0.4716920000000  0.4321140000000 1.0
C      1  0.5017240000000  0.4882980000000  0.5172320000000 1.0
C      1  0.6080850000000  0.5093360000000  0.4540240000000 1.0
C      1  0.5646840000000  0.4668200000000  0.5607820000000 1.0
C      1  0.5047140000000  0.4808450000000  0.4687210000000 1.0
C      1  0.4855040000000  0.4873060000000  0.6139640000000 1.0
C      1  0.4223640000000  0.4343350000000  0.4662270000000 1.0
C      1  0.5265210000000  0.5051370000000  0.4782350000000 1.0
C      1  0.5929470000000  0.5322580000000  0.5143800000000 1.0
C      1  0.4568880000000  0.5417550000000  0.6007290000000 1.0
C      1  0.4005240000000  0.5441680000000  0.5155110000000 1.0
C      1  0.5494450000000  0.4147590000000  0.4352030000000 1.0
C      1  0.4694080000000  0.5957630000000  0.4605510000000 1.0
C      1  0.6015050000000  0.4684320000000  0.4563080000000 1.0
C      1  0.4633380000000  0.4093090000000  0.4936170000000 1.0
C      1  0.3925350000000  0.4765820000000  0.4814240000000 1.0
C      1  0.4516510000000  0.4212890000000  0.4639970000000 1.0
C      1  0.6141780000000  0.5488100000000  0.5094410000000 1.0
C      1  0.4409860000000  0.5428840000000  0.5706920000000 1.0
C      1  0.4968480000000  0.4075100000000  0.5722100000000 1.0
C      1  0.3917680000000  0.4698370000000  0.5335660000000 1.0
C      1  0.4543060000000  0.4780060000000  0.6031710000000 1.0
C      1  0.5338130000000  0.3977830000000  0.4575040000000 1.0
C      1  0.5135350000000  0.4228820000000  0.5020190000000 1.0
C      1  0.5619980000000  0.5274110000000  0.4182400000000 1.0
C      1  0.4582630000000  0.4397500000000  0.5651300000000 1.0
C      1  0.4730310000000  0.5579570000000  0.4990670000000 1.0
C      1  0.5389160000000  0.4462070000000  0.4766780000000 1.0
C      1  0.5565850000000  0.4701160000000  0.6076900000000 1.0
C      1  0.5263570000000  0.4969490000000  0.5472860000000 1.0
C      1  0.5346970000000  0.4439960000000  0.5311330000000 1.0
C      1  0.5092940000000  0.4642180000000  0.4216880000000 1.0
C      1  0.5286110000000  0.4740920000000  0.4478930000000 1.0
C      1  0.6223650000000  0.5006610000000  0.4733910000000 1.0
C      1  0.5547130000000  0.4034010000000  0.4832400000000 1.0
C      1  0.3886090000000  0.5162970000000  0.5120330000000 1.0
C      1  0.4686300000000  0.4355310000000  0.4457450000000 1.0
C      1  0.5785820000000  0.4415710000000  0.5575220000000 1.0
C      1  0.5084430000000  0.5915150000000  0.4891320000000 1.0
C      1  0.5377590000000  0.4899380000000  0.3967100000000 1.0
C      1  0.5240600000000  0.4040880000000  0.5628860000000 1.0
C      1  0.4035700000000  0.5064510000000  0.4858460000000 1.0
C      1  0.5053600000000  0.5295000000000  0.4332110000000 1.0
C      1  0.4752490000000  0.4175590000000  0.5502270000000 1.0
C      1  0.5583260000000  0.4689960000000  0.4624600000000 1.0
C      1  0.5210960000000  0.4497700000000  0.5826220000000 1.0
C      1  0.5557450000000  0.5304060000000  0.5872720000000 1.0
C      1  0.5182710000000  0.5733110000000  0.5150600000000 1.0
C      1  0.4532580000000  0.5646610000000  0.5530110000000 1.0
C      1  0.5384490000000  0.4971740000000  0.4292940000000 1.0
C      1  0.6099560000000  0.4790050000000  0.4904480000000 1.0
C      1  0.5787700000000  0.4927660000000  0.4492980000000 1.0
C      1  0.4495820000000  0.6042320000000  0.4823050000000 1.0
C      1  0.4924200000000  0.4963000000000  0.5492980000000 1.0
C      1  0.5049390000000  0.4306380000000  0.5400520000000 1.0
C      1  0.5953350000000  0.4387190000000  0.5314610000000 1.0
C      1  0.5388840000000  0.4229350000000  0.5766310000000 1.0
C      1  0.4342870000000  0.4992950000000  0.4084750000000 1.0
C      1  0.4516150000000  0.4710250000000  0.5638980000000 1.0
C      1  0.4745440000000  0.3987540000000  0.5239650000000 1.0
C      1  0.5797970000000  0.4433610000000  0.4616410000000 1.0
C      1  0.5348880000000  0.5133470000000  0.6091730000000 1.0
C      1  0.4830350000000  0.5714430000000  0.5649410000000 1.0
C      1  0.5111170000000  0.5795700000000  0.4271810000000 1.0
C      1  0.5887090000000  0.5853380000000  0.4832080000000 1.0
C      1  0.5155440000000  0.4884870000000  0.6146730000000 1.0
C      1  0.4851080000000  0.5833650000000  0.5350010000000 1.0
C      1  0.5536380000000  0.4658050000000  0.4101540000000 1.0
C      1  0.5831120000000  0.4865500000000  0.5070460000000 1.0
C      1  0.5354360000000  0.4425920000000  0.4243950000000 1.0
C      1  0.4844320000000  0.4444490000000  0.5223410000000 1.0
C      1  0.5270410000000  0.5038840000000  0.5784750000000 1.0
C      1  0.4807210000000  0.5304130000000  0.3993660000000 1.0
C      1  0.4614090000000  0.4478940000000  0.4148850000000 1.0
C      1  0.4447970000000  0.5137390000000  0.5884470000000 1.0
C      1  0.4911150000000  0.6059990000000  0.5134140000000 1.0
C      1  0.4199220000000  0.5396620000000  0.4325350000000 1.0
C      1  0.4722480000000  0.5179980000000  0.5326020000000 1.0
C      1  0.5575250000000  0.5697550000000  0.4388510000000 1.0
C      1  0.4766590000000  0.5138850000000  0.5981780000000 1.0
C      1  0.4474260000000  0.4767780000000  0.4385700000000 1.0
C      1  0.4621230000000  0.4395560000000  0.5030990000000 1.0
C      1  0.5432640000000  0.5823350000000  0.4624970000000 1.0
C      1  0.4686930000000  0.4613190000000  0.4813800000000 1.0
C      1  0.4940590000000  0.5516450000000  0.5251000000000 1.0
C      1  0.5334040000000  0.5200210000000  0.4501540000000 1.0
C      1  0.5147910000000  0.5282370000000  0.5002590000000 1.0
C      1  0.4287830000000  0.4779220000000  0.4980080000000 1.0
C      1  0.5715650000000  0.4945400000000  0.5465960000000 1.0
C      1  0.5657680000000  0.5864160000000  0.5331930000000 1.0
C      1  0.5848240000000  0.5255000000000  0.5419420000000 1.0
C      1  0.4255360000000  0.5177290000000  0.5537190000000 1.0
C      1  0.5474960000000  0.6058980000000  0.5035390000000 1.0
C      1  0.4933420000000  0.4497440000000  0.4610140000000 1.0
C      1  0.4312380000000  0.4348430000000  0.4106900000000 1.0
C      1  0.4820250000000  0.5195540000000  0.5030500000000 1.0
C      1  0.5038820000000  0.5589090000000  0.4502300000000 1.0
C      1  0.5223940000000  0.6151780000000  0.5179640000000 1.0
C      1  0.4279980000000  0.4501290000000  0.4366450000000 1.0
C      1  0.4596490000000  0.5676570000000  0.4460750000000 1.0
C      1  0.5175380000000  0.5955480000000  0.4565190000000 1.0
C      1  0.5566120000000  0.4396370000000  0.5049640000000 1.0
C      1  0.5781320000000  0.5965570000000  0.5076210000000 1.0
C      1  0.5544240000000  0.4984310000000  0.5188830000000 1.0
C      1  0.4106540000000  0.5573790000000  0.4529620000000 1.0
C      1  0.4893120000000  0.5109060000000  0.4647680000000 1.0
C      1  0.4885990000000  0.4398720000000  0.5806170000000 1.0
C      1  0.5207250000000  0.4560760000000  0.5036590000000 1.0
C      1  0.4152400000000  0.4343390000000  0.4966410000000 1.0
C      1  0.4411760000000  0.4755520000000  0.4695450000000 1.0
C      1  0.4840750000000  0.5395310000000  0.5552660000000 1.0
C      1  0.5392710000000  0.5516360000000  0.5050180000000 1.0
C      1  0.4591340000000  0.5195310000000  0.4778890000000 1.0
C      1  0.5477390000000  0.5788210000000  0.4889230000000 1.0
C      1  0.5723510000000  0.5417450000000  0.4461720000000 1.0
C      1  0.4124830000000  0.5529630000000  0.4852860000000 1.0
C      1  0.4869390000000  0.5773190000000  0.4068520000000 1.0
C      1  0.5292460000000  0.4644160000000  0.6081780000000 1.0
C      1  0.5846780000000  0.4531540000000  0.5072060000000 1.0
C      1  0.4765180000000  0.4549550000000  0.6085930000000 1.0
C      1  0.5758170000000  0.4147510000000  0.5386810000000 1.0
C      1  0.4542990000000  0.5092870000000  0.4458110000000 1.0
C      1  0.4343480000000  0.5110520000000  0.4995840000000 1.0
C      1  0.4289640000000  0.4413620000000  0.5498980000000 1.0
C      1  0.4459790000000  0.5508360000000  0.4796840000000 1.0
C      1  0.5301370000000  0.4875310000000  0.5042350000000 1.0
C      1  0.5815760000000  0.5706050000000  0.4622870000000 1.0
C      1  0.4461420000000  0.3838960000000  0.4905160000000 1.0
C      1  0.4726580000000  0.5370620000000  0.4387550000000 1.0
C      1  0.5547390000000  0.4082720000000  0.5162690000000 1.0
C      1  0.5081000000000  0.5809390000000  0.5802060000000 1.0
C      1  0.4438460000000  0.5053120000000  0.5317260000000 1.0
C      1  0.4055370000000  0.4928050000000  0.5631170000000 1.0
C      1  0.4989820000000  0.3841900000000  0.5233290000000 1.0
C      1  0.5478850000000  0.5437260000000  0.6157890000000 1.0
C      1  0.4203050000000  0.5776870000000  0.5063440000000 1.0
C      1  0.4056970000000  0.4628900000000  0.4562880000000 1.0
C      1  0.4758060000000  0.4877060000000  0.4952810000000 1.0
C      1  0.5590610000000  0.5720710000000  0.5589980000000 1.0
C      1  0.4338020000000  0.5407020000000  0.5162200000000 1.0
C      1  0.5704340000000  0.4945820000000  0.4184070000000 1.0
C      1  0.4019430000000  0.4616240000000  0.5071520000000 1.0
C      1  0.5033600000000  0.5371100000000  0.4721990000000 1.0
C      1  0.4931010000000  0.4810190000000  0.3969170000000 1.0
C      1  0.4340340000000  0.5791990000000  0.4652240000000 1.0
C      1  0.5209000000000  0.4354610000000  0.4539090000000 1.0
C      1  0.5808110000000  0.5132570000000  0.5736260000000 1.0
C      1  0.4469870000000  0.4743340000000  0.5332640000000 1.0
C      1  0.5395610000000  0.5414480000000  0.4064470000000 1.0
C      1  0.5247680000000  0.4053510000000  0.5289050000000 1.0
C      1  0.5471780000000  0.5289650000000  0.5290930000000 1.0
C      1  0.5799620000000  0.5162320000000  0.4938970000000 1.0
C      1  0.4777630000000  0.4712840000000  0.5315250000000 1.0
C      1  0.5634710000000  0.5180680000000  0.4660890000000 1.0
C      1  0.4499650000000  0.5698840000000  0.5210360000000 1.0
C      1  0.4701940000000  0.5559530000000  0.4036150000000 1.0
C      1  0.5143140000000  0.5255380000000  0.5332560000000 1.0
C      1  0.4166690000000  0.4950790000000  0.4562890000000 1.0
C      1  0.4670950000000  0.5059460000000  0.4144670000000 1.0
C      1  0.5580840000000  0.4909380000000  0.5838230000000 1.0
C      1  0.4827190000000  0.4719440000000  0.5709620000000 1.0
C      1  0.4323010000000  0.4875500000000  0.5804900000000 1.0
C      1  0.4964510000000  0.5184680000000  0.5755420000000 1.0
C      1  0.5320680000000  0.5908620000000  0.5370010000000 1.0
C      1  0.3878790000000  0.4994160000000  0.5346680000000 1.0
C      1  0.5117690000000  0.5280310000000  0.3998390000000 1.0
C      1  0.5677760000000  0.4177560000000  0.4593870000000 1.0
C      1  0.6051780000000  0.4471320000000  0.4825600000000 1.0
C      1  0.5596270000000  0.5425470000000  0.5571290000000 1.0
C      1  0.4951630000000  0.4095860000000  0.4847690000000 1.0
C      1  0.4178130000000  0.5114760000000  0.4298530000000 1.0
C      1  0.4362610000000  0.4452030000000  0.5192100000000 1.0
C      1  0.4596940000000  0.6002390000000  0.5092010000000 1.0
C      1  0.4882880000000  0.5739410000000  0.4732050000000 1.0
C      1  0.4089240000000  0.5429470000000  0.5469680000000 1.0
C      1  0.5061010000000  0.4074980000000  0.4598950000000 1.0
C      1  0.5132800000000  0.4993520000000  0.3876530000000 1.0
C      1  0.4079770000000  0.4594660000000  0.5567550000000 1.0
C      1  0.5330010000000  0.4647400000000  0.5560500000000 1.0
C      1  0.4592780000000  0.4774790000000  0.3975800000000 1.0
C      1  0.5383120000000  0.5686470000000  0.4160500000000 1.0
C      1  0.5318280000000  0.5824180000000  0.5679660000000 1.0
C      1  0.4932350000000  0.4982910000000  0.4348170000000 1.0
C      1  0.4458060000000  0.5502470000000  0.4225800000000 1.0
END
