TITL C-2848498-1409-156 -0.000535694463020339 125000 -839.165573860515 0 0 162 (C1) n - 1
REM
REM in /home/bkarasulu/work/CARBON/AIRSS/Generating-Clusters/AIREBO/with-SteepDescent/Only-C1/SD-CG-opt/Try1-1.4A-POS3A/HFTN-CG
REM
REM
REM
REM
REM
REM ./C.cell (11c1c37f851c82e70ff6c80c92926a4b)
REM
REM compiler GCC version 9.2.1 20190827 (Red Hat 9.2.1-1)
REM options -cpp -mtune=generic -march=x86-64 -g -O0 -fpre-include=/usr/include/finclude/math-vector-fortran.h
REM seed 2044406682 2116183182 535225008 -796151391 -1953279678 2146215208 1063871316 1473389065 862317762 401269036 379391717 -2071688634 1672353129 1316469825 1608350302 -196159745 710970500 1436478803 1500549947 743153803 1202403759 -158629367 293432690 561702035 -398921924 442142555 -1854904918 1906532197 -258730855 -540938746 -298228789 -441991220 -1435604392
REM
CELL 1.54180   50.00000   50.00000   50.00000   90.00000   90.00000   90.00000
LATT -1
SFAC C  
C      1  0.5871090000000  0.4396960000000  0.5371870000000 1.0
C      1  0.5860870000000  0.5230790000000  0.4508320000000 1.0
C      1  0.5661620000000  0.5007350000000  0.4190800000000 1.0
C      1  0.5473680000000  0.4604800000000  0.5495010000000 1.0
C      1  0.4341610000000  0.5844920000000  0.5194030000000 1.0
C      1  0.4163760000000  0.4691980000000  0.5242550000000 1.0
C      1  0.4176690000000  0.4841100000000  0.4500760000000 1.0
C      1  0.4746660000000  0.4182370000000  0.4281720000000 1.0
C      1  0.5056140000000  0.5154580000000  0.5671030000000 1.0
C      1  0.6072240000000  0.5044400000000  0.5236890000000 1.0
C      1  0.4529030000000  0.4981980000000  0.4783500000000 1.0
C      1  0.5007450000000  0.5739410000000  0.4352790000000 1.0
C      1  0.5712740000000  0.5400010000000  0.4341260000000 1.0
C      1  0.4295090000000  0.5627870000000  0.4496610000000 1.0
C      1  0.5174200000000  0.4267090000000  0.5656160000000 1.0
C      1  0.4146280000000  0.5080910000000  0.5049790000000 1.0
C      1  0.5540000000000  0.4333940000000  0.5314280000000 1.0
C      1  0.5672250000000  0.5768550000000  0.4833540000000 1.0
C      1  0.5717080000000  0.4480910000000  0.4889700000000 1.0
C      1  0.5040160000000  0.5338940000000  0.4701940000000 1.0
C      1  0.5254970000000  0.5935180000000  0.4435410000000 1.0
C      1  0.4737010000000  0.4563550000000  0.5245940000000 1.0
C      1  0.4777640000000  0.4619140000000  0.4812720000000 1.0
C      1  0.4493260000000  0.4951330000000  0.6092160000000 1.0
C      1  0.4812580000000  0.4429920000000  0.5922910000000 1.0
C      1  0.4741220000000  0.4971600000000  0.5518700000000 1.0
C      1  0.5020160000000  0.4378880000000  0.4328760000000 1.0
C      1  0.5411070000000  0.5082370000000  0.5403070000000 1.0
C      1  0.4430350000000  0.5617730000000  0.5428750000000 1.0
C      1  0.5581160000000  0.4701800000000  0.4307120000000 1.0
C      1  0.5157520000000  0.6130930000000  0.4658260000000 1.0
C      1  0.5084530000000  0.4413800000000  0.5875490000000 1.0
C      1  0.5059910000000  0.5204630000000  0.5334560000000 1.0
C      1  0.4862110000000  0.4040830000000  0.5266200000000 1.0
C      1  0.4072730000000  0.5345440000000  0.5209150000000 1.0
C      1  0.4164320000000  0.4835520000000  0.5483530000000 1.0
C      1  0.4373940000000  0.4830910000000  0.5014150000000 1.0
C      1  0.5126410000000  0.3986080000000  0.4632680000000 1.0
C      1  0.4509520000000  0.4862160000000  0.4465890000000 1.0
C      1  0.4597290000000  0.4061220000000  0.5065390000000 1.0
C      1  0.5173820000000  0.4656370000000  0.4446290000000 1.0
C      1  0.5174010000000  0.5298650000000  0.5955560000000 1.0
C      1  0.5039860000000  0.5401130000000  0.4373620000000 1.0
C      1  0.4967480000000  0.5237120000000  0.3910320000000 1.0
C      1  0.5784570000000  0.4899740000000  0.4494520000000 1.0
C      1  0.4677020000000  0.4100500000000  0.5516950000000 1.0
C      1  0.4677880000000  0.4720180000000  0.5967530000000 1.0
C      1  0.4202630000000  0.5386210000000  0.5455510000000 1.0
C      1  0.5479050000000  0.5395990000000  0.5506980000000 1.0
C      1  0.4641950000000  0.5818910000000  0.4737770000000 1.0
C      1  0.5293000000000  0.3963620000000  0.4369130000000 1.0
C      1  0.5290780000000  0.4250970000000  0.4779460000000 1.0
C      1  0.4725480000000  0.5634850000000  0.5774240000000 1.0
C      1  0.4952710000000  0.5966840000000  0.5360350000000 1.0
C      1  0.5315390000000  0.4229550000000  0.4287730000000 1.0
C      1  0.4710350000000  0.5186660000000  0.4042830000000 1.0
C      1  0.4956230000000  0.4382570000000  0.5080850000000 1.0
C      1  0.5713850000000  0.4983980000000  0.5445450000000 1.0
C      1  0.4176680000000  0.4740610000000  0.5777560000000 1.0
C      1  0.5954360000000  0.4820830000000  0.5068410000000 1.0
C      1  0.5296340000000  0.3867980000000  0.4891400000000 1.0
C      1  0.5038390000000  0.5593040000000  0.5724760000000 1.0
C      1  0.5325620000000  0.5480170000000  0.4636800000000 1.0
C      1  0.4798900000000  0.4000620000000  0.4559890000000 1.0
C      1  0.5836510000000  0.4981360000000  0.4815930000000 1.0
C      1  0.5264410000000  0.4655960000000  0.5955420000000 1.0
C      1  0.4340940000000  0.5117340000000  0.5580330000000 1.0
C      1  0.4132180000000  0.5041630000000  0.4711000000000 1.0
C      1  0.5684970000000  0.4240960000000  0.5036590000000 1.0
C      1  0.4357140000000  0.5792040000000  0.4705310000000 1.0
C      1  0.4338930000000  0.4406370000000  0.4750410000000 1.0
C      1  0.4928650000000  0.5508270000000  0.6029520000000 1.0
C      1  0.5412460000000  0.4158800000000  0.5565960000000 1.0
C      1  0.5005620000000  0.4967350000000  0.5096820000000 1.0
C      1  0.4758790000000  0.5651860000000  0.4171990000000 1.0
C      1  0.5240830000000  0.5049830000000  0.3991510000000 1.0
C      1  0.4534420000000  0.4525630000000  0.4512250000000 1.0
C      1  0.4970880000000  0.4751960000000  0.6097760000000 1.0
C      1  0.5286090000000  0.5249400000000  0.5084090000000 1.0
C      1  0.4642090000000  0.5376590000000  0.4953440000000 1.0
C      1  0.4882460000000  0.5966040000000  0.4573490000000 1.0
C      1  0.5526210000000  0.4057680000000  0.4904690000000 1.0
C      1  0.4999690000000  0.4310090000000  0.5408020000000 1.0
C      1  0.4729990000000  0.4565460000000  0.4126640000000 1.0
C      1  0.4453860000000  0.4738550000000  0.4090110000000 1.0
C      1  0.5552370000000  0.5349270000000  0.4766090000000 1.0
C      1  0.5058330000000  0.4555790000000  0.4039480000000 1.0
C      1  0.5391050000000  0.4558470000000  0.4671590000000 1.0
C      1  0.5783320000000  0.5512290000000  0.4780780000000 1.0
C      1  0.5176170000000  0.5750920000000  0.4779170000000 1.0
C      1  0.4715750000000  0.5876360000000  0.5060310000000 1.0
C      1  0.6004830000000  0.5282650000000  0.4812230000000 1.0
C      1  0.5291700000000  0.4399940000000  0.5085240000000 1.0
C      1  0.5262330000000  0.5381550000000  0.3998770000000 1.0
C      1  0.5153470000000  0.4610750000000  0.5447810000000 1.0
C      1  0.4877010000000  0.5595990000000  0.4826050000000 1.0
C      1  0.4732190000000  0.5190740000000  0.4511240000000 1.0
C      1  0.4515880000000  0.4595300000000  0.5474360000000 1.0
C      1  0.4516590000000  0.4891190000000  0.5303640000000 1.0
C      1  0.4848010000000  0.4889100000000  0.4448510000000 1.0
C      1  0.5531300000000  0.4613890000000  0.5776190000000 1.0
C      1  0.5226670000000  0.6107770000000  0.5215860000000 1.0
C      1  0.4828490000000  0.4395780000000  0.4609200000000 1.0
C      1  0.4170210000000  0.5470230000000  0.4964300000000 1.0
C      1  0.4845900000000  0.4161880000000  0.4855650000000 1.0
C      1  0.5374860000000  0.5368600000000  0.4319400000000 1.0
C      1  0.4916790000000  0.4794540000000  0.5341620000000 1.0
C      1  0.5474080000000  0.5850110000000  0.4648690000000 1.0
C      1  0.5045960000000  0.3942320000000  0.5021140000000 1.0
C      1  0.4653840000000  0.4229680000000  0.5810340000000 1.0
C      1  0.5961960000000  0.5402530000000  0.5128030000000 1.0
C      1  0.5566410000000  0.5750140000000  0.5093110000000 1.0
C      1  0.5163970000000  0.5491170000000  0.5485430000000 1.0
C      1  0.4796420000000  0.5249390000000  0.5839090000000 1.0
C      1  0.4233430000000  0.4628400000000  0.4274420000000 1.0
C      1  0.5166400000000  0.5728820000000  0.5303280000000 1.0
C      1  0.4447410000000  0.5193260000000  0.5163660000000 1.0
C      1  0.5456490000000  0.5894980000000  0.5348340000000 1.0
C      1  0.4762050000000  0.5571810000000  0.5204690000000 1.0
C      1  0.4609020000000  0.5427870000000  0.4189820000000 1.0
C      1  0.4725710000000  0.5267030000000  0.5351070000000 1.0
C      1  0.4493920000000  0.4841480000000  0.5707890000000 1.0
C      1  0.5916790000000  0.5595230000000  0.5325420000000 1.0
C      1  0.4458500000000  0.4324380000000  0.5576590000000 1.0
C      1  0.4205680000000  0.5153540000000  0.4094930000000 1.0
C      1  0.4134390000000  0.4512030000000  0.5001350000000 1.0
C      1  0.5756660000000  0.5151700000000  0.5169070000000 1.0
C      1  0.5423650000000  0.5051460000000  0.4416220000000 1.0
C      1  0.5227280000000  0.6055050000000  0.4933670000000 1.0
C      1  0.5370280000000  0.4966630000000  0.5864470000000 1.0
C      1  0.4818330000000  0.6133870000000  0.4863390000000 1.0
C      1  0.5221370000000  0.4902020000000  0.5576900000000 1.0
C      1  0.5680800000000  0.5666910000000  0.5466830000000 1.0
C      1  0.5771610000000  0.4447860000000  0.4625420000000 1.0
C      1  0.4855550000000  0.5073710000000  0.4807690000000 1.0
C      1  0.5077470000000  0.5518290000000  0.5089540000000 1.0
C      1  0.5465280000000  0.5493030000000  0.5181320000000 1.0
C      1  0.5150940000000  0.5004610000000  0.6109830000000 1.0
C      1  0.5532370000000  0.4405600000000  0.4402730000000 1.0
C      1  0.4471280000000  0.4371080000000  0.4231260000000 1.0
C      1  0.5418480000000  0.4897220000000  0.4657410000000 1.0
C      1  0.5490570000000  0.5283210000000  0.5827710000000 1.0
C      1  0.5042600000000  0.5078270000000  0.4266310000000 1.0
C      1  0.4480300000000  0.5361900000000  0.4474090000000 1.0
C      1  0.4454900000000  0.5041470000000  0.4181420000000 1.0
C      1  0.5522620000000  0.4731560000000  0.5008320000000 1.0
C      1  0.4239070000000  0.5738380000000  0.4954580000000 1.0
C      1  0.5027710000000  0.4793650000000  0.4720910000000 1.0
C      1  0.5285130000000  0.4779440000000  0.4158560000000 1.0
C      1  0.5527910000000  0.5063300000000  0.4933360000000 1.0
C      1  0.4344470000000  0.5415860000000  0.5890840000000 1.0
C      1  0.5207930000000  0.4715550000000  0.4990410000000 1.0
C      1  0.4516160000000  0.5194710000000  0.5981340000000 1.0
C      1  0.4560960000000  0.5375350000000  0.5628410000000 1.0
C      1  0.4420750000000  0.4263770000000  0.5128450000000 1.0
C      1  0.4620990000000  0.5896140000000  0.5386260000000 1.0
C      1  0.4364730000000  0.5279700000000  0.4782000000000 1.0
C      1  0.4499610000000  0.4127910000000  0.4659510000000 1.0
C      1  0.5730370000000  0.5110610000000  0.5715080000000 1.0
C      1  0.4531900000000  0.4552880000000  0.4988970000000 1.0
C      1  0.5722180000000  0.4687990000000  0.5278330000000 1.0
C      1  0.4902310000000  0.4849980000000  0.4056020000000 1.0
END
