TITL C-2848502-4955-720 -0.00665407267517612 125000 -120.179321456581 0 0 23 (C1) n - 1
REM
REM in /home/bkarasulu/work/CARBON/AIRSS/Generating-Clusters/AIREBO/with-SteepDescent/Only-C1/SD-CG-opt/Try1-1.4A-POS3A/HFTN-CG
REM
REM
REM
REM
REM
REM ./C.cell (11c1c37f851c82e70ff6c80c92926a4b)
REM
REM compiler GCC version 9.2.1 20190827 (Red Hat 9.2.1-1)
REM options -cpp -mtune=generic -march=x86-64 -g -O0 -fpre-include=/usr/include/finclude/math-vector-fortran.h
REM seed 2050285617 1119422283 346217763 -716802338 -2102786565 -1924027102 1324208812 -71109442 -707539312 -1662536711 577923290 -1333757497 -451109358 -2115550019 -229651334 -1019286273 -22796499 -1227494803 -1525242665 1932438799 -2147003771 -1780110192 1795237586 -975967890 -1795632942 420845190 -990963426 305205080 2007390776 1485294732 151408282 1951546558 477958474
REM
CELL 1.54180   50.00000   50.00000   50.00000   90.00000   90.00000   90.00000
LATT -1
SFAC C  
C      1  0.4641610000000  0.5324020000000  0.5315860000000 1.0
C      1  0.4967350000000  0.4682870000000  0.5446460000000 1.0
C      1  0.4793460000000  0.5364140000000  0.5095680000000 1.0
C      1  0.5610370000000  0.5177160000000  0.5270210000000 1.0
C      1  0.4535330000000  0.4891940000000  0.4917230000000 1.0
C      1  0.5418410000000  0.5190240000000  0.5031930000000 1.0
C      1  0.4958750000000  0.4639900000000  0.4788850000000 1.0
C      1  0.5036380000000  0.4836030000000  0.5239900000000 1.0
C      1  0.4858490000000  0.4840910000000  0.4997250000000 1.0
C      1  0.5251270000000  0.5386320000000  0.4563980000000 1.0
C      1  0.4745950000000  0.4499760000000  0.5600490000000 1.0
C      1  0.5507710000000  0.4956500000000  0.5449880000000 1.0
C      1  0.4762770000000  0.5191500000000  0.4609810000000 1.0
C      1  0.4902130000000  0.5606870000000  0.5046340000000 1.0
C      1  0.5046040000000  0.4747720000000  0.4546840000000 1.0
C      1  0.5384040000000  0.5279620000000  0.4776750000000 1.0
C      1  0.4497740000000  0.5054900000000  0.4721910000000 1.0
C      1  0.5281270000000  0.4959280000000  0.5220410000000 1.0
C      1  0.5021470000000  0.5288560000000  0.4440260000000 1.0
C      1  0.4944440000000  0.4371610000000  0.4842340000000 1.0
C      1  0.4832080000000  0.5157880000000  0.4914940000000 1.0
C      1  0.4981840000000  0.4979920000000  0.4414300000000 1.0
C      1  0.5021110000000  0.4572340000000  0.5748380000000 1.0
END
