TITL C-2847946-5639-268 -0.00051688564315985 125000 -1064.25179341744 0 0 193 (C1) n - 1
REM
REM in /home/bkarasulu/work/CARBON/AIRSS/Generating-Clusters/AIREBO/with-SteepDescent/Only-C1/SD-CG-opt/Try1-1.4A-POS3A/HFTN-CG
REM
REM
REM
REM
REM
REM ./C.cell (11c1c37f851c82e70ff6c80c92926a4b)
REM
REM compiler GCC version 9.2.1 20190827 (Red Hat 9.2.1-1)
REM options -cpp -mtune=generic -march=x86-64 -g -O0 -fpre-include=/usr/include/finclude/math-vector-fortran.h
REM seed 1145864904 1571834387 899652237 2101525248 -1701622255 -2096599294 1280447177 -1194928022 -1194785651 -1201398279 -2047203064 393693712 1734152358 728690272 -1921914919 -724860346 1971137581 -691041158 633589900 765319560 -926635699 148430474 518451666 -1443637933 140513598 1190016237 597717738 190477737 -2114238276 -699037822 -815941100 -776819843 1471235764
REM
CELL 1.54180   50.00000   50.00000   50.00000   90.00000   90.00000   90.00000
LATT -1
SFAC C  
C      1  0.5276500000000  0.5775340000000  0.4762510000000 1.0
C      1  0.4347800000000  0.5604490000000  0.4822350000000 1.0
C      1  0.4361370000000  0.4484990000000  0.4825930000000 1.0
C      1  0.5336400000000  0.5578790000000  0.4192370000000 1.0
C      1  0.4631230000000  0.4235110000000  0.5267930000000 1.0
C      1  0.4774420000000  0.4386260000000  0.4068120000000 1.0
C      1  0.5766660000000  0.4827370000000  0.5711640000000 1.0
C      1  0.5832110000000  0.5472080000000  0.5685110000000 1.0
C      1  0.4765830000000  0.5573560000000  0.4259660000000 1.0
C      1  0.5671720000000  0.5508150000000  0.5131830000000 1.0
C      1  0.5553960000000  0.5259270000000  0.5332880000000 1.0
C      1  0.5984200000000  0.5308450000000  0.4452160000000 1.0
C      1  0.4198440000000  0.5693030000000  0.4546190000000 1.0
C      1  0.4449470000000  0.5791980000000  0.4366330000000 1.0
C      1  0.4929230000000  0.4093910000000  0.4770790000000 1.0
C      1  0.5369780000000  0.5791720000000  0.4435720000000 1.0
C      1  0.5553720000000  0.5395390000000  0.4175270000000 1.0
C      1  0.5021730000000  0.5972160000000  0.4859700000000 1.0
C      1  0.4898120000000  0.4693330000000  0.5626540000000 1.0
C      1  0.5991340000000  0.5035720000000  0.5564200000000 1.0
C      1  0.5734360000000  0.5033000000000  0.4598430000000 1.0
C      1  0.4871030000000  0.5684530000000  0.4960610000000 1.0
C      1  0.5795470000000  0.5470790000000  0.4325340000000 1.0
C      1  0.4702130000000  0.5806420000000  0.5425470000000 1.0
C      1  0.4700870000000  0.4389490000000  0.5973260000000 1.0
C      1  0.5885060000000  0.4853420000000  0.5049140000000 1.0
C      1  0.5396690000000  0.5291500000000  0.4854400000000 1.0
C      1  0.5447130000000  0.4703040000000  0.5261330000000 1.0
C      1  0.5039800000000  0.5438870000000  0.4166150000000 1.0
C      1  0.5070460000000  0.5582910000000  0.4594230000000 1.0
C      1  0.4344530000000  0.4572430000000  0.5340220000000 1.0
C      1  0.4697650000000  0.5336970000000  0.4761810000000 1.0
C      1  0.5488940000000  0.5262620000000  0.4545990000000 1.0
C      1  0.4668140000000  0.5966740000000  0.4496700000000 1.0
C      1  0.4885540000000  0.4814550000000  0.4639810000000 1.0
C      1  0.4595450000000  0.4329630000000  0.4960130000000 1.0
C      1  0.4477690000000  0.5565840000000  0.4113940000000 1.0
C      1  0.5778160000000  0.5594830000000  0.4820400000000 1.0
C      1  0.5226640000000  0.5082830000000  0.5942800000000 1.0
C      1  0.4431140000000  0.5166270000000  0.4663530000000 1.0
C      1  0.5000740000000  0.5193830000000  0.4801040000000 1.0
C      1  0.5942870000000  0.5852770000000  0.4830900000000 1.0
C      1  0.4469310000000  0.5270440000000  0.5681050000000 1.0
C      1  0.4448290000000  0.4869050000000  0.4763860000000 1.0
C      1  0.3992050000000  0.5326270000000  0.5342220000000 1.0
C      1  0.5132770000000  0.4348840000000  0.4875220000000 1.0
C      1  0.5974130000000  0.5392340000000  0.5235830000000 1.0
C      1  0.4604950000000  0.4573650000000  0.5706270000000 1.0
C      1  0.4303050000000  0.5079120000000  0.4247380000000 1.0
C      1  0.5667550000000  0.4326070000000  0.5286890000000 1.0
C      1  0.4342240000000  0.4008370000000  0.4683140000000 1.0
C      1  0.4987580000000  0.4567360000000  0.5929410000000 1.0
C      1  0.5920890000000  0.4796260000000  0.5345910000000 1.0
C      1  0.5498470000000  0.5969400000000  0.5171480000000 1.0
C      1  0.4927940000000  0.5385770000000  0.5219950000000 1.0
C      1  0.5127420000000  0.5461180000000  0.4969030000000 1.0
C      1  0.5642690000000  0.4639480000000  0.4985320000000 1.0
C      1  0.5303200000000  0.4406790000000  0.4195890000000 1.0
C      1  0.4416580000000  0.5379390000000  0.5301470000000 1.0
C      1  0.5076330000000  0.4777860000000  0.3946030000000 1.0
C      1  0.3957560000000  0.4657190000000  0.5052880000000 1.0
C      1  0.4767340000000  0.5320880000000  0.6061090000000 1.0
C      1  0.4412340000000  0.5038290000000  0.5316180000000 1.0
C      1  0.5057000000000  0.5320800000000  0.5673340000000 1.0
C      1  0.4244160000000  0.5380520000000  0.4193580000000 1.0
C      1  0.4275250000000  0.5912990000000  0.5168970000000 1.0
C      1  0.4202470000000  0.5521700000000  0.5524330000000 1.0
C      1  0.4116720000000  0.4886220000000  0.5242540000000 1.0
C      1  0.4347600000000  0.4742140000000  0.5045490000000 1.0
C      1  0.4031430000000  0.4896290000000  0.4329160000000 1.0
C      1  0.5584410000000  0.4744490000000  0.5981150000000 1.0
C      1  0.5341120000000  0.4636070000000  0.4035830000000 1.0
C      1  0.4718210000000  0.4720650000000  0.6069560000000 1.0
C      1  0.5354860000000  0.5382580000000  0.5557980000000 1.0
C      1  0.3845620000000  0.4844090000000  0.4513790000000 1.0
C      1  0.4597950000000  0.3719440000000  0.5454660000000 1.0
C      1  0.5153070000000  0.4110900000000  0.5117310000000 1.0
C      1  0.5631580000000  0.4940750000000  0.5419890000000 1.0
C      1  0.4909710000000  0.4490350000000  0.4541450000000 1.0
C      1  0.5281030000000  0.4997140000000  0.5617690000000 1.0
C      1  0.5595800000000  0.4304220000000  0.4953640000000 1.0
C      1  0.6036220000000  0.5066230000000  0.4338920000000 1.0
C      1  0.4304790000000  0.4276220000000  0.4563500000000 1.0
C      1  0.4308900000000  0.4534240000000  0.4339570000000 1.0
C      1  0.6150200000000  0.4562370000000  0.5117750000000 1.0
C      1  0.3915320000000  0.4702820000000  0.4775580000000 1.0
C      1  0.5168760000000  0.6040090000000  0.4404070000000 1.0
C      1  0.5607620000000  0.5344170000000  0.5775980000000 1.0
C      1  0.5411880000000  0.4371960000000  0.5479180000000 1.0
C      1  0.4484390000000  0.6036990000000  0.4986390000000 1.0
C      1  0.4193240000000  0.5356680000000  0.4512430000000 1.0
C      1  0.5519760000000  0.4726320000000  0.4465800000000 1.0
C      1  0.5695280000000  0.4443340000000  0.4482010000000 1.0
C      1  0.5245470000000  0.3765280000000  0.5424750000000 1.0
C      1  0.5544410000000  0.4824440000000  0.4081450000000 1.0
C      1  0.5299510000000  0.5652620000000  0.5395210000000 1.0
C      1  0.4276400000000  0.5638420000000  0.5131420000000 1.0
C      1  0.5223190000000  0.4936190000000  0.4802120000000 1.0
C      1  0.5267050000000  0.5615910000000  0.5882990000000 1.0
C      1  0.5006270000000  0.5549400000000  0.5455120000000 1.0
C      1  0.4619950000000  0.4634650000000  0.4244260000000 1.0
C      1  0.4651320000000  0.4629310000000  0.5312960000000 1.0
C      1  0.4861300000000  0.5226950000000  0.4014390000000 1.0
C      1  0.4787140000000  0.4168140000000  0.4328580000000 1.0
C      1  0.4655100000000  0.5429870000000  0.5064330000000 1.0
C      1  0.5230540000000  0.4329500000000  0.5935940000000 1.0
C      1  0.4794000000000  0.4001350000000  0.4539950000000 1.0
C      1  0.4826380000000  0.4027800000000  0.5083410000000 1.0
C      1  0.3996570000000  0.5368590000000  0.5039700000000 1.0
C      1  0.5381400000000  0.5360700000000  0.5955470000000 1.0
C      1  0.6130430000000  0.5341490000000  0.5020150000000 1.0
C      1  0.4542490000000  0.4889430000000  0.5593920000000 1.0
C      1  0.4552730000000  0.3854320000000  0.4571430000000 1.0
C      1  0.5326160000000  0.3842790000000  0.5159610000000 1.0
C      1  0.4179160000000  0.4810780000000  0.5788690000000 1.0
C      1  0.3903460000000  0.5010570000000  0.5429060000000 1.0
C      1  0.5986760000000  0.4390000000000  0.5662540000000 1.0
C      1  0.4154950000000  0.4614730000000  0.4618310000000 1.0
C      1  0.4723260000000  0.4799670000000  0.4924070000000 1.0
C      1  0.4733090000000  0.5158980000000  0.5512330000000 1.0
C      1  0.5044530000000  0.6150600000000  0.5118530000000 1.0
C      1  0.4705900000000  0.4908470000000  0.5203360000000 1.0
C      1  0.5748010000000  0.4505650000000  0.5825990000000 1.0
C      1  0.4630770000000  0.5424430000000  0.3874190000000 1.0
C      1  0.5481470000000  0.4271290000000  0.4365900000000 1.0
C      1  0.5751700000000  0.5727980000000  0.5592910000000 1.0
C      1  0.5446700000000  0.5800050000000  0.5658600000000 1.0
C      1  0.5951650000000  0.5324360000000  0.4759430000000 1.0
C      1  0.5276140000000  0.4746940000000  0.5918950000000 1.0
C      1  0.4900480000000  0.4871380000000  0.3674530000000 1.0
C      1  0.5042220000000  0.3950110000000  0.5499970000000 1.0
C      1  0.5244040000000  0.4654570000000  0.4992970000000 1.0
C      1  0.4523120000000  0.5189760000000  0.5962230000000 1.0
C      1  0.4612290000000  0.5539040000000  0.5529350000000 1.0
C      1  0.4967890000000  0.4992820000000  0.5653940000000 1.0
C      1  0.4826150000000  0.4495820000000  0.4871130000000 1.0
C      1  0.4591080000000  0.5086820000000  0.4394150000000 1.0
C      1  0.4603020000000  0.5788250000000  0.4778690000000 1.0
C      1  0.5404130000000  0.4264000000000  0.4688680000000 1.0
C      1  0.5042340000000  0.4884760000000  0.4251010000000 1.0
C      1  0.4776360000000  0.4635810000000  0.3876930000000 1.0
C      1  0.4918530000000  0.5097910000000  0.4485240000000 1.0
C      1  0.5280850000000  0.4930050000000  0.4474100000000 1.0
C      1  0.3974260000000  0.5502410000000  0.4727930000000 1.0
C      1  0.4481350000000  0.4880180000000  0.5928420000000 1.0
C      1  0.5391600000000  0.6039130000000  0.5422730000000 1.0
C      1  0.5731200000000  0.4052670000000  0.5101850000000 1.0
C      1  0.5468040000000  0.4354430000000  0.5789590000000 1.0
C      1  0.5788410000000  0.4863350000000  0.4308730000000 1.0
C      1  0.5594190000000  0.3825030000000  0.5092780000000 1.0
C      1  0.5378270000000  0.5668300000000  0.5068860000000 1.0
C      1  0.4647890000000  0.5573390000000  0.5865910000000 1.0
C      1  0.4182920000000  0.5203080000000  0.5596550000000 1.0
C      1  0.4762410000000  0.5578900000000  0.4563350000000 1.0
C      1  0.4609900000000  0.4658800000000  0.4567490000000 1.0
C      1  0.4943280000000  0.6034960000000  0.4559630000000 1.0
C      1  0.5799450000000  0.5757710000000  0.5324310000000 1.0
C      1  0.5970370000000  0.4796600000000  0.4663420000000 1.0
C      1  0.4672710000000  0.5871760000000  0.5163140000000 1.0
C      1  0.4332600000000  0.5670150000000  0.5776740000000 1.0
C      1  0.5981210000000  0.5308360000000  0.5504830000000 1.0
C      1  0.5377320000000  0.4690060000000  0.5594380000000 1.0
C      1  0.6160810000000  0.4769390000000  0.4903940000000 1.0
C      1  0.4292150000000  0.4584010000000  0.5642260000000 1.0
C      1  0.4868480000000  0.4418370000000  0.5428620000000 1.0
C      1  0.4500670000000  0.4817590000000  0.3908750000000 1.0
C      1  0.5029380000000  0.4373660000000  0.4282210000000 1.0
C      1  0.5133470000000  0.4251660000000  0.5411820000000 1.0
C      1  0.4968580000000  0.5585830000000  0.5851660000000 1.0
C      1  0.4267310000000  0.5310990000000  0.4908680000000 1.0
C      1  0.4266790000000  0.4771650000000  0.4115980000000 1.0
C      1  0.4294670000000  0.4197440000000  0.5216310000000 1.0
C      1  0.4958740000000  0.5087130000000  0.5268240000000 1.0
C      1  0.5471370000000  0.5098690000000  0.4248420000000 1.0
C      1  0.5599650000000  0.5584040000000  0.4552050000000 1.0
C      1  0.5271710000000  0.5071380000000  0.5307330000000 1.0
C      1  0.5420710000000  0.4587050000000  0.4732070000000 1.0
C      1  0.5438500000000  0.5032180000000  0.5028690000000 1.0
C      1  0.3933170000000  0.4908510000000  0.5700320000000 1.0
C      1  0.4868500000000  0.4912910000000  0.6262700000000 1.0
C      1  0.4393610000000  0.4059500000000  0.4958440000000 1.0
C      1  0.5827080000000  0.4545740000000  0.4715240000000 1.0
C      1  0.4726690000000  0.4937740000000  0.4132670000000 1.0
C      1  0.5934500000000  0.4475100000000  0.5366120000000 1.0
C      1  0.4813660000000  0.5201100000000  0.3693390000000 1.0
C      1  0.4795430000000  0.3887010000000  0.5372950000000 1.0
C      1  0.4968800000000  0.5063390000000  0.3424910000000 1.0
C      1  0.4966780000000  0.5136570000000  0.6138520000000 1.0
C      1  0.4965320000000  0.5879260000000  0.5513120000000 1.0
C      1  0.5752250000000  0.5095890000000  0.4914190000000 1.0
C      1  0.5115390000000  0.6077600000000  0.5387120000000 1.0
C      1  0.5168860000000  0.5325320000000  0.4449850000000 1.0
C      1  0.4120170000000  0.4430120000000  0.5138910000000 1.0
END
