TITL C-2848504-8560-486 -0.000872795486073132 125000 -771.597109647762 0 0 139 (C1) n - 1
REM
REM in /home/bkarasulu/work/CARBON/AIRSS/Generating-Clusters/AIREBO/with-SteepDescent/Only-C1/SD-CG-opt/Try1-1.4A-POS3A/HFTN-CG
REM
REM
REM
REM
REM
REM ./C.cell (11c1c37f851c82e70ff6c80c92926a4b)
REM
REM compiler GCC version 9.2.1 20190827 (Red Hat 9.2.1-1)
REM options -cpp -mtune=generic -march=x86-64 -g -O0 -fpre-include=/usr/include/finclude/math-vector-fortran.h
REM seed -533400830 1546121167 120775317 -702879532 360665097 -938351468 -670416810 524225585 146420154 2047275484 1506993609 441554899 1956636115 -565398327 -315949277 886482311 2099129705 576128576 1940841235 -1318061073 -1538655387 -1706892975 1802760497 898488915 -1492450313 210478427 -864322334 1770622757 -1808399005 1196692099 -782365623 -81801969 1834794994
REM
CELL 1.54180   50.00000   50.00000   50.00000   90.00000   90.00000   90.00000
LATT -1
SFAC C  
C      1  0.4743360000000  0.4286390000000  0.5168640000000 1.0
C      1  0.5099220000000  0.5895820000000  0.5445080000000 1.0
C      1  0.4868380000000  0.5171810000000  0.5091250000000 1.0
C      1  0.4506640000000  0.4890660000000  0.4823040000000 1.0
C      1  0.5229710000000  0.4710980000000  0.4219590000000 1.0
C      1  0.4375780000000  0.4984950000000  0.4562500000000 1.0
C      1  0.5098490000000  0.5573770000000  0.4786230000000 1.0
C      1  0.5579440000000  0.4829120000000  0.4912010000000 1.0
C      1  0.5514450000000  0.5725960000000  0.5083980000000 1.0
C      1  0.5108570000000  0.4936480000000  0.4447650000000 1.0
C      1  0.4619480000000  0.5867580000000  0.5380390000000 1.0
C      1  0.5237430000000  0.5020900000000  0.4144420000000 1.0
C      1  0.4036630000000  0.5043680000000  0.5252240000000 1.0
C      1  0.5782810000000  0.5021350000000  0.5680510000000 1.0
C      1  0.4426350000000  0.4361830000000  0.4909070000000 1.0
C      1  0.5220460000000  0.5145380000000  0.5608650000000 1.0
C      1  0.5111000000000  0.5256360000000  0.4884150000000 1.0
C      1  0.5805210000000  0.5582040000000  0.5134540000000 1.0
C      1  0.5365230000000  0.4364940000000  0.5822400000000 1.0
C      1  0.5458490000000  0.4720510000000  0.4546580000000 1.0
C      1  0.4676630000000  0.5417030000000  0.5133670000000 1.0
C      1  0.4203160000000  0.5499620000000  0.5282180000000 1.0
C      1  0.5165550000000  0.4568000000000  0.4587430000000 1.0
C      1  0.5149080000000  0.4327070000000  0.4807390000000 1.0
C      1  0.4645470000000  0.4560190000000  0.4264260000000 1.0
C      1  0.5875490000000  0.5435110000000  0.4872720000000 1.0
C      1  0.4958630000000  0.5713970000000  0.5663380000000 1.0
C      1  0.4117740000000  0.4756140000000  0.5525540000000 1.0
C      1  0.5611830000000  0.4644100000000  0.5385860000000 1.0
C      1  0.5275830000000  0.5156050000000  0.4603990000000 1.0
C      1  0.5545690000000  0.4829800000000  0.5631690000000 1.0
C      1  0.5324180000000  0.4920490000000  0.5389100000000 1.0
C      1  0.5289620000000  0.4902410000000  0.5050720000000 1.0
C      1  0.4406730000000  0.5589040000000  0.4827270000000 1.0
C      1  0.4921340000000  0.5644240000000  0.5068000000000 1.0
C      1  0.5385400000000  0.5362460000000  0.6288570000000 1.0
C      1  0.4569750000000  0.5201070000000  0.4442500000000 1.0
C      1  0.4572630000000  0.4388950000000  0.6223960000000 1.0
C      1  0.5129660000000  0.4503040000000  0.5098160000000 1.0
C      1  0.4806530000000  0.4783760000000  0.4413880000000 1.0
C      1  0.5438450000000  0.5457380000000  0.4308510000000 1.0
C      1  0.4845830000000  0.5109740000000  0.4318770000000 1.0
C      1  0.4947410000000  0.4010480000000  0.5145550000000 1.0
C      1  0.5850610000000  0.4446830000000  0.5036160000000 1.0
C      1  0.4693010000000  0.5425940000000  0.4127290000000 1.0
C      1  0.5470840000000  0.5163170000000  0.4168500000000 1.0
C      1  0.4826530000000  0.4272950000000  0.4869410000000 1.0
C      1  0.5062510000000  0.4368150000000  0.4332130000000 1.0
C      1  0.4435560000000  0.4469450000000  0.4417990000000 1.0
C      1  0.4109860000000  0.4571410000000  0.4726820000000 1.0
C      1  0.4688650000000  0.4422570000000  0.5678920000000 1.0
C      1  0.4859420000000  0.5625130000000  0.4577890000000 1.0
C      1  0.4706290000000  0.4060560000000  0.4558860000000 1.0
C      1  0.5336700000000  0.4226880000000  0.4468920000000 1.0
C      1  0.4876700000000  0.4435040000000  0.4155710000000 1.0
C      1  0.5384260000000  0.5539730000000  0.4604700000000 1.0
C      1  0.4454650000000  0.4912500000000  0.5315780000000 1.0
C      1  0.5686420000000  0.5004300000000  0.4243220000000 1.0
C      1  0.4455960000000  0.5673200000000  0.5169740000000 1.0
C      1  0.4338650000000  0.5077770000000  0.3947590000000 1.0
C      1  0.4225790000000  0.5050350000000  0.5513400000000 1.0
C      1  0.5080260000000  0.4731490000000  0.5345450000000 1.0
C      1  0.4819800000000  0.4954540000000  0.4866610000000 1.0
C      1  0.4625390000000  0.4403630000000  0.5974770000000 1.0
C      1  0.5045570000000  0.4079190000000  0.4598770000000 1.0
C      1  0.5264130000000  0.3962810000000  0.5165610000000 1.0
C      1  0.5435800000000  0.4464520000000  0.4246210000000 1.0
C      1  0.5637970000000  0.5148270000000  0.5263250000000 1.0
C      1  0.4971350000000  0.5522320000000  0.5382530000000 1.0
C      1  0.4796380000000  0.4593470000000  0.5106380000000 1.0
C      1  0.5095120000000  0.4843150000000  0.4774570000000 1.0
C      1  0.5095400000000  0.5798440000000  0.4165840000000 1.0
C      1  0.5650230000000  0.4286020000000  0.5216060000000 1.0
C      1  0.4004740000000  0.4837090000000  0.4996150000000 1.0
C      1  0.4573690000000  0.4660050000000  0.5509950000000 1.0
C      1  0.5860530000000  0.5129700000000  0.4484740000000 1.0
C      1  0.4192460000000  0.4559900000000  0.5056490000000 1.0
C      1  0.4769830000000  0.3983050000000  0.5427920000000 1.0
C      1  0.4032120000000  0.5153260000000  0.4872850000000 1.0
C      1  0.5361250000000  0.4431960000000  0.5326380000000 1.0
C      1  0.4491710000000  0.4253450000000  0.4601590000000 1.0
C      1  0.4228030000000  0.5485800000000  0.4586740000000 1.0
C      1  0.5703380000000  0.4561910000000  0.4816900000000 1.0
C      1  0.4817680000000  0.3933610000000  0.4849830000000 1.0
C      1  0.4910460000000  0.5977850000000  0.5003030000000 1.0
C      1  0.5650520000000  0.5655160000000  0.4781050000000 1.0
C      1  0.5963790000000  0.4762160000000  0.5042390000000 1.0
C      1  0.4631030000000  0.5323940000000  0.5443950000000 1.0
C      1  0.5210470000000  0.4381560000000  0.5591600000000 1.0
C      1  0.4977200000000  0.5341800000000  0.4136180000000 1.0
C      1  0.4320170000000  0.5654990000000  0.4376760000000 1.0
C      1  0.5307140000000  0.5829380000000  0.4868460000000 1.0
C      1  0.5488900000000  0.4077920000000  0.5049260000000 1.0
C      1  0.5501470000000  0.5304870000000  0.4814520000000 1.0
C      1  0.6081180000000  0.4978520000000  0.4903930000000 1.0
C      1  0.4513610000000  0.5525580000000  0.5685290000000 1.0
C      1  0.5973020000000  0.5202760000000  0.4763790000000 1.0
C      1  0.4624680000000  0.5658460000000  0.4302100000000 1.0
C      1  0.4159620000000  0.5212210000000  0.4633400000000 1.0
C      1  0.4309900000000  0.5338770000000  0.5523560000000 1.0
C      1  0.5531130000000  0.4631960000000  0.5872190000000 1.0
C      1  0.4618520000000  0.4610380000000  0.4856180000000 1.0
C      1  0.5536550000000  0.5550960000000  0.5553470000000 1.0
C      1  0.5621390000000  0.4731320000000  0.4290600000000 1.0
C      1  0.4415100000000  0.4284890000000  0.5241140000000 1.0
C      1  0.4966420000000  0.4567290000000  0.5614230000000 1.0
C      1  0.4790790000000  0.4892500000000  0.5268150000000 1.0
C      1  0.4276850000000  0.4560230000000  0.5373820000000 1.0
C      1  0.4320130000000  0.5894170000000  0.4949800000000 1.0
C      1  0.5756160000000  0.4368310000000  0.5516040000000 1.0
C      1  0.4042070000000  0.5337910000000  0.5122040000000 1.0
C      1  0.4210820000000  0.6118640000000  0.4907050000000 1.0
C      1  0.5681680000000  0.4354000000000  0.5785890000000 1.0
C      1  0.5311650000000  0.5432210000000  0.6046710000000 1.0
C      1  0.5433250000000  0.4177990000000  0.4791620000000 1.0
C      1  0.4831630000000  0.4530520000000  0.4639460000000 1.0
C      1  0.4888710000000  0.5841720000000  0.4339670000000 1.0
C      1  0.4921250000000  0.5221180000000  0.5531500000000 1.0
C      1  0.4488030000000  0.5218510000000  0.4120110000000 1.0
C      1  0.4619470000000  0.5442600000000  0.4636470000000 1.0
C      1  0.4586500000000  0.4178470000000  0.5514900000000 1.0
C      1  0.5154670000000  0.6055340000000  0.4887280000000 1.0
C      1  0.4867940000000  0.5973450000000  0.5288810000000 1.0
C      1  0.5769830000000  0.5391100000000  0.4300270000000 1.0
C      1  0.5906920000000  0.5208170000000  0.5573550000000 1.0
C      1  0.5583980000000  0.5019470000000  0.4649110000000 1.0
C      1  0.4321830000000  0.4937870000000  0.5044940000000 1.0
C      1  0.5265780000000  0.5478020000000  0.5273020000000 1.0
C      1  0.4266720000000  0.4669690000000  0.4526080000000 1.0
C      1  0.5368670000000  0.5376620000000  0.5729150000000 1.0
C      1  0.5181710000000  0.5529680000000  0.4149510000000 1.0
C      1  0.4732770000000  0.4946500000000  0.5600810000000 1.0
C      1  0.5708550000000  0.4860070000000  0.5202870000000 1.0
C      1  0.5036370000000  0.4885540000000  0.5711500000000 1.0
C      1  0.5363930000000  0.5228980000000  0.5109790000000 1.0
C      1  0.5139830000000  0.5622400000000  0.5878490000000 1.0
C      1  0.4654420000000  0.5762540000000  0.5643200000000 1.0
C      1  0.5757150000000  0.5412100000000  0.5387220000000 1.0
C      1  0.5382690000000  0.5776600000000  0.5369400000000 1.0
END
