TITL C-2848494-1720-400 0.000531826237492637 125000 -386.577908808717 0 0 69 (C1) n - 1
REM
REM in /home/bkarasulu/work/CARBON/AIRSS/Generating-Clusters/AIREBO/with-SteepDescent/Only-C1/SD-CG-opt/Try1-1.4A-POS3A/HFTN-CG
REM
REM
REM
REM
REM
REM ./C.cell (11c1c37f851c82e70ff6c80c92926a4b)
REM
REM compiler GCC version 9.2.1 20190827 (Red Hat 9.2.1-1)
REM options -cpp -mtune=generic -march=x86-64 -g -O0 -fpre-include=/usr/include/finclude/math-vector-fortran.h
REM seed 1861128950 -16210211 -1179507408 -268915854 1702020056 20917569 -40199727 -574487906 -102174203 -1158016189 1602460874 1361114159 -680411154 960777044 -313355933 -1854699466 83740441 969272531 -666430826 -1170637226 -2140252546 -1728282895 757986904 -1584245613 -1148411722 1012664665 -913957688 -266779041 1968761213 178599438 -372343408 706791821 1145210707
REM
CELL 1.54180   50.00000   50.00000   50.00000   90.00000   90.00000   90.00000
LATT -1
SFAC C  
C      1  0.4654590000000  0.4760240000000  0.5943020000000 1.0
C      1  0.5783150000000  0.5404230000000  0.5039750000000 1.0
C      1  0.4788590000000  0.4582920000000  0.4885360000000 1.0
C      1  0.4996540000000  0.5579360000000  0.5048630000000 1.0
C      1  0.4998530000000  0.4935610000000  0.5694420000000 1.0
C      1  0.5372690000000  0.5118790000000  0.4310820000000 1.0
C      1  0.4764680000000  0.4996660000000  0.4673680000000 1.0
C      1  0.5002790000000  0.4615770000000  0.5615580000000 1.0
C      1  0.5240410000000  0.4819420000000  0.4283010000000 1.0
C      1  0.5506790000000  0.5020330000000  0.4609990000000 1.0
C      1  0.4739740000000  0.5457310000000  0.5632120000000 1.0
C      1  0.5679640000000  0.4586890000000  0.4684190000000 1.0
C      1  0.4667750000000  0.4713850000000  0.4246400000000 1.0
C      1  0.4546280000000  0.4742900000000  0.4737080000000 1.0
C      1  0.5179670000000  0.4342740000000  0.4695060000000 1.0
C      1  0.5308190000000  0.5590400000000  0.5154320000000 1.0
C      1  0.5392650000000  0.5012050000000  0.5113840000000 1.0
C      1  0.5009610000000  0.5521940000000  0.5682340000000 1.0
C      1  0.5750870000000  0.4853160000000  0.4678760000000 1.0
C      1  0.3860970000000  0.4916430000000  0.4974860000000 1.0
C      1  0.5267900000000  0.4577030000000  0.5086470000000 1.0
C      1  0.4859000000000  0.4936310000000  0.4291470000000 1.0
C      1  0.5282600000000  0.4873710000000  0.4820110000000 1.0
C      1  0.4736360000000  0.4288790000000  0.4995550000000 1.0
C      1  0.4646040000000  0.5251810000000  0.5803510000000 1.0
C      1  0.5886420000000  0.4955760000000  0.4902280000000 1.0
C      1  0.4396150000000  0.4928150000000  0.4956980000000 1.0
C      1  0.4434770000000  0.4279140000000  0.4916590000000 1.0
C      1  0.4847120000000  0.4522380000000  0.5861150000000 1.0
C      1  0.4970890000000  0.4242480000000  0.4781180000000 1.0
C      1  0.5018480000000  0.4368360000000  0.5420950000000 1.0
C      1  0.5247190000000  0.5703910000000  0.4620300000000 1.0
C      1  0.4704420000000  0.5666050000000  0.5150900000000 1.0
C      1  0.5077560000000  0.5187070000000  0.4283100000000 1.0
C      1  0.5175800000000  0.4731560000000  0.5353650000000 1.0
C      1  0.4332800000000  0.4496180000000  0.4832860000000 1.0
C      1  0.4632170000000  0.5933010000000  0.5186190000000 1.0
C      1  0.5485870000000  0.4198370000000  0.5359150000000 1.0
C      1  0.4563430000000  0.5050250000000  0.5131050000000 1.0
C      1  0.4611100000000  0.4465690000000  0.6076420000000 1.0
C      1  0.4749740000000  0.5252130000000  0.4220590000000 1.0
C      1  0.5086840000000  0.5035020000000  0.5260760000000 1.0
C      1  0.4809780000000  0.4256490000000  0.5291840000000 1.0
C      1  0.4623380000000  0.5479070000000  0.5378730000000 1.0
C      1  0.4854450000000  0.5061630000000  0.5060070000000 1.0
C      1  0.5228990000000  0.5080310000000  0.5632560000000 1.0
C      1  0.4759970000000  0.4997920000000  0.5840490000000 1.0
C      1  0.5268130000000  0.4347620000000  0.5294450000000 1.0
C      1  0.5068720000000  0.4898820000000  0.4556870000000 1.0
C      1  0.5512610000000  0.5329170000000  0.5139930000000 1.0
C      1  0.4497030000000  0.4666530000000  0.4423380000000 1.0
C      1  0.4606980000000  0.5457980000000  0.4321000000000 1.0
C      1  0.5524420000000  0.5336260000000  0.4492240000000 1.0
C      1  0.5488190000000  0.5595650000000  0.4519460000000 1.0
C      1  0.5732610000000  0.5019090000000  0.5119890000000 1.0
C      1  0.4934920000000  0.5273350000000  0.4572930000000 1.0
C      1  0.5411110000000  0.5464110000000  0.5431120000000 1.0
C      1  0.4476650000000  0.5255880000000  0.5296450000000 1.0
C      1  0.5269710000000  0.4614430000000  0.4132150000000 1.0
C      1  0.5002360000000  0.4766120000000  0.4980030000000 1.0
C      1  0.5224900000000  0.5360020000000  0.5603610000000 1.0
C      1  0.4898790000000  0.5304190000000  0.4897800000000 1.0
C      1  0.4122010000000  0.4932610000000  0.4958070000000 1.0
C      1  0.5419920000000  0.4936170000000  0.5451890000000 1.0
C      1  0.5391720000000  0.4552910000000  0.4791080000000 1.0
C      1  0.5233390000000  0.5754970000000  0.4889630000000 1.0
C      1  0.4664800000000  0.5542760000000  0.4835050000000 1.0
C      1  0.4706970000000  0.5600120000000  0.4551900000000 1.0
C      1  0.5010720000000  0.5601620000000  0.4522930000000 1.0
END
