TITL C-2848495-5024-76 -0.00246930873921108 125000 -1028.69262691732 0 0 199 (C1) n - 1
REM
REM in /home/bkarasulu/work/CARBON/AIRSS/Generating-Clusters/AIREBO/with-SteepDescent/Only-C1/SD-CG-opt/Try1-1.4A-POS3A/HFTN-CG
REM
REM
REM
REM
REM
REM ./C.cell (11c1c37f851c82e70ff6c80c92926a4b)
REM
REM compiler GCC version 9.2.1 20190827 (Red Hat 9.2.1-1)
REM options -cpp -mtune=generic -march=x86-64 -g -O0 -fpre-include=/usr/include/finclude/math-vector-fortran.h
REM seed 321378929 1150809150 -1955835064 606430681 1542006380 192437467 -871146264 1229335416 1091578027 -829671282 -1887536618 144356548 765266572 1739429571 -1515225330 -133559445 -1212638005 -767832430 -1436020424 1298901031 -368557465 1750746556 -1971529383 814092259 320849856 -1865865530 756247587 1185803213 -409315085 1828500122 -1906167261 -1882063436 971659337
REM
CELL 1.54180   50.00000   50.00000   50.00000   90.00000   90.00000   90.00000
LATT -1
SFAC C  
C      1  0.4452830000000  0.5779620000000  0.4620880000000 1.0
C      1  0.5239980000000  0.5352580000000  0.6155980000000 1.0
C      1  0.4594350000000  0.4960550000000  0.5153810000000 1.0
C      1  0.3955620000000  0.4848340000000  0.5119500000000 1.0
C      1  0.4842520000000  0.5049000000000  0.4967380000000 1.0
C      1  0.5438060000000  0.5712190000000  0.5730370000000 1.0
C      1  0.5142410000000  0.6032660000000  0.5147110000000 1.0
C      1  0.4206060000000  0.5005030000000  0.4115550000000 1.0
C      1  0.4306470000000  0.4866380000000  0.5308300000000 1.0
C      1  0.4044190000000  0.5107800000000  0.5824790000000 1.0
C      1  0.3857790000000  0.4640560000000  0.5306580000000 1.0
C      1  0.5327920000000  0.5754390000000  0.5198960000000 1.0
C      1  0.4114670000000  0.4707990000000  0.5488950000000 1.0
C      1  0.5461750000000  0.4188800000000  0.5636290000000 1.0
C      1  0.4061680000000  0.5133240000000  0.4763010000000 1.0
C      1  0.4734360000000  0.4752460000000  0.4627870000000 1.0
C      1  0.4440620000000  0.5124250000000  0.4042480000000 1.0
C      1  0.6410010000000  0.5105710000000  0.4462610000000 1.0
C      1  0.5011710000000  0.4759430000000  0.5010970000000 1.0
C      1  0.5750630000000  0.5602580000000  0.4330970000000 1.0
C      1  0.5459050000000  0.5040780000000  0.4107710000000 1.0
C      1  0.5879270000000  0.5614030000000  0.4705350000000 1.0
C      1  0.5011100000000  0.4322320000000  0.5871840000000 1.0
C      1  0.4445880000000  0.5798750000000  0.5548840000000 1.0
C      1  0.5449050000000  0.4638050000000  0.5002920000000 1.0
C      1  0.4156730000000  0.5652850000000  0.5653320000000 1.0
C      1  0.5399810000000  0.4063540000000  0.5071970000000 1.0
C      1  0.4402100000000  0.4444230000000  0.4638520000000 1.0
C      1  0.4783300000000  0.3892570000000  0.5042850000000 1.0
C      1  0.4680760000000  0.5342300000000  0.5558540000000 1.0
C      1  0.5912880000000  0.5485890000000  0.5285870000000 1.0
C      1  0.5309160000000  0.4545120000000  0.5730630000000 1.0
C      1  0.5126010000000  0.3909330000000  0.5049740000000 1.0
C      1  0.4716500000000  0.4842670000000  0.4215690000000 1.0
C      1  0.4932860000000  0.4962880000000  0.4449190000000 1.0
C      1  0.5224610000000  0.4832220000000  0.5271020000000 1.0
C      1  0.4988050000000  0.5513920000000  0.4982710000000 1.0
C      1  0.4179960000000  0.4856740000000  0.4420450000000 1.0
C      1  0.5812340000000  0.5398680000000  0.5601350000000 1.0
C      1  0.5870740000000  0.4706830000000  0.5244770000000 1.0
C      1  0.5642720000000  0.3853080000000  0.5160350000000 1.0
C      1  0.5690360000000  0.4243100000000  0.5099520000000 1.0
C      1  0.4466620000000  0.4464920000000  0.4971830000000 1.0
C      1  0.6182290000000  0.4975460000000  0.4892250000000 1.0
C      1  0.5350060000000  0.5154300000000  0.5657870000000 1.0
C      1  0.5582350000000  0.5073300000000  0.4912540000000 1.0
C      1  0.4315590000000  0.5238030000000  0.4890760000000 1.0
C      1  0.5756300000000  0.5064080000000  0.4328530000000 1.0
C      1  0.5582220000000  0.4513560000000  0.4244310000000 1.0
C      1  0.5777540000000  0.4525610000000  0.5807700000000 1.0
C      1  0.4422170000000  0.5780760000000  0.4185720000000 1.0
C      1  0.5054290000000  0.5857490000000  0.4503510000000 1.0
C      1  0.5504710000000  0.5302490000000  0.4665840000000 1.0
C      1  0.4747090000000  0.4709320000000  0.5752850000000 1.0
C      1  0.4550390000000  0.6036030000000  0.4612250000000 1.0
C      1  0.3667090000000  0.5173230000000  0.4432950000000 1.0
C      1  0.4544380000000  0.5939280000000  0.5254470000000 1.0
C      1  0.4701540000000  0.5576580000000  0.4583780000000 1.0
C      1  0.3928210000000  0.4408320000000  0.4573330000000 1.0
C      1  0.4120750000000  0.4360740000000  0.4762280000000 1.0
C      1  0.4668010000000  0.5779230000000  0.5757550000000 1.0
C      1  0.5598920000000  0.4109930000000  0.4627080000000 1.0
C      1  0.4792980000000  0.5313000000000  0.4788770000000 1.0
C      1  0.4268360000000  0.5308990000000  0.5194150000000 1.0
C      1  0.4676540000000  0.4321360000000  0.5810680000000 1.0
C      1  0.5184730000000  0.4573300000000  0.4029760000000 1.0
C      1  0.5294700000000  0.5754990000000  0.4707690000000 1.0
C      1  0.4479240000000  0.3857410000000  0.5058680000000 1.0
C      1  0.5530650000000  0.4376960000000  0.5858360000000 1.0
C      1  0.5539080000000  0.5540110000000  0.5091560000000 1.0
C      1  0.4858000000000  0.4309080000000  0.4697350000000 1.0
C      1  0.4869520000000  0.3993320000000  0.5689490000000 1.0
C      1  0.5121320000000  0.5108400000000  0.3792240000000 1.0
C      1  0.5251180000000  0.5643450000000  0.4326780000000 1.0
C      1  0.4687870000000  0.5190040000000  0.4489500000000 1.0
C      1  0.4738230000000  0.5693030000000  0.4886230000000 1.0
C      1  0.5005540000000  0.5501110000000  0.4139610000000 1.0
C      1  0.4090250000000  0.5427030000000  0.4495260000000 1.0
C      1  0.5746530000000  0.4335380000000  0.4419650000000 1.0
C      1  0.5728310000000  0.5860390000000  0.4541430000000 1.0
C      1  0.5250220000000  0.4811420000000  0.4788380000000 1.0
C      1  0.5119410000000  0.4943010000000  0.5573220000000 1.0
C      1  0.5071600000000  0.5128920000000  0.5204970000000 1.0
C      1  0.5166650000000  0.6042810000000  0.4837780000000 1.0
C      1  0.5759520000000  0.5303920000000  0.5043030000000 1.0
C      1  0.4523720000000  0.5556540000000  0.5368800000000 1.0
C      1  0.4677100000000  0.4857090000000  0.5454600000000 1.0
C      1  0.4236550000000  0.4874540000000  0.4747340000000 1.0
C      1  0.6162970000000  0.4973940000000  0.5233780000000 1.0
C      1  0.4064170000000  0.5851370000000  0.5446900000000 1.0
C      1  0.5251230000000  0.5336120000000  0.4472310000000 1.0
C      1  0.5305410000000  0.4271450000000  0.4709480000000 1.0
C      1  0.5141120000000  0.4174890000000  0.5594310000000 1.0
C      1  0.5155080000000  0.4558110000000  0.4605260000000 1.0
C      1  0.4444690000000  0.5101670000000  0.5511170000000 1.0
C      1  0.4263480000000  0.4535470000000  0.4197790000000 1.0
C      1  0.4654970000000  0.5494250000000  0.5861700000000 1.0
C      1  0.5673000000000  0.4745120000000  0.5587230000000 1.0
C      1  0.5444660000000  0.5920710000000  0.4363900000000 1.0
C      1  0.4646070000000  0.5050380000000  0.3883310000000 1.0
C      1  0.4394550000000  0.4134270000000  0.4937160000000 1.0
C      1  0.5069020000000  0.4058810000000  0.4789910000000 1.0
C      1  0.5205110000000  0.4776950000000  0.4371710000000 1.0
C      1  0.3981120000000  0.5128830000000  0.4373740000000 1.0
C      1  0.4196920000000  0.4389520000000  0.5410590000000 1.0
C      1  0.4773210000000  0.5213210000000  0.5924570000000 1.0
C      1  0.5926190000000  0.4620070000000  0.4635950000000 1.0
C      1  0.5129250000000  0.5109910000000  0.4678280000000 1.0
C      1  0.4451780000000  0.4464360000000  0.5623120000000 1.0
C      1  0.5528310000000  0.4812490000000  0.4348530000000 1.0
C      1  0.4931010000000  0.5841410000000  0.4197950000000 1.0
C      1  0.5297490000000  0.4860390000000  0.6042380000000 1.0
C      1  0.5609870000000  0.4850520000000  0.5167910000000 1.0
C      1  0.4757090000000  0.4244260000000  0.5489380000000 1.0
C      1  0.4923050000000  0.4022050000000  0.5296110000000 1.0
C      1  0.4173170000000  0.5587140000000  0.5021710000000 1.0
C      1  0.5467610000000  0.6038640000000  0.4674740000000 1.0
C      1  0.4858360000000  0.4402150000000  0.4387210000000 1.0
C      1  0.4256390000000  0.4730020000000  0.5008360000000 1.0
C      1  0.4930760000000  0.5048330000000  0.4049290000000 1.0
C      1  0.5227360000000  0.4219080000000  0.4382330000000 1.0
C      1  0.3895710000000  0.5390370000000  0.5011230000000 1.0
C      1  0.3826990000000  0.5325710000000  0.4685460000000 1.0
C      1  0.4411360000000  0.4734010000000  0.5801690000000 1.0
C      1  0.5122010000000  0.4565200000000  0.6082500000000 1.0
C      1  0.5975490000000  0.4866990000000  0.4480960000000 1.0
C      1  0.5445340000000  0.5081890000000  0.5338850000000 1.0
C      1  0.4310890000000  0.5529980000000  0.4305090000000 1.0
C      1  0.4480940000000  0.5088370000000  0.4680230000000 1.0
C      1  0.5475230000000  0.5155950000000  0.6035980000000 1.0
C      1  0.4799650000000  0.4456120000000  0.6099300000000 1.0
C      1  0.5104120000000  0.5185910000000  0.5890570000000 1.0
C      1  0.5199660000000  0.5221280000000  0.4165800000000 1.0
C      1  0.4551030000000  0.4284050000000  0.4419740000000 1.0
C      1  0.5145600000000  0.4407340000000  0.5340860000000 1.0
C      1  0.4912040000000  0.3909590000000  0.4560150000000 1.0
C      1  0.5884660000000  0.4278410000000  0.4710400000000 1.0
C      1  0.4947580000000  0.4630280000000  0.4228370000000 1.0
C      1  0.4002460000000  0.4574110000000  0.4355350000000 1.0
C      1  0.4084390000000  0.5389460000000  0.5697980000000 1.0
C      1  0.5892660000000  0.5717290000000  0.5037420000000 1.0
C      1  0.4753420000000  0.4149970000000  0.4192450000000 1.0
C      1  0.3916260000000  0.5129500000000  0.5183510000000 1.0
C      1  0.5533480000000  0.5404040000000  0.5797860000000 1.0
C      1  0.5446320000000  0.6059330000000  0.5290980000000 1.0
C      1  0.4871510000000  0.6070040000000  0.4690130000000 1.0
C      1  0.5893600000000  0.3971140000000  0.5118070000000 1.0
C      1  0.5341560000000  0.4387280000000  0.4176590000000 1.0
C      1  0.5574230000000  0.4294030000000  0.5381410000000 1.0
C      1  0.5043680000000  0.5503750000000  0.5952370000000 1.0
C      1  0.6200650000000  0.4992800000000  0.4595670000000 1.0
C      1  0.4595140000000  0.5281700000000  0.5173030000000 1.0
C      1  0.6118940000000  0.5511070000000  0.4912850000000 1.0
C      1  0.4876260000000  0.5921630000000  0.5327350000000 1.0
C      1  0.5269760000000  0.5372980000000  0.5334560000000 1.0
C      1  0.6083580000000  0.5237630000000  0.5051710000000 1.0
C      1  0.5419230000000  0.4594560000000  0.5417050000000 1.0
C      1  0.5004090000000  0.4036320000000  0.4324660000000 1.0
C      1  0.4536840000000  0.5309310000000  0.4247270000000 1.0
C      1  0.5766110000000  0.5348090000000  0.4516130000000 1.0
C      1  0.4902100000000  0.5899950000000  0.5643100000000 1.0
C      1  0.4779060000000  0.4560240000000  0.4875820000000 1.0
C      1  0.5480780000000  0.5890310000000  0.4027160000000 1.0
C      1  0.4479490000000  0.4686530000000  0.4412640000000 1.0
C      1  0.5569910000000  0.4831160000000  0.4674160000000 1.0
C      1  0.5291840000000  0.4370240000000  0.5035120000000 1.0
C      1  0.5167820000000  0.3871220000000  0.5443500000000 1.0
C      1  0.4211570000000  0.5647690000000  0.4695280000000 1.0
C      1  0.6189740000000  0.4676170000000  0.5353500000000 1.0
C      1  0.4506300000000  0.4366990000000  0.5295290000000 1.0
C      1  0.5301010000000  0.5493980000000  0.4859530000000 1.0
C      1  0.5744570000000  0.5927040000000  0.5193210000000 1.0
C      1  0.5540150000000  0.5607460000000  0.4138250000000 1.0
C      1  0.5923740000000  0.4946170000000  0.5476230000000 1.0
C      1  0.4217310000000  0.5851870000000  0.5220550000000 1.0
C      1  0.5269880000000  0.5170660000000  0.4960120000000 1.0
C      1  0.4971490000000  0.5508080000000  0.5619370000000 1.0
C      1  0.4512800000000  0.5575850000000  0.5034710000000 1.0
C      1  0.5034990000000  0.5616990000000  0.5303460000000 1.0
C      1  0.5598930000000  0.5827220000000  0.5483800000000 1.0
C      1  0.4701430000000  0.5597690000000  0.4257260000000 1.0
C      1  0.5331300000000  0.4796790000000  0.3943920000000 1.0
C      1  0.5548030000000  0.4499820000000  0.4641430000000 1.0
C      1  0.4616730000000  0.4998790000000  0.5874820000000 1.0
C      1  0.3849580000000  0.4385380000000  0.5213600000000 1.0
C      1  0.6041830000000  0.4690650000000  0.4974530000000 1.0
C      1  0.4131750000000  0.4281660000000  0.5090380000000 1.0
C      1  0.5554070000000  0.5503120000000  0.5411860000000 1.0
C      1  0.4125060000000  0.4855630000000  0.5765130000000 1.0
C      1  0.5754600000000  0.4519480000000  0.4911900000000 1.0
C      1  0.4124410000000  0.5195070000000  0.5444370000000 1.0
C      1  0.4884280000000  0.5107990000000  0.5470950000000 1.0
C      1  0.5531080000000  0.4915940000000  0.5801630000000 1.0
C      1  0.5168570000000  0.5774390000000  0.5696110000000 1.0
C      1  0.5964370000000  0.5155950000000  0.5663350000000 1.0
C      1  0.4672460000000  0.4038870000000  0.4763960000000 1.0
C      1  0.4871740000000  0.4558430000000  0.5474600000000 1.0
C      1  0.4709030000000  0.5987900000000  0.4973680000000 1.0
C      1  0.5064080000000  0.4765580000000  0.5813900000000 1.0
END
