TITL C-2848495-5024-521 -0.00360046799939614 125000 -919.599050704422 0 0 167 (C1) n - 1
REM
REM in /home/bkarasulu/work/CARBON/AIRSS/Generating-Clusters/AIREBO/with-SteepDescent/Only-C1/SD-CG-opt/Try1-1.4A-POS3A/HFTN-CG
REM
REM
REM
REM
REM
REM ./C.cell (11c1c37f851c82e70ff6c80c92926a4b)
REM
REM compiler GCC version 9.2.1 20190827 (Red Hat 9.2.1-1)
REM options -cpp -mtune=generic -march=x86-64 -g -O0 -fpre-include=/usr/include/finclude/math-vector-fortran.h
REM seed 2069435750 720453253 -78845259 1721804070 -495260006 -732630374 -1554345245 -1421962327 1177754360 1552929144 -429597293 1564340778 -2028622174 1201876965 1086502268 -216046740 -529985282 1397724572 -136135363 -6996383 -309076861 -1535073452 779091813 799076898 1265441635 -1999201533 -1889910619 -1065136530 -48363758 -1007150584 -1221095441 -1188226156 635874639
REM
CELL 1.54180   50.00000   50.00000   50.00000   90.00000   90.00000   90.00000
LATT -1
SFAC C  
C      1  0.4401890000000  0.5114910000000  0.5544000000000 1.0
C      1  0.4087240000000  0.5179050000000  0.5511980000000 1.0
C      1  0.4622680000000  0.4958800000000  0.4507040000000 1.0
C      1  0.5286610000000  0.4459560000000  0.5372740000000 1.0
C      1  0.5576630000000  0.5852770000000  0.4664270000000 1.0
C      1  0.5113750000000  0.5456600000000  0.5246250000000 1.0
C      1  0.5261690000000  0.4448260000000  0.4160210000000 1.0
C      1  0.4799100000000  0.5864820000000  0.5891640000000 1.0
C      1  0.4296460000000  0.5224250000000  0.4138830000000 1.0
C      1  0.4900040000000  0.4669690000000  0.5141650000000 1.0
C      1  0.4791980000000  0.5535520000000  0.5309230000000 1.0
C      1  0.4843220000000  0.4705780000000  0.4810660000000 1.0
C      1  0.5517550000000  0.4892790000000  0.4561110000000 1.0
C      1  0.4075840000000  0.4446430000000  0.4592910000000 1.0
C      1  0.5680430000000  0.4972260000000  0.5463110000000 1.0
C      1  0.4428450000000  0.5763390000000  0.5546560000000 1.0
C      1  0.5490540000000  0.4546640000000  0.5000560000000 1.0
C      1  0.5587850000000  0.4803240000000  0.5201360000000 1.0
C      1  0.5564040000000  0.4050500000000  0.5184160000000 1.0
C      1  0.4986640000000  0.4754910000000  0.5613770000000 1.0
C      1  0.3972560000000  0.4831700000000  0.4962210000000 1.0
C      1  0.5116100000000  0.4972040000000  0.5302220000000 1.0
C      1  0.4265630000000  0.5512430000000  0.4316650000000 1.0
C      1  0.4005710000000  0.5352030000000  0.4742200000000 1.0
C      1  0.4242640000000  0.5036760000000  0.5173900000000 1.0
C      1  0.5288390000000  0.4234300000000  0.5152480000000 1.0
C      1  0.4781270000000  0.4478040000000  0.5376490000000 1.0
C      1  0.5303730000000  0.5567160000000  0.4724410000000 1.0
C      1  0.5880330000000  0.4808570000000  0.5609530000000 1.0
C      1  0.5096600000000  0.5716530000000  0.5937640000000 1.0
C      1  0.4592380000000  0.5179120000000  0.4257230000000 1.0
C      1  0.5035390000000  0.5262780000000  0.5710910000000 1.0
C      1  0.4059650000000  0.4746310000000  0.4695700000000 1.0
C      1  0.6047050000000  0.5255130000000  0.4771400000000 1.0
C      1  0.5643640000000  0.5287780000000  0.5433380000000 1.0
C      1  0.5419920000000  0.5779040000000  0.4406520000000 1.0
C      1  0.4472890000000  0.5516480000000  0.4079030000000 1.0
C      1  0.5071930000000  0.5954530000000  0.5697580000000 1.0
C      1  0.4060400000000  0.5380180000000  0.5319110000000 1.0
C      1  0.4895980000000  0.5731080000000  0.4260890000000 1.0
C      1  0.5482090000000  0.5198580000000  0.4666150000000 1.0
C      1  0.4870700000000  0.4765950000000  0.4017000000000 1.0
C      1  0.4920360000000  0.5982980000000  0.5128180000000 1.0
C      1  0.4657070000000  0.5775310000000  0.4745560000000 1.0
C      1  0.4553270000000  0.5379770000000  0.5411760000000 1.0
C      1  0.5339700000000  0.4162090000000  0.4605050000000 1.0
C      1  0.4810830000000  0.4200060000000  0.4683500000000 1.0
C      1  0.4342500000000  0.4387220000000  0.4516430000000 1.0
C      1  0.4924430000000  0.5122210000000  0.5968760000000 1.0
C      1  0.4946460000000  0.5642160000000  0.4864510000000 1.0
C      1  0.4289960000000  0.5501850000000  0.4630730000000 1.0
C      1  0.5003730000000  0.4944070000000  0.4628330000000 1.0
C      1  0.5627100000000  0.5520370000000  0.4630000000000 1.0
C      1  0.6021660000000  0.4799620000000  0.4891620000000 1.0
C      1  0.5233270000000  0.6089810000000  0.4909520000000 1.0
C      1  0.4755740000000  0.5594900000000  0.4051590000000 1.0
C      1  0.6064760000000  0.5542300000000  0.5369180000000 1.0
C      1  0.4575560000000  0.5357510000000  0.4515800000000 1.0
C      1  0.5394230000000  0.4043930000000  0.5483890000000 1.0
C      1  0.5210200000000  0.4236450000000  0.5695250000000 1.0
C      1  0.4629480000000  0.5189820000000  0.5987690000000 1.0
C      1  0.4821400000000  0.5132040000000  0.4982000000000 1.0
C      1  0.5370720000000  0.5665390000000  0.5168560000000 1.0
C      1  0.4865060000000  0.4743280000000  0.4414260000000 1.0
C      1  0.4792820000000  0.5278320000000  0.4053800000000 1.0
C      1  0.4339830000000  0.5223500000000  0.4913780000000 1.0
C      1  0.4063790000000  0.4681550000000  0.5181020000000 1.0
C      1  0.4789880000000  0.5443800000000  0.5013880000000 1.0
C      1  0.5782150000000  0.4552480000000  0.5663000000000 1.0
C      1  0.5149140000000  0.4128580000000  0.4132720000000 1.0
C      1  0.4352240000000  0.4012930000000  0.5221160000000 1.0
C      1  0.4896760000000  0.4213720000000  0.5214610000000 1.0
C      1  0.6014530000000  0.5637870000000  0.5115950000000 1.0
C      1  0.3880650000000  0.5463230000000  0.5099120000000 1.0
C      1  0.5807660000000  0.5237300000000  0.4575860000000 1.0
C      1  0.6078720000000  0.4534790000000  0.4880710000000 1.0
C      1  0.5496830000000  0.5503980000000  0.4311740000000 1.0
C      1  0.4261360000000  0.4703360000000  0.5656370000000 1.0
C      1  0.4840770000000  0.5015490000000  0.3592610000000 1.0
C      1  0.5955330000000  0.5307650000000  0.5478300000000 1.0
C      1  0.5463620000000  0.5881890000000  0.4919650000000 1.0
C      1  0.4765850000000  0.5979000000000  0.5577880000000 1.0
C      1  0.4827490000000  0.4874070000000  0.5380500000000 1.0
C      1  0.3959470000000  0.4936870000000  0.4458120000000 1.0
C      1  0.5232190000000  0.4483790000000  0.4631340000000 1.0
C      1  0.4630480000000  0.5629400000000  0.5713270000000 1.0
C      1  0.5173910000000  0.5231980000000  0.5443520000000 1.0
C      1  0.4397790000000  0.4681190000000  0.5914690000000 1.0
C      1  0.4521730000000  0.4028600000000  0.5453650000000 1.0
C      1  0.5442740000000  0.5383560000000  0.5906100000000 1.0
C      1  0.4717920000000  0.4654810000000  0.6009350000000 1.0
C      1  0.4675110000000  0.4370110000000  0.5010800000000 1.0
C      1  0.5362270000000  0.5596130000000  0.6005800000000 1.0
C      1  0.5267900000000  0.6070860000000  0.5512290000000 1.0
C      1  0.5554390000000  0.4500200000000  0.4675480000000 1.0
C      1  0.4523100000000  0.4877660000000  0.5409770000000 1.0
C      1  0.4387560000000  0.4759310000000  0.4650920000000 1.0
C      1  0.4266170000000  0.4958870000000  0.4326690000000 1.0
C      1  0.5063700000000  0.4009610000000  0.5409840000000 1.0
C      1  0.5046790000000  0.4274770000000  0.4916670000000 1.0
C      1  0.4599120000000  0.5169420000000  0.4764940000000 1.0
C      1  0.4559610000000  0.4943590000000  0.5092670000000 1.0
C      1  0.5163270000000  0.4579840000000  0.5011820000000 1.0
C      1  0.3962510000000  0.5144480000000  0.5012260000000 1.0
C      1  0.4744240000000  0.5847460000000  0.5318590000000 1.0
C      1  0.5268080000000  0.4645900000000  0.5869530000000 1.0
C      1  0.4813460000000  0.6020470000000  0.4879310000000 1.0
C      1  0.5144840000000  0.3947870000000  0.4420720000000 1.0
C      1  0.5323720000000  0.4950320000000  0.4292780000000 1.0
C      1  0.5113150000000  0.5219500000000  0.4015290000000 1.0
C      1  0.5271070000000  0.4791060000000  0.4772350000000 1.0
C      1  0.4880790000000  0.5480120000000  0.5889430000000 1.0
C      1  0.5242540000000  0.5328510000000  0.4958760000000 1.0
C      1  0.4778700000000  0.5577540000000  0.4510830000000 1.0
C      1  0.5438010000000  0.4180980000000  0.4292650000000 1.0
C      1  0.5321600000000  0.4756780000000  0.5368480000000 1.0
C      1  0.6032090000000  0.4927160000000  0.5188950000000 1.0
C      1  0.5462090000000  0.6229890000000  0.5583320000000 1.0
C      1  0.4468160000000  0.4253560000000  0.5613260000000 1.0
C      1  0.5169070000000  0.5199700000000  0.4650750000000 1.0
C      1  0.4542480000000  0.5320170000000  0.5748570000000 1.0
C      1  0.5618740000000  0.5052280000000  0.5017450000000 1.0
C      1  0.4319960000000  0.4206480000000  0.5030610000000 1.0
C      1  0.5409210000000  0.4071270000000  0.4880460000000 1.0
C      1  0.4864750000000  0.3966080000000  0.4537770000000 1.0
C      1  0.4445730000000  0.5720660000000  0.5226480000000 1.0
C      1  0.4979470000000  0.4821620000000  0.5935610000000 1.0
C      1  0.4374280000000  0.5703600000000  0.4894190000000 1.0
C      1  0.4113650000000  0.4860760000000  0.5434870000000 1.0
C      1  0.5597910000000  0.4437830000000  0.4213830000000 1.0
C      1  0.5427180000000  0.5209810000000  0.5658380000000 1.0
C      1  0.4428250000000  0.4659740000000  0.4328310000000 1.0
C      1  0.4787380000000  0.3921630000000  0.5464130000000 1.0
C      1  0.5137680000000  0.5007460000000  0.4998560000000 1.0
C      1  0.4639040000000  0.4639950000000  0.4101270000000 1.0
C      1  0.5128380000000  0.4714600000000  0.4201060000000 1.0
C      1  0.5698070000000  0.4557260000000  0.4441550000000 1.0
C      1  0.4584000000000  0.4441260000000  0.5806010000000 1.0
C      1  0.5539840000000  0.5366940000000  0.5119430000000 1.0
C      1  0.4498760000000  0.4252790000000  0.4744760000000 1.0
C      1  0.5083650000000  0.5461800000000  0.4487570000000 1.0
C      1  0.5955140000000  0.4312000000000  0.4988500000000 1.0
C      1  0.4464790000000  0.4543550000000  0.5435680000000 1.0
C      1  0.5493530000000  0.4492800000000  0.5813230000000 1.0
C      1  0.5131470000000  0.5859420000000  0.4698580000000 1.0
C      1  0.6071460000000  0.5048040000000  0.5477200000000 1.0
C      1  0.4308140000000  0.4504990000000  0.5135210000000 1.0
C      1  0.5129160000000  0.5853990000000  0.4368570000000 1.0
C      1  0.5268460000000  0.5275530000000  0.4271070000000 1.0
C      1  0.5697110000000  0.4362830000000  0.5204070000000 1.0
C      1  0.5563520000000  0.4337320000000  0.5515960000000 1.0
C      1  0.4202210000000  0.5112340000000  0.4623290000000 1.0
C      1  0.5231580000000  0.5970910000000  0.5228130000000 1.0
C      1  0.4891280000000  0.5024310000000  0.3863900000000 1.0
C      1  0.5913600000000  0.5214650000000  0.5050710000000 1.0
C      1  0.5248260000000  0.3688120000000  0.4394190000000 1.0
C      1  0.5801950000000  0.4824840000000  0.4387400000000 1.0
C      1  0.5784000000000  0.4955550000000  0.4764730000000 1.0
C      1  0.5280860000000  0.4917400000000  0.5665150000000 1.0
C      1  0.5041960000000  0.4446330000000  0.5562420000000 1.0
C      1  0.4529130000000  0.4667530000000  0.4934100000000 1.0
C      1  0.4332080000000  0.5423850000000  0.5175860000000 1.0
C      1  0.5784830000000  0.5508800000000  0.4931100000000 1.0
C      1  0.4928480000000  0.4480370000000  0.4596620000000 1.0
C      1  0.5994100000000  0.4886980000000  0.4208010000000 1.0
C      1  0.5882470000000  0.4645010000000  0.5244550000000 1.0
C      1  0.4038130000000  0.5653340000000  0.4896380000000 1.0
END
