TITL C-2847945-6269-469 -0.000662737579163558 125000 -886.772914057412 0 0 168 (C1) n - 1
REM
REM in /home/bkarasulu/work/CARBON/AIRSS/Generating-Clusters/AIREBO/with-SteepDescent/Only-C1/SD-CG-opt/Try1-1.4A-POS3A/HFTN-CG
REM
REM
REM
REM
REM
REM ./C.cell (11c1c37f851c82e70ff6c80c92926a4b)
REM
REM compiler GCC version 9.2.1 20190827 (Red Hat 9.2.1-1)
REM options -cpp -mtune=generic -march=x86-64 -g -O0 -fpre-include=/usr/include/finclude/math-vector-fortran.h
REM seed 266323330 876126483 -1178458131 -620000564 1163829563 -579858260 1995339648 1751726967 515535645 -262812420 1510637792 287160083 1044482978 -1514340151 728879044 1677609339 -1776284680 -954047225 1731410494 -1296935853 1970920455 -1731966448 599994849 -764304829 418619357 -814106654 -386261383 -2002257040 897380135 1677690326 1858565557 106371990 1641704070
REM
CELL 1.54180   50.00000   50.00000   50.00000   90.00000   90.00000   90.00000
LATT -1
SFAC C  
C      1  0.4589950000000  0.4673020000000  0.4696590000000 1.0
C      1  0.5898890000000  0.5316360000000  0.5614250000000 1.0
C      1  0.5945380000000  0.5513860000000  0.4444420000000 1.0
C      1  0.4419760000000  0.5872580000000  0.4639880000000 1.0
C      1  0.4858550000000  0.5630130000000  0.5130350000000 1.0
C      1  0.5674400000000  0.4677720000000  0.5603420000000 1.0
C      1  0.5317080000000  0.5674760000000  0.5068340000000 1.0
C      1  0.5880740000000  0.4642670000000  0.5124690000000 1.0
C      1  0.4462460000000  0.5301880000000  0.4750240000000 1.0
C      1  0.5576280000000  0.5742640000000  0.5477900000000 1.0
C      1  0.4618460000000  0.4395110000000  0.4890790000000 1.0
C      1  0.4993240000000  0.4610100000000  0.5893090000000 1.0
C      1  0.4708590000000  0.5015590000000  0.4370760000000 1.0
C      1  0.4566700000000  0.4150710000000  0.4578500000000 1.0
C      1  0.4462160000000  0.4540780000000  0.5836530000000 1.0
C      1  0.5936390000000  0.5366700000000  0.4750840000000 1.0
C      1  0.5232280000000  0.5053860000000  0.5693570000000 1.0
C      1  0.5069490000000  0.4434190000000  0.5404950000000 1.0
C      1  0.5041510000000  0.4852450000000  0.6113750000000 1.0
C      1  0.5568000000000  0.5877560000000  0.4960980000000 1.0
C      1  0.4770740000000  0.5570160000000  0.5432500000000 1.0
C      1  0.5018580000000  0.4092100000000  0.5825700000000 1.0
C      1  0.4313210000000  0.4230360000000  0.5262020000000 1.0
C      1  0.4336390000000  0.4367830000000  0.4702690000000 1.0
C      1  0.4895260000000  0.5506040000000  0.4122140000000 1.0
C      1  0.5132440000000  0.3878180000000  0.5337850000000 1.0
C      1  0.4874670000000  0.4169830000000  0.4648490000000 1.0
C      1  0.5469340000000  0.5210640000000  0.5635250000000 1.0
C      1  0.4227010000000  0.5303770000000  0.4942030000000 1.0
C      1  0.5622440000000  0.4869530000000  0.5327480000000 1.0
C      1  0.5153310000000  0.4841990000000  0.4975240000000 1.0
C      1  0.5237020000000  0.4351590000000  0.4948320000000 1.0
C      1  0.5695860000000  0.4112690000000  0.4960940000000 1.0
C      1  0.5522990000000  0.5367540000000  0.4828520000000 1.0
C      1  0.5130320000000  0.4955900000000  0.4223890000000 1.0
C      1  0.5970700000000  0.4823740000000  0.5389550000000 1.0
C      1  0.4795630000000  0.4269170000000  0.5357340000000 1.0
C      1  0.6049490000000  0.5125520000000  0.4539310000000 1.0
C      1  0.4781060000000  0.5756070000000  0.5783880000000 1.0
C      1  0.4679040000000  0.6042940000000  0.4779180000000 1.0
C      1  0.4370830000000  0.4781070000000  0.6059130000000 1.0
C      1  0.5245980000000  0.5545770000000  0.4775120000000 1.0
C      1  0.5549400000000  0.4561050000000  0.4742270000000 1.0
C      1  0.4671290000000  0.4223680000000  0.4281870000000 1.0
C      1  0.5676940000000  0.4477570000000  0.5341400000000 1.0
C      1  0.4053320000000  0.5497130000000  0.4532210000000 1.0
C      1  0.4869110000000  0.4460540000000  0.4174110000000 1.0
C      1  0.4375500000000  0.5176760000000  0.4220930000000 1.0
C      1  0.5400520000000  0.5261330000000  0.5128230000000 1.0
C      1  0.4439320000000  0.5451320000000  0.5131960000000 1.0
C      1  0.4291790000000  0.5429690000000  0.4391550000000 1.0
C      1  0.5228940000000  0.5992040000000  0.4599870000000 1.0
C      1  0.4919070000000  0.3930650000000  0.5599550000000 1.0
C      1  0.5731170000000  0.4670430000000  0.4476520000000 1.0
C      1  0.5683080000000  0.5206600000000  0.4086400000000 1.0
C      1  0.5145300000000  0.5554240000000  0.5297320000000 1.0
C      1  0.5495230000000  0.5391880000000  0.4490450000000 1.0
C      1  0.5282460000000  0.5915020000000  0.5430410000000 1.0
C      1  0.4939990000000  0.4389980000000  0.4868180000000 1.0
C      1  0.4229560000000  0.4623860000000  0.4862300000000 1.0
C      1  0.5935770000000  0.4897510000000  0.4948410000000 1.0
C      1  0.4991330000000  0.6058320000000  0.5000450000000 1.0
C      1  0.4962890000000  0.5840500000000  0.5507650000000 1.0
C      1  0.4332010000000  0.5840690000000  0.5117560000000 1.0
C      1  0.4805210000000  0.6001490000000  0.5267510000000 1.0
C      1  0.5233120000000  0.5196950000000  0.3930910000000 1.0
C      1  0.4499980000000  0.5098020000000  0.5391840000000 1.0
C      1  0.4058640000000  0.5060390000000  0.5058220000000 1.0
C      1  0.4458280000000  0.5618110000000  0.5422530000000 1.0
C      1  0.5042850000000  0.4289910000000  0.4412170000000 1.0
C      1  0.5346750000000  0.4787220000000  0.5229870000000 1.0
C      1  0.5283510000000  0.5620640000000  0.5600870000000 1.0
C      1  0.4436620000000  0.6187270000000  0.4588810000000 1.0
C      1  0.5172040000000  0.5453900000000  0.4078320000000 1.0
C      1  0.5822800000000  0.4984710000000  0.5650080000000 1.0
C      1  0.5563690000000  0.4952600000000  0.4565710000000 1.0
C      1  0.4674990000000  0.5285950000000  0.5109320000000 1.0
C      1  0.4443020000000  0.4267350000000  0.5715700000000 1.0
C      1  0.4624770000000  0.5477000000000  0.4333430000000 1.0
C      1  0.5126640000000  0.5224900000000  0.5326470000000 1.0
C      1  0.5726630000000  0.4783710000000  0.4155100000000 1.0
C      1  0.4262860000000  0.4916920000000  0.5269360000000 1.0
C      1  0.5175500000000  0.4376710000000  0.5725750000000 1.0
C      1  0.4386930000000  0.4699170000000  0.5110510000000 1.0
C      1  0.4389510000000  0.4474190000000  0.4413990000000 1.0
C      1  0.4399550000000  0.4828970000000  0.5667220000000 1.0
C      1  0.5710440000000  0.5218100000000  0.5870520000000 1.0
C      1  0.5257930000000  0.5711020000000  0.4527370000000 1.0
C      1  0.4879100000000  0.5272020000000  0.5554890000000 1.0
C      1  0.4981160000000  0.4968550000000  0.3939520000000 1.0
C      1  0.3870500000000  0.5339210000000  0.5108910000000 1.0
C      1  0.5165800000000  0.4601810000000  0.4402080000000 1.0
C      1  0.4465100000000  0.4956130000000  0.4059360000000 1.0
C      1  0.5292160000000  0.4776900000000  0.4670720000000 1.0
C      1  0.4556450000000  0.5584620000000  0.4714320000000 1.0
C      1  0.5777520000000  0.5523430000000  0.5397540000000 1.0
C      1  0.4697440000000  0.5073280000000  0.4840750000000 1.0
C      1  0.5721370000000  0.5105610000000  0.4786130000000 1.0
C      1  0.4701790000000  0.4769240000000  0.5002940000000 1.0
C      1  0.4846790000000  0.3994000000000  0.5214600000000 1.0
C      1  0.4742470000000  0.4757970000000  0.4068110000000 1.0
C      1  0.4416370000000  0.5315830000000  0.5836380000000 1.0
C      1  0.5989100000000  0.4825980000000  0.4636800000000 1.0
C      1  0.4782900000000  0.4943040000000  0.5283740000000 1.0
C      1  0.4396360000000  0.3987990000000  0.4807350000000 1.0
C      1  0.4627020000000  0.4686440000000  0.5443460000000 1.0
C      1  0.4678930000000  0.4145830000000  0.5628360000000 1.0
C      1  0.4389690000000  0.5050570000000  0.5925710000000 1.0
C      1  0.5740130000000  0.4430090000000  0.4950800000000 1.0
C      1  0.5463590000000  0.4231340000000  0.4742700000000 1.0
C      1  0.5095800000000  0.4900240000000  0.5422660000000 1.0
C      1  0.4233270000000  0.4220490000000  0.5532020000000 1.0
C      1  0.5731450000000  0.5427910000000  0.4297420000000 1.0
C      1  0.4685610000000  0.5083600000000  0.3853050000000 1.0
C      1  0.5918980000000  0.5512120000000  0.5123020000000 1.0
C      1  0.5591300000000  0.5264230000000  0.5365110000000 1.0
C      1  0.5853030000000  0.5111980000000  0.5273880000000 1.0
C      1  0.5013230000000  0.5521360000000  0.5743320000000 1.0
C      1  0.5248530000000  0.4763780000000  0.5785540000000 1.0
C      1  0.3997930000000  0.5324530000000  0.5389410000000 1.0
C      1  0.4969610000000  0.4594110000000  0.5118640000000 1.0
C      1  0.4593440000000  0.4695700000000  0.4367330000000 1.0
C      1  0.5352130000000  0.4643410000000  0.4119650000000 1.0
C      1  0.5283250000000  0.6000630000000  0.5111590000000 1.0
C      1  0.4146990000000  0.5619760000000  0.5173410000000 1.0
C      1  0.5368860000000  0.4261110000000  0.4447560000000 1.0
C      1  0.4279260000000  0.4064830000000  0.5040140000000 1.0
C      1  0.4955980000000  0.4833900000000  0.4462150000000 1.0
C      1  0.5158040000000  0.3870030000000  0.4998880000000 1.0
C      1  0.5810610000000  0.5041200000000  0.4352490000000 1.0
C      1  0.5543260000000  0.4178750000000  0.5242450000000 1.0
C      1  0.4962180000000  0.5113630000000  0.5050410000000 1.0
C      1  0.4921850000000  0.5314290000000  0.5979000000000 1.0
C      1  0.5008850000000  0.5433430000000  0.4942980000000 1.0
C      1  0.4946230000000  0.5870580000000  0.4719640000000 1.0
C      1  0.5330870000000  0.5584150000000  0.4269680000000 1.0
C      1  0.6035470000000  0.5210530000000  0.5036580000000 1.0
C      1  0.5082520000000  0.5092000000000  0.5981560000000 1.0
C      1  0.3968590000000  0.4855430000000  0.4556120000000 1.0
C      1  0.5113940000000  0.4500140000000  0.3967390000000 1.0
C      1  0.4652340000000  0.5475450000000  0.5902890000000 1.0
C      1  0.5357140000000  0.4462970000000  0.5225960000000 1.0
C      1  0.3980550000000  0.5434860000000  0.4800680000000 1.0
C      1  0.5491580000000  0.5479120000000  0.5829640000000 1.0
C      1  0.4927700000000  0.5267350000000  0.4682890000000 1.0
C      1  0.4686190000000  0.5012170000000  0.5663080000000 1.0
C      1  0.5439200000000  0.4969690000000  0.4077910000000 1.0
C      1  0.5399830000000  0.4002800000000  0.5434020000000 1.0
C      1  0.5294720000000  0.5200290000000  0.4369580000000 1.0
C      1  0.3987890000000  0.4839700000000  0.4860670000000 1.0
C      1  0.4753580000000  0.4683360000000  0.5751570000000 1.0
C      1  0.4316800000000  0.5349120000000  0.5529910000000 1.0
C      1  0.4614580000000  0.5779560000000  0.4975010000000 1.0
C      1  0.4556200000000  0.4437870000000  0.5222340000000 1.0
C      1  0.5130790000000  0.5068680000000  0.4603510000000 1.0
C      1  0.5729150000000  0.5612970000000  0.4892520000000 1.0
C      1  0.4303690000000  0.4839950000000  0.4617810000000 1.0
C      1  0.5407900000000  0.3935450000000  0.4900850000000 1.0
C      1  0.4838710000000  0.5578730000000  0.4578380000000 1.0
C      1  0.5525170000000  0.4458220000000  0.4308710000000 1.0
C      1  0.5391470000000  0.4117010000000  0.5686070000000 1.0
C      1  0.4958680000000  0.3909250000000  0.4818070000000 1.0
C      1  0.5434870000000  0.6088370000000  0.4750120000000 1.0
C      1  0.4760910000000  0.5222880000000  0.4153070000000 1.0
C      1  0.4443000000000  0.5089090000000  0.4532640000000 1.0
C      1  0.5453840000000  0.4577800000000  0.5754880000000 1.0
C      1  0.4028540000000  0.5038940000000  0.5455730000000 1.0
C      1  0.4533250000000  0.5939620000000  0.5331570000000 1.0
END
