TITL C-2847952-8118-173 9.68384550016084e-05 125000 -874.188132750154 0 0 164 (C1) n - 1
REM
REM in /home/bkarasulu/work/CARBON/AIRSS/Generating-Clusters/AIREBO/with-SteepDescent/Only-C1/SD-CG-opt/Try1-1.4A-POS3A/HFTN-CG
REM
REM
REM
REM
REM
REM ./C.cell (11c1c37f851c82e70ff6c80c92926a4b)
REM
REM compiler GCC version 9.2.1 20190827 (Red Hat 9.2.1-1)
REM options -cpp -mtune=generic -march=x86-64 -g -O0 -fpre-include=/usr/include/finclude/math-vector-fortran.h
REM seed -498917151 603728388 167159265 -1511428700 -2102149311 -1662352364 1111786194 916017770 -641379925 -1438268566 30284711 862372990 1892351552 2042081581 -145084468 -682350825 -1716255099 -994496763 -1875911492 1332343902 -484255943 -1123906093 -470318400 -1137293185 -1492827666 1197547862 852671600 -1150758986 899103211 1755567977 -1086754111 -2115449995 148205121
REM
CELL 1.54180   50.00000   50.00000   50.00000   90.00000   90.00000   90.00000
LATT -1
SFAC C  
C      1  0.4645570000000  0.5220180000000  0.5714020000000 1.0
C      1  0.4609780000000  0.5044070000000  0.4145660000000 1.0
C      1  0.4573160000000  0.3981630000000  0.4901890000000 1.0
C      1  0.5007040000000  0.4558460000000  0.4083050000000 1.0
C      1  0.4639600000000  0.5554990000000  0.5130680000000 1.0
C      1  0.4687150000000  0.5292860000000  0.4838650000000 1.0
C      1  0.5333160000000  0.5647240000000  0.4572930000000 1.0
C      1  0.4187810000000  0.4895580000000  0.5533890000000 1.0
C      1  0.5350070000000  0.5620580000000  0.5830080000000 1.0
C      1  0.5868360000000  0.5273160000000  0.4894180000000 1.0
C      1  0.5327540000000  0.5802230000000  0.4875760000000 1.0
C      1  0.5702920000000  0.5777360000000  0.4645460000000 1.0
C      1  0.3979550000000  0.4827630000000  0.5330790000000 1.0
C      1  0.4549640000000  0.5481640000000  0.5517930000000 1.0
C      1  0.5511600000000  0.4601700000000  0.5856350000000 1.0
C      1  0.5519700000000  0.5208050000000  0.4860510000000 1.0
C      1  0.5746640000000  0.4722960000000  0.5752220000000 1.0
C      1  0.4742790000000  0.5731240000000  0.5577980000000 1.0
C      1  0.5240380000000  0.5370710000000  0.5842160000000 1.0
C      1  0.4129160000000  0.5680070000000  0.5293370000000 1.0
C      1  0.5907690000000  0.4523010000000  0.5620240000000 1.0
C      1  0.5233760000000  0.5125250000000  0.5250940000000 1.0
C      1  0.5795860000000  0.5009390000000  0.5616390000000 1.0
C      1  0.5043140000000  0.4024480000000  0.5167650000000 1.0
C      1  0.5970000000000  0.4526590000000  0.5142550000000 1.0
C      1  0.5156040000000  0.4312200000000  0.4915980000000 1.0
C      1  0.4910610000000  0.5597580000000  0.5843720000000 1.0
C      1  0.4235450000000  0.4721740000000  0.5790380000000 1.0
C      1  0.4545510000000  0.4772480000000  0.3985310000000 1.0
C      1  0.4167230000000  0.5210250000000  0.5110670000000 1.0
C      1  0.6079490000000  0.5209780000000  0.5144850000000 1.0
C      1  0.5728250000000  0.5718330000000  0.5149770000000 1.0
C      1  0.4750000000000  0.5055090000000  0.5435510000000 1.0
C      1  0.5725620000000  0.5391560000000  0.5149130000000 1.0
C      1  0.4198890000000  0.5342440000000  0.4846090000000 1.0
C      1  0.5391750000000  0.5704580000000  0.4242920000000 1.0
C      1  0.5235400000000  0.5410560000000  0.4022780000000 1.0
C      1  0.4994980000000  0.4802200000000  0.4896380000000 1.0
C      1  0.5718060000000  0.5331080000000  0.5659630000000 1.0
C      1  0.5310580000000  0.4426690000000  0.4450990000000 1.0
C      1  0.4522660000000  0.5359430000000  0.5995560000000 1.0
C      1  0.5522650000000  0.5144730000000  0.3956830000000 1.0
C      1  0.4889930000000  0.4787850000000  0.5278450000000 1.0
C      1  0.4040960000000  0.4605420000000  0.5166550000000 1.0
C      1  0.5216900000000  0.4718800000000  0.5862780000000 1.0
C      1  0.4520020000000  0.4538240000000  0.5211120000000 1.0
C      1  0.4938460000000  0.6088180000000  0.4724350000000 1.0
C      1  0.4948280000000  0.4851520000000  0.4507610000000 1.0
C      1  0.5723440000000  0.4229910000000  0.4913410000000 1.0
C      1  0.4255720000000  0.5377300000000  0.5393270000000 1.0
C      1  0.5707130000000  0.4526080000000  0.4843040000000 1.0
C      1  0.5010670000000  0.5124840000000  0.5002670000000 1.0
C      1  0.4462670000000  0.5522540000000  0.4839150000000 1.0
C      1  0.5346180000000  0.4953180000000  0.4037250000000 1.0
C      1  0.4785040000000  0.4213880000000  0.5045290000000 1.0
C      1  0.5603080000000  0.5044580000000  0.4574150000000 1.0
C      1  0.5843680000000  0.4413550000000  0.5365580000000 1.0
C      1  0.4677740000000  0.5554470000000  0.6063860000000 1.0
C      1  0.4986930000000  0.4731050000000  0.5590330000000 1.0
C      1  0.4756000000000  0.5237160000000  0.5162890000000 1.0
C      1  0.5444410000000  0.4696710000000  0.4980060000000 1.0
C      1  0.5106610000000  0.4045570000000  0.5448360000000 1.0
C      1  0.4412900000000  0.5070230000000  0.5392850000000 1.0
C      1  0.5294380000000  0.4935840000000  0.4801270000000 1.0
C      1  0.5125140000000  0.4441270000000  0.5491920000000 1.0
C      1  0.5085600000000  0.4420150000000  0.5202620000000 1.0
C      1  0.5063730000000  0.5417860000000  0.4883610000000 1.0
C      1  0.5907060000000  0.4897110000000  0.4616990000000 1.0
C      1  0.4303620000000  0.4707870000000  0.5010940000000 1.0
C      1  0.4637610000000  0.4258410000000  0.4347990000000 1.0
C      1  0.5715380000000  0.4915090000000  0.5321590000000 1.0
C      1  0.4259010000000  0.4377900000000  0.4724700000000 1.0
C      1  0.4472780000000  0.4667650000000  0.4477910000000 1.0
C      1  0.4569350000000  0.4485020000000  0.4819550000000 1.0
C      1  0.5971720000000  0.4828680000000  0.5185850000000 1.0
C      1  0.4902950000000  0.4647880000000  0.5971170000000 1.0
C      1  0.4532410000000  0.4185380000000  0.4663120000000 1.0
C      1  0.4846880000000  0.5506470000000  0.4637130000000 1.0
C      1  0.5225970000000  0.4791870000000  0.5223070000000 1.0
C      1  0.5346500000000  0.4873420000000  0.4471100000000 1.0
C      1  0.5499220000000  0.4682590000000  0.5376220000000 1.0
C      1  0.5018650000000  0.4437000000000  0.4359220000000 1.0
C      1  0.4137420000000  0.5420220000000  0.4534890000000 1.0
C      1  0.4879800000000  0.5827870000000  0.4564600000000 1.0
C      1  0.3903570000000  0.4812930000000  0.4709640000000 1.0
C      1  0.5437470000000  0.5763470000000  0.5601240000000 1.0
C      1  0.5366340000000  0.4224560000000  0.5560540000000 1.0
C      1  0.4331080000000  0.4636210000000  0.4170340000000 1.0
C      1  0.5106900000000  0.5457270000000  0.4454330000000 1.0
C      1  0.5118770000000  0.5420210000000  0.5375150000000 1.0
C      1  0.5355910000000  0.4879230000000  0.5614670000000 1.0
C      1  0.4504810000000  0.4791580000000  0.3711860000000 1.0
C      1  0.5606800000000  0.5473460000000  0.4642350000000 1.0
C      1  0.5269800000000  0.4009670000000  0.4953650000000 1.0
C      1  0.4947470000000  0.4975450000000  0.6051260000000 1.0
C      1  0.4540380000000  0.5770060000000  0.4352740000000 1.0
C      1  0.5970160000000  0.4688800000000  0.4843430000000 1.0
C      1  0.4815830000000  0.4553100000000  0.5043850000000 1.0
C      1  0.5527310000000  0.4515430000000  0.4042570000000 1.0
C      1  0.5497060000000  0.4323660000000  0.5825990000000 1.0
C      1  0.4612220000000  0.5952890000000  0.5114350000000 1.0
C      1  0.5115280000000  0.3956360000000  0.4655220000000 1.0
C      1  0.4578750000000  0.4960360000000  0.4407000000000 1.0
C      1  0.5122600000000  0.5851100000000  0.5142800000000 1.0
C      1  0.5366460000000  0.5483630000000  0.4988390000000 1.0
C      1  0.4907910000000  0.4294210000000  0.4738410000000 1.0
C      1  0.5062670000000  0.5779210000000  0.4286970000000 1.0
C      1  0.3786260000000  0.4959320000000  0.4919220000000 1.0
C      1  0.4684990000000  0.4680520000000  0.5712260000000 1.0
C      1  0.4973540000000  0.5570060000000  0.5141680000000 1.0
C      1  0.5595360000000  0.4538070000000  0.4546560000000 1.0
C      1  0.5617390000000  0.5887800000000  0.4405520000000 1.0
C      1  0.4155710000000  0.5101810000000  0.4608070000000 1.0
C      1  0.5195760000000  0.6104810000000  0.4803350000000 1.0
C      1  0.4677010000000  0.4911750000000  0.4946630000000 1.0
C      1  0.4453460000000  0.4032960000000  0.5174020000000 1.0
C      1  0.5074490000000  0.5056180000000  0.5542930000000 1.0
C      1  0.5546820000000  0.5416890000000  0.4147960000000 1.0
C      1  0.6247780000000  0.4975980000000  0.5087760000000 1.0
C      1  0.5224320000000  0.5930540000000  0.5441490000000 1.0
C      1  0.4320150000000  0.4376600000000  0.4390220000000 1.0
C      1  0.4484080000000  0.4923540000000  0.5754580000000 1.0
C      1  0.4941560000000  0.5260320000000  0.5876610000000 1.0
C      1  0.4309120000000  0.4462360000000  0.5739410000000 1.0
C      1  0.5051630000000  0.5287440000000  0.4212090000000 1.0
C      1  0.4547110000000  0.4454680000000  0.5527300000000 1.0
C      1  0.4446160000000  0.5732280000000  0.5312730000000 1.0
C      1  0.5054380000000  0.5672330000000  0.5547140000000 1.0
C      1  0.4344670000000  0.5524230000000  0.4397250000000 1.0
C      1  0.4502520000000  0.5771690000000  0.4667340000000 1.0
C      1  0.5108390000000  0.4998450000000  0.4269740000000 1.0
C      1  0.4705250000000  0.4505050000000  0.4122330000000 1.0
C      1  0.4054190000000  0.5336440000000  0.5643410000000 1.0
C      1  0.5427840000000  0.5380560000000  0.5489170000000 1.0
C      1  0.4416210000000  0.4986330000000  0.5086430000000 1.0
C      1  0.4320440000000  0.4290630000000  0.5181650000000 1.0
C      1  0.5311130000000  0.4661040000000  0.4204640000000 1.0
C      1  0.5321630000000  0.4491520000000  0.4762790000000 1.0
C      1  0.4660410000000  0.5971230000000  0.4827290000000 1.0
C      1  0.4758060000000  0.5335270000000  0.4141810000000 1.0
C      1  0.3937590000000  0.4917840000000  0.4423180000000 1.0
C      1  0.5707360000000  0.5308250000000  0.4386420000000 1.0
C      1  0.4613270000000  0.5385080000000  0.4421930000000 1.0
C      1  0.3917090000000  0.5041980000000  0.5156010000000 1.0
C      1  0.4877690000000  0.4141370000000  0.5584180000000 1.0
C      1  0.4767700000000  0.5672780000000  0.4194230000000 1.0
C      1  0.5522280000000  0.4156580000000  0.5086150000000 1.0
C      1  0.5987680000000  0.5195000000000  0.5405310000000 1.0
C      1  0.5442310000000  0.5634840000000  0.5286390000000 1.0
C      1  0.4243060000000  0.4784150000000  0.4700250000000 1.0
C      1  0.4667690000000  0.4200580000000  0.5364280000000 1.0
C      1  0.5534640000000  0.4347410000000  0.5329900000000 1.0
C      1  0.4738770000000  0.5047950000000  0.4656050000000 1.0
C      1  0.5801180000000  0.5546960000000  0.5436500000000 1.0
C      1  0.5549960000000  0.5134580000000  0.5191130000000 1.0
C      1  0.5651260000000  0.5886620000000  0.4916110000000 1.0
C      1  0.4879780000000  0.4076940000000  0.4504050000000 1.0
C      1  0.4111030000000  0.4358790000000  0.4991960000000 1.0
C      1  0.5756230000000  0.4717420000000  0.4395850000000 1.0
C      1  0.5954910000000  0.5221900000000  0.4603000000000 1.0
C      1  0.4829880000000  0.5901660000000  0.5308400000000 1.0
C      1  0.4936770000000  0.4377440000000  0.5767720000000 1.0
C      1  0.4783290000000  0.4559750000000  0.4566070000000 1.0
C      1  0.5438030000000  0.5154250000000  0.5726400000000 1.0
END
