TITL C-2847950-6905-301 -0.00534995996273878 125000 -939.101382176927 0 0 173 (C1) n - 1
REM
REM in /home/bkarasulu/work/CARBON/AIRSS/Generating-Clusters/AIREBO/with-SteepDescent/Only-C1/SD-CG-opt/Try1-1.4A-POS3A/HFTN-CG
REM
REM
REM
REM
REM
REM ./C.cell (11c1c37f851c82e70ff6c80c92926a4b)
REM
REM compiler GCC version 9.2.1 20190827 (Red Hat 9.2.1-1)
REM options -cpp -mtune=generic -march=x86-64 -g -O0 -fpre-include=/usr/include/finclude/math-vector-fortran.h
REM seed 2072891708 334808232 916953274 -1442439980 -968996226 -111618398 -8513326 799407675 -1114666423 1587501712 -135224057 -1857034944 -1803314226 1083533191 379742540 962579628 -838049546 -2021022700 2096619028 1935038974 -695149610 -1969290112 728800320 551720606 -895499202 1869155057 -142820752 -397067586 235252142 -1481493861 1170663108 -467103691 -790293402
REM
CELL 1.54180   50.00000   50.00000   50.00000   90.00000   90.00000   90.00000
LATT -1
SFAC C  
C      1  0.4436010000000  0.5191480000000  0.4139260000000 1.0
C      1  0.4780580000000  0.4681690000000  0.4409010000000 1.0
C      1  0.4386200000000  0.4547140000000  0.5856730000000 1.0
C      1  0.5832840000000  0.4377180000000  0.4724210000000 1.0
C      1  0.4867710000000  0.4836730000000  0.5262020000000 1.0
C      1  0.5200600000000  0.4020950000000  0.4601590000000 1.0
C      1  0.4291580000000  0.4140530000000  0.5232270000000 1.0
C      1  0.4982590000000  0.5392700000000  0.5920190000000 1.0
C      1  0.5394920000000  0.4163120000000  0.5390590000000 1.0
C      1  0.5800200000000  0.4966670000000  0.5792980000000 1.0
C      1  0.3905480000000  0.4892090000000  0.5270240000000 1.0
C      1  0.4108580000000  0.4516920000000  0.4638190000000 1.0
C      1  0.5060730000000  0.4602660000000  0.5343440000000 1.0
C      1  0.5029960000000  0.4949360000000  0.3839780000000 1.0
C      1  0.5450540000000  0.5854310000000  0.5550440000000 1.0
C      1  0.5913540000000  0.5214110000000  0.4248360000000 1.0
C      1  0.5443910000000  0.4461370000000  0.4745440000000 1.0
C      1  0.4162080000000  0.5311930000000  0.5638400000000 1.0
C      1  0.5808670000000  0.5295290000000  0.4985020000000 1.0
C      1  0.5857010000000  0.4908880000000  0.4356460000000 1.0
C      1  0.4856560000000  0.4368560000000  0.4802250000000 1.0
C      1  0.4694340000000  0.5203070000000  0.5559110000000 1.0
C      1  0.4998470000000  0.6271770000000  0.5024070000000 1.0
C      1  0.5485800000000  0.4952340000000  0.5934640000000 1.0
C      1  0.4916360000000  0.4584480000000  0.6007500000000 1.0
C      1  0.4313890000000  0.4292570000000  0.4390620000000 1.0
C      1  0.5418260000000  0.5749390000000  0.4275340000000 1.0
C      1  0.5505040000000  0.4402250000000  0.5174680000000 1.0
C      1  0.5302880000000  0.5303350000000  0.4996640000000 1.0
C      1  0.4512610000000  0.4035310000000  0.4801320000000 1.0
C      1  0.4873610000000  0.4178540000000  0.5676230000000 1.0
C      1  0.5092240000000  0.4104250000000  0.5422400000000 1.0
C      1  0.5070190000000  0.4818610000000  0.5606070000000 1.0
C      1  0.4731490000000  0.4799070000000  0.5641750000000 1.0
C      1  0.4210490000000  0.4540320000000  0.5555170000000 1.0
C      1  0.5838000000000  0.4745960000000  0.5221040000000 1.0
C      1  0.4580110000000  0.4952150000000  0.5378550000000 1.0
C      1  0.4437570000000  0.4858200000000  0.5802650000000 1.0
C      1  0.4658180000000  0.5371450000000  0.5919460000000 1.0
C      1  0.4097090000000  0.4824700000000  0.5512790000000 1.0
C      1  0.5041150000000  0.5716170000000  0.4570680000000 1.0
C      1  0.4500390000000  0.5374930000000  0.5221370000000 1.0
C      1  0.4164300000000  0.5612680000000  0.4571460000000 1.0
C      1  0.4722060000000  0.4324420000000  0.5066810000000 1.0
C      1  0.6021120000000  0.4737430000000  0.4866370000000 1.0
C      1  0.4907500000000  0.4339110000000  0.5311930000000 1.0
C      1  0.4306760000000  0.4260770000000  0.5691540000000 1.0
C      1  0.4571190000000  0.4202200000000  0.4325960000000 1.0
C      1  0.4501240000000  0.5205600000000  0.4720610000000 1.0
C      1  0.4856210000000  0.5119770000000  0.4979950000000 1.0
C      1  0.5662940000000  0.4762440000000  0.4163640000000 1.0
C      1  0.4445610000000  0.5404520000000  0.4380170000000 1.0
C      1  0.5641540000000  0.4354540000000  0.4490120000000 1.0
C      1  0.6132900000000  0.4966600000000  0.4997800000000 1.0
C      1  0.4308140000000  0.4331270000000  0.4969550000000 1.0
C      1  0.4404630000000  0.5195270000000  0.5833560000000 1.0
C      1  0.5222160000000  0.4019680000000  0.4924550000000 1.0
C      1  0.5756930000000  0.5661370000000  0.4655650000000 1.0
C      1  0.5183850000000  0.5119790000000  0.5488230000000 1.0
C      1  0.5155920000000  0.4330040000000  0.4850790000000 1.0
C      1  0.5563330000000  0.5516020000000  0.5370390000000 1.0
C      1  0.6015600000000  0.4509490000000  0.5053480000000 1.0
C      1  0.5336100000000  0.5256390000000  0.4195220000000 1.0
C      1  0.4776660000000  0.3977730000000  0.5419460000000 1.0
C      1  0.5278900000000  0.4696970000000  0.5845410000000 1.0
C      1  0.5516970000000  0.5247900000000  0.5769280000000 1.0
C      1  0.4202680000000  0.4602650000000  0.4322720000000 1.0
C      1  0.4382630000000  0.5715560000000  0.4331690000000 1.0
C      1  0.3977680000000  0.4695660000000  0.5085430000000 1.0
C      1  0.5161100000000  0.4787070000000  0.4051590000000 1.0
C      1  0.5528770000000  0.5497520000000  0.4136680000000 1.0
C      1  0.5157480000000  0.5975410000000  0.5077310000000 1.0
C      1  0.4726470000000  0.5645270000000  0.5747410000000 1.0
C      1  0.6079060000000  0.5435620000000  0.4726410000000 1.0
C      1  0.4692140000000  0.4399470000000  0.5860710000000 1.0
C      1  0.4777390000000  0.5060920000000  0.5856610000000 1.0
C      1  0.5788470000000  0.5402270000000  0.4083410000000 1.0
C      1  0.5252760000000  0.5911090000000  0.5361490000000 1.0
C      1  0.4007990000000  0.4721090000000  0.4809580000000 1.0
C      1  0.5308890000000  0.4562840000000  0.4450340000000 1.0
C      1  0.5193310000000  0.6084240000000  0.4598370000000 1.0
C      1  0.4830000000000  0.5455050000000  0.5196330000000 1.0
C      1  0.4834180000000  0.5952540000000  0.5515590000000 1.0
C      1  0.5820350000000  0.5815950000000  0.5147410000000 1.0
C      1  0.4973310000000  0.3886350000000  0.5072190000000 1.0
C      1  0.5555120000000  0.4514110000000  0.5760020000000 1.0
C      1  0.5180180000000  0.4913600000000  0.4602610000000 1.0
C      1  0.4525930000000  0.4173820000000  0.5470390000000 1.0
C      1  0.5817680000000  0.4575160000000  0.5719460000000 1.0
C      1  0.5667760000000  0.5001430000000  0.5083240000000 1.0
C      1  0.4271140000000  0.5369690000000  0.4867930000000 1.0
C      1  0.4998180000000  0.5401100000000  0.4920030000000 1.0
C      1  0.5483560000000  0.4872440000000  0.4858110000000 1.0
C      1  0.5070960000000  0.4445870000000  0.5748450000000 1.0
C      1  0.5215680000000  0.4810230000000  0.4987020000000 1.0
C      1  0.4461840000000  0.4665950000000  0.4526420000000 1.0
C      1  0.4800070000000  0.5642910000000  0.4786030000000 1.0
C      1  0.4277550000000  0.5765130000000  0.4808470000000 1.0
C      1  0.5799540000000  0.4698810000000  0.4617610000000 1.0
C      1  0.5638560000000  0.4617360000000  0.4977050000000 1.0
C      1  0.4523170000000  0.5773490000000  0.4637760000000 1.0
C      1  0.4466090000000  0.5758350000000  0.5320230000000 1.0
C      1  0.5539750000000  0.5264900000000  0.4811440000000 1.0
C      1  0.4518720000000  0.4506630000000  0.5251530000000 1.0
C      1  0.5921110000000  0.4810580000000  0.5516090000000 1.0
C      1  0.4621280000000  0.4492950000000  0.5541570000000 1.0
C      1  0.4886180000000  0.5813490000000  0.4310040000000 1.0
C      1  0.5010190000000  0.4180910000000  0.4485280000000 1.0
C      1  0.5103780000000  0.5902640000000  0.5947020000000 1.0
C      1  0.4129030000000  0.5004900000000  0.5774280000000 1.0
C      1  0.5025330000000  0.5683830000000  0.5599270000000 1.0
C      1  0.4639340000000  0.4816760000000  0.4130540000000 1.0
C      1  0.5347160000000  0.5035390000000  0.5201960000000 1.0
C      1  0.4374950000000  0.4975650000000  0.4560830000000 1.0
C      1  0.6017400000000  0.5162960000000  0.5181340000000 1.0
C      1  0.5233480000000  0.5365180000000  0.5719530000000 1.0
C      1  0.5970000000000  0.5294430000000  0.4533590000000 1.0
C      1  0.4834560000000  0.5908490000000  0.4997080000000 1.0
C      1  0.5031730000000  0.4884120000000  0.4350690000000 1.0
C      1  0.4772470000000  0.4666310000000  0.4748710000000 1.0
C      1  0.5918710000000  0.5615270000000  0.4951160000000 1.0
C      1  0.5037370000000  0.4459890000000  0.4384310000000 1.0
C      1  0.4724630000000  0.4287290000000  0.4114410000000 1.0
C      1  0.5543610000000  0.5876870000000  0.5089680000000 1.0
C      1  0.5402630000000  0.4942830000000  0.4213760000000 1.0
C      1  0.4916540000000  0.5156620000000  0.5313290000000 1.0
C      1  0.4660510000000  0.4016350000000  0.5101980000000 1.0
C      1  0.5774240000000  0.4203300000000  0.4926160000000 1.0
C      1  0.5235020000000  0.4531610000000  0.5079070000000 1.0
C      1  0.4197560000000  0.5275240000000  0.5339700000000 1.0
C      1  0.5500840000000  0.4834640000000  0.4521140000000 1.0
C      1  0.4779180000000  0.5057480000000  0.3984230000000 1.0
C      1  0.4675210000000  0.5674090000000  0.4196490000000 1.0
C      1  0.4347370000000  0.4899220000000  0.4230840000000 1.0
C      1  0.5047430000000  0.5651490000000  0.5283650000000 1.0
C      1  0.5245880000000  0.5768690000000  0.4837260000000 1.0
C      1  0.4898230000000  0.4851370000000  0.6056890000000 1.0
C      1  0.4238200000000  0.4206600000000  0.4694860000000 1.0
C      1  0.4957450000000  0.4539040000000  0.4080530000000 1.0
C      1  0.4701230000000  0.5393500000000  0.4577050000000 1.0
C      1  0.4966720000000  0.4887380000000  0.4841640000000 1.0
C      1  0.4108390000000  0.5017010000000  0.4728710000000 1.0
C      1  0.4298410000000  0.4965220000000  0.5281660000000 1.0
C      1  0.5684180000000  0.5118220000000  0.4561330000000 1.0
C      1  0.5252190000000  0.5493010000000  0.4424730000000 1.0
C      1  0.4180810000000  0.4521050000000  0.5216770000000 1.0
C      1  0.4489020000000  0.4620360000000  0.4932380000000 1.0
C      1  0.3922170000000  0.5161300000000  0.5222700000000 1.0
C      1  0.5317680000000  0.4468020000000  0.5521020000000 1.0
C      1  0.5414870000000  0.4773800000000  0.5408400000000 1.0
C      1  0.4552300000000  0.5133760000000  0.5023760000000 1.0
C      1  0.5594590000000  0.4499390000000  0.4244150000000 1.0
C      1  0.5678260000000  0.5293040000000  0.5536460000000 1.0
C      1  0.4847500000000  0.5940880000000  0.5843740000000 1.0
C      1  0.5906240000000  0.5131490000000  0.5442110000000 1.0
C      1  0.4721030000000  0.5374730000000  0.4092810000000 1.0
C      1  0.4720450000000  0.4143850000000  0.4586300000000 1.0
C      1  0.5536640000000  0.5491740000000  0.4610470000000 1.0
C      1  0.5408770000000  0.5866260000000  0.4554660000000 1.0
C      1  0.5297320000000  0.5695510000000  0.5770820000000 1.0
C      1  0.4033810000000  0.5342550000000  0.4660300000000 1.0
C      1  0.5716870000000  0.5774890000000  0.5435080000000 1.0
C      1  0.5492940000000  0.4084150000000  0.5075410000000 1.0
C      1  0.5544650000000  0.4886300000000  0.5615620000000 1.0
C      1  0.4923820000000  0.5388730000000  0.4365380000000 1.0
C      1  0.4324630000000  0.5624380000000  0.5071360000000 1.0
C      1  0.4683540000000  0.5934940000000  0.5282240000000 1.0
C      1  0.4539550000000  0.5505180000000  0.5535030000000 1.0
C      1  0.5340940000000  0.5605530000000  0.5120350000000 1.0
C      1  0.5033000000000  0.5146540000000  0.4186560000000 1.0
C      1  0.4330510000000  0.4902030000000  0.4959530000000 1.0
C      1  0.4963580000000  0.6114070000000  0.4758870000000 1.0
C      1  0.4647620000000  0.4552630000000  0.3949430000000 1.0
END
