TITL C-2847959-7740-52 -0.00206828874394003 125000 -582.058565684061 0 0 106 (C1) n - 1
REM
REM in /home/bkarasulu/work/CARBON/AIRSS/Generating-Clusters/AIREBO/with-SteepDescent/Only-C1/SD-CG-opt/Try1-1.4A-POS3A/HFTN-CG
REM
REM
REM
REM
REM
REM ./C.cell (11c1c37f851c82e70ff6c80c92926a4b)
REM
REM compiler GCC version 9.2.1 20190827 (Red Hat 9.2.1-1)
REM options -cpp -mtune=generic -march=x86-64 -g -O0 -fpre-include=/usr/include/finclude/math-vector-fortran.h
REM seed 967313594 -35649074 500648252 13370239 1661121251 -966069328 242657170 -2061944130 1991286257 1009322913 -296381543 -1413459747 452989438 -418431723 -1003109486 -1161641311 -214697555 1579280428 442120435 1284518837 1732419552 -1405545753 -790646008 1982357991 2002666138 -1646105352 510964971 1481257604 -1918489620 -1576095835 -1471936250 -1882094340 -577048355
REM
CELL 1.54180   50.00000   50.00000   50.00000   90.00000   90.00000   90.00000
LATT -1
SFAC C  
C      1  0.4571240000000  0.5295880000000  0.4894940000000 1.0
C      1  0.5095840000000  0.5439020000000  0.4361450000000 1.0
C      1  0.5789870000000  0.4855670000000  0.4683930000000 1.0
C      1  0.5400550000000  0.5153750000000  0.5792640000000 1.0
C      1  0.4674990000000  0.5809170000000  0.4114500000000 1.0
C      1  0.5162810000000  0.4052000000000  0.5357700000000 1.0
C      1  0.5586840000000  0.4757400000000  0.4513630000000 1.0
C      1  0.4660230000000  0.5233120000000  0.5921610000000 1.0
C      1  0.4592030000000  0.5066450000000  0.4430720000000 1.0
C      1  0.5342940000000  0.5179130000000  0.4702950000000 1.0
C      1  0.5561190000000  0.5710140000000  0.5166840000000 1.0
C      1  0.5216440000000  0.5456840000000  0.4853070000000 1.0
C      1  0.4151790000000  0.5361160000000  0.5657040000000 1.0
C      1  0.4436650000000  0.5239580000000  0.5665510000000 1.0
C      1  0.4884440000000  0.5609470000000  0.4252630000000 1.0
C      1  0.4088480000000  0.5475770000000  0.5438730000000 1.0
C      1  0.5353840000000  0.4760230000000  0.5208420000000 1.0
C      1  0.4732150000000  0.5000440000000  0.5577790000000 1.0
C      1  0.5323110000000  0.5943500000000  0.5100060000000 1.0
C      1  0.5824890000000  0.5084770000000  0.5599870000000 1.0
C      1  0.5175880000000  0.4328250000000  0.5357010000000 1.0
C      1  0.5444880000000  0.5118500000000  0.4195950000000 1.0
C      1  0.4233380000000  0.4734370000000  0.5545990000000 1.0
C      1  0.4449200000000  0.4911870000000  0.5713130000000 1.0
C      1  0.4508100000000  0.4553140000000  0.4734570000000 1.0
C      1  0.5173040000000  0.5038140000000  0.5915870000000 1.0
C      1  0.5289050000000  0.4883110000000  0.4549460000000 1.0
C      1  0.5025040000000  0.5190540000000  0.4582500000000 1.0
C      1  0.4043460000000  0.4671510000000  0.4661200000000 1.0
C      1  0.5212660000000  0.4885100000000  0.4110030000000 1.0
C      1  0.4610490000000  0.4249390000000  0.4648100000000 1.0
C      1  0.5212320000000  0.5282830000000  0.4129050000000 1.0
C      1  0.6020000000000  0.5511100000000  0.5105890000000 1.0
C      1  0.5193180000000  0.4348360000000  0.4379770000000 1.0
C      1  0.5551880000000  0.5626730000000  0.4556540000000 1.0
C      1  0.4560090000000  0.5319410000000  0.5358840000000 1.0
C      1  0.4939860000000  0.4900560000000  0.5022740000000 1.0
C      1  0.4592270000000  0.5058590000000  0.5137680000000 1.0
C      1  0.4389570000000  0.4297060000000  0.4907660000000 1.0
C      1  0.5814660000000  0.4686500000000  0.4978680000000 1.0
C      1  0.5595110000000  0.4571040000000  0.5214390000000 1.0
C      1  0.5135320000000  0.5469000000000  0.5393490000000 1.0
C      1  0.5010500000000  0.5126000000000  0.3976510000000 1.0
C      1  0.4747320000000  0.5224170000000  0.3968760000000 1.0
C      1  0.5413600000000  0.4449840000000  0.5449160000000 1.0
C      1  0.3802990000000  0.4564740000000  0.4559540000000 1.0
C      1  0.4852820000000  0.4895630000000  0.4562360000000 1.0
C      1  0.4930680000000  0.5182840000000  0.5869940000000 1.0
C      1  0.4730340000000  0.5505120000000  0.3997440000000 1.0
C      1  0.5336410000000  0.4644960000000  0.4311350000000 1.0
C      1  0.4714350000000  0.5809280000000  0.5360560000000 1.0
C      1  0.5206640000000  0.4174440000000  0.4919290000000 1.0
C      1  0.5356350000000  0.4397660000000  0.4624270000000 1.0
C      1  0.4327040000000  0.5546120000000  0.5251540000000 1.0
C      1  0.4866690000000  0.4590830000000  0.5824990000000 1.0
C      1  0.4143140000000  0.4523990000000  0.4950900000000 1.0
C      1  0.4712470000000  0.5258570000000  0.4654870000000 1.0
C      1  0.5678210000000  0.5121540000000  0.5826120000000 1.0
C      1  0.6061100000000  0.5240240000000  0.5143330000000 1.0
C      1  0.5558120000000  0.5119300000000  0.4965550000000 1.0
C      1  0.5404500000000  0.5663930000000  0.5465570000000 1.0
C      1  0.5401640000000  0.4553220000000  0.5700300000000 1.0
C      1  0.5235940000000  0.5621690000000  0.5106790000000 1.0
C      1  0.4410220000000  0.4382130000000  0.5210740000000 1.0
C      1  0.5181370000000  0.5228460000000  0.5064780000000 1.0
C      1  0.5332120000000  0.5209070000000  0.5490210000000 1.0
C      1  0.4116120000000  0.4901140000000  0.4439110000000 1.0
C      1  0.5493010000000  0.4233360000000  0.4829530000000 1.0
C      1  0.5961980000000  0.5053630000000  0.5369530000000 1.0
C      1  0.5192940000000  0.4900760000000  0.5525080000000 1.0
C      1  0.5847550000000  0.4993030000000  0.5054620000000 1.0
C      1  0.4339920000000  0.4809940000000  0.4755860000000 1.0
C      1  0.5291690000000  0.5552720000000  0.4570340000000 1.0
C      1  0.4690490000000  0.4305910000000  0.5341680000000 1.0
C      1  0.5278560000000  0.4638390000000  0.4737150000000 1.0
C      1  0.4960900000000  0.4776720000000  0.4272790000000 1.0
C      1  0.4313570000000  0.4993010000000  0.4296900000000 1.0
C      1  0.5005160000000  0.4418710000000  0.4930070000000 1.0
C      1  0.3987210000000  0.4806270000000  0.5029000000000 1.0
C      1  0.4370650000000  0.5470400000000  0.4950240000000 1.0
C      1  0.5256900000000  0.6186730000000  0.5077600000000 1.0
C      1  0.5155960000000  0.4695600000000  0.5003900000000 1.0
C      1  0.4481350000000  0.4420540000000  0.5548530000000 1.0
C      1  0.5406770000000  0.5049940000000  0.5222350000000 1.0
C      1  0.4881010000000  0.4328360000000  0.4468680000000 1.0
C      1  0.4444340000000  0.5829510000000  0.5310230000000 1.0
C      1  0.4864250000000  0.4524040000000  0.4215800000000 1.0
C      1  0.5014240000000  0.5071580000000  0.5291610000000 1.0
C      1  0.4654420000000  0.4909580000000  0.4838240000000 1.0
C      1  0.4807870000000  0.5553280000000  0.5356810000000 1.0
C      1  0.4302490000000  0.4901870000000  0.5073380000000 1.0
C      1  0.5745540000000  0.5191840000000  0.4711260000000 1.0
C      1  0.5165110000000  0.4735510000000  0.5823410000000 1.0
C      1  0.4575050000000  0.4608670000000  0.5726930000000 1.0
C      1  0.4916240000000  0.4476380000000  0.5237120000000 1.0
C      1  0.4941340000000  0.5248840000000  0.5565420000000 1.0
C      1  0.4251350000000  0.4655130000000  0.5276570000000 1.0
C      1  0.4549630000000  0.5083820000000  0.4103670000000 1.0
C      1  0.5781540000000  0.5605160000000  0.4992030000000 1.0
C      1  0.4751730000000  0.4774260000000  0.5251390000000 1.0
C      1  0.4827790000000  0.4581100000000  0.4689830000000 1.0
C      1  0.5559080000000  0.5158250000000  0.4441180000000 1.0
C      1  0.5735220000000  0.5505400000000  0.4734400000000 1.0
C      1  0.5459820000000  0.5783190000000  0.5689340000000 1.0
C      1  0.4896020000000  0.4745200000000  0.5531820000000 1.0
C      1  0.5690830000000  0.4369900000000  0.4969200000000 1.0
END
