TITL C-2847947-6848-155 6.59555520259337e-05 125000 -337.656132825041 0 0 64 (C1) n - 1
REM
REM in /home/bkarasulu/work/CARBON/AIRSS/Generating-Clusters/AIREBO/with-SteepDescent/Only-C1/SD-CG-opt/Try1-1.4A-POS3A/HFTN-CG
REM
REM
REM
REM
REM
REM ./C.cell (11c1c37f851c82e70ff6c80c92926a4b)
REM
REM compiler GCC version 9.2.1 20190827 (Red Hat 9.2.1-1)
REM options -cpp -mtune=generic -march=x86-64 -g -O0 -fpre-include=/usr/include/finclude/math-vector-fortran.h
REM seed -36320313 1516805594 233835224 -730602402 355067332 -1336518669 -1963825135 2008099463 -938631500 -598282529 -1849522951 1946767871 1125254772 -1048191434 -2012671191 45797456 -977545900 179373430 -1774301336 -74728919 -657456358 -458857078 -36867587 1751710335 964811601 -219628177 1277114459 716355856 -1315066015 -690542810 -1204556324 189478832 -1406250367
REM
CELL 1.54180   50.00000   50.00000   50.00000   90.00000   90.00000   90.00000
LATT -1
SFAC C  
C      1  0.4863080000000  0.4649070000000  0.5714890000000 1.0
C      1  0.5832400000000  0.5325700000000  0.4889030000000 1.0
C      1  0.5000010000000  0.4530900000000  0.5464440000000 1.0
C      1  0.5654300000000  0.5207170000000  0.4624430000000 1.0
C      1  0.5419120000000  0.5074370000000  0.5055320000000 1.0
C      1  0.4248550000000  0.4613980000000  0.4797140000000 1.0
C      1  0.5188050000000  0.5701930000000  0.4995270000000 1.0
C      1  0.5732980000000  0.4674240000000  0.4724290000000 1.0
C      1  0.4317270000000  0.5096700000000  0.5053080000000 1.0
C      1  0.5656330000000  0.4971740000000  0.4831070000000 1.0
C      1  0.5157020000000  0.4762990000000  0.5301730000000 1.0
C      1  0.4395590000000  0.4488070000000  0.4993650000000 1.0
C      1  0.5013470000000  0.5096660000000  0.4749690000000 1.0
C      1  0.5007590000000  0.4932120000000  0.5047260000000 1.0
C      1  0.4705450000000  0.4789270000000  0.5046610000000 1.0
C      1  0.4009390000000  0.5069870000000  0.4645100000000 1.0
C      1  0.4664450000000  0.4883830000000  0.5633330000000 1.0
C      1  0.5080820000000  0.5225860000000  0.5575260000000 1.0
C      1  0.4576560000000  0.4785220000000  0.4494570000000 1.0
C      1  0.4799690000000  0.5628300000000  0.5569530000000 1.0
C      1  0.5691120000000  0.4961950000000  0.5225800000000 1.0
C      1  0.5167530000000  0.4135720000000  0.5146470000000 1.0
C      1  0.5593150000000  0.4818270000000  0.4287650000000 1.0
C      1  0.4209730000000  0.4951830000000  0.4789940000000 1.0
C      1  0.5150380000000  0.5375170000000  0.4681980000000 1.0
C      1  0.5351890000000  0.5393290000000  0.4445460000000 1.0
C      1  0.5310520000000  0.4576430000000  0.4574250000000 1.0
C      1  0.4935880000000  0.5642110000000  0.4888490000000 1.0
C      1  0.5587870000000  0.4703430000000  0.5030390000000 1.0
C      1  0.4598970000000  0.5603420000000  0.4684700000000 1.0
C      1  0.5411210000000  0.5637740000000  0.4828700000000 1.0
C      1  0.5241620000000  0.4373030000000  0.5326810000000 1.0
C      1  0.4636390000000  0.5570910000000  0.4981750000000 1.0
C      1  0.4786500000000  0.4616620000000  0.4486510000000 1.0
C      1  0.4504380000000  0.5163500000000  0.5738760000000 1.0
C      1  0.4275050000000  0.4917850000000  0.5272720000000 1.0
C      1  0.5415980000000  0.4827110000000  0.5369090000000 1.0
C      1  0.5248030000000  0.5181810000000  0.5295270000000 1.0
C      1  0.5570820000000  0.4623590000000  0.4498940000000 1.0
C      1  0.5736320000000  0.5291790000000  0.5153720000000 1.0
C      1  0.4948710000000  0.5289400000000  0.4349920000000 1.0
C      1  0.5374960000000  0.4512290000000  0.5081270000000 1.0
C      1  0.4734590000000  0.4461440000000  0.4989590000000 1.0
C      1  0.5017960000000  0.5490940000000  0.5395390000000 1.0
C      1  0.4717440000000  0.5127010000000  0.4834620000000 1.0
C      1  0.4779080000000  0.4361930000000  0.5304460000000 1.0
C      1  0.4897560000000  0.5095160000000  0.5720150000000 1.0
C      1  0.4547510000000  0.5221800000000  0.5421310000000 1.0
C      1  0.4572200000000  0.4817960000000  0.5358700000000 1.0
C      1  0.5253770000000  0.5605200000000  0.5253750000000 1.0
C      1  0.4526820000000  0.4898690000000  0.4776080000000 1.0
C      1  0.4587610000000  0.5456580000000  0.5628280000000 1.0
C      1  0.4752720000000  0.4401260000000  0.4655390000000 1.0
C      1  0.4603410000000  0.5274870000000  0.5101150000000 1.0
C      1  0.5491420000000  0.5414720000000  0.5249190000000 1.0
C      1  0.5135690000000  0.5058800000000  0.4434630000000 1.0
C      1  0.4924060000000  0.5223340000000  0.5202080000000 1.0
C      1  0.5047850000000  0.4759140000000  0.4517210000000 1.0
C      1  0.5470520000000  0.5088340000000  0.4375200000000 1.0
C      1  0.5070010000000  0.4409000000000  0.4969200000000 1.0
C      1  0.5438360000000  0.5310850000000  0.4826910000000 1.0
C      1  0.5121610000000  0.4694460000000  0.4832290000000 1.0
C      1  0.4337270000000  0.4601380000000  0.5248600000000 1.0
C      1  0.4903410000000  0.5551880000000  0.4561570000000 1.0
END
