TITL C-2847948-6138-446 -0.00107999715449062 125000 -355.499547413778 0 0 64 (C1) n - 1
REM
REM in /home/bkarasulu/work/CARBON/AIRSS/Generating-Clusters/AIREBO/with-SteepDescent/Only-C1/SD-CG-opt/Try1-1.4A-POS3A/HFTN-CG
REM
REM
REM
REM
REM
REM ./C.cell (11c1c37f851c82e70ff6c80c92926a4b)
REM
REM compiler GCC version 9.2.1 20190827 (Red Hat 9.2.1-1)
REM options -cpp -mtune=generic -march=x86-64 -g -O0 -fpre-include=/usr/include/finclude/math-vector-fortran.h
REM seed 2047262392 1195605882 625772265 -252507019 859035849 -1813468171 2091922794 661541502 -1927770104 -1137723685 -1496054395 861387514 -2098582021 1640801807 1137133372 -1083451556 1891396214 150703069 427727938 -923895495 137511966 1652111726 738231926 -499004554 2043280563 367707847 -549133277 -1224757729 -535255004 796384989 1247321001 2026583951 -931873220
REM
CELL 1.54180   50.00000   50.00000   50.00000   90.00000   90.00000   90.00000
LATT -1
SFAC C  
C      1  0.5631750000000  0.5421270000000  0.4947420000000 1.0
C      1  0.5389360000000  0.5423840000000  0.5404540000000 1.0
C      1  0.4973410000000  0.4470800000000  0.5416580000000 1.0
C      1  0.5595900000000  0.4803050000000  0.4579370000000 1.0
C      1  0.5546500000000  0.5088830000000  0.4743120000000 1.0
C      1  0.4989750000000  0.4321390000000  0.4500970000000 1.0
C      1  0.5353350000000  0.4723910000000  0.5689340000000 1.0
C      1  0.4536120000000  0.5391990000000  0.4438230000000 1.0
C      1  0.4809440000000  0.5791940000000  0.4868900000000 1.0
C      1  0.4718240000000  0.5207040000000  0.4805480000000 1.0
C      1  0.5720190000000  0.4435290000000  0.5314920000000 1.0
C      1  0.5184860000000  0.4384470000000  0.4925390000000 1.0
C      1  0.4307880000000  0.5470750000000  0.4614460000000 1.0
C      1  0.5219720000000  0.5544940000000  0.5219520000000 1.0
C      1  0.5066410000000  0.4759020000000  0.5510770000000 1.0
C      1  0.5257040000000  0.4778060000000  0.5162840000000 1.0
C      1  0.5161630000000  0.4468990000000  0.4342350000000 1.0
C      1  0.4210680000000  0.5250050000000  0.4809730000000 1.0
C      1  0.4692650000000  0.4436610000000  0.5415480000000 1.0
C      1  0.5302660000000  0.4741240000000  0.4406510000000 1.0
C      1  0.4540070000000  0.4783740000000  0.5291280000000 1.0
C      1  0.5073530000000  0.4969720000000  0.4982740000000 1.0
C      1  0.4898990000000  0.4983560000000  0.4623710000000 1.0
C      1  0.4833150000000  0.4928850000000  0.5361180000000 1.0
C      1  0.5711740000000  0.4600120000000  0.5065770000000 1.0
C      1  0.4735840000000  0.5676880000000  0.5116110000000 1.0
C      1  0.4612290000000  0.5221660000000  0.5517440000000 1.0
C      1  0.5075920000000  0.5256040000000  0.5660230000000 1.0
C      1  0.5623050000000  0.4590640000000  0.4807140000000 1.0
C      1  0.5556470000000  0.4807230000000  0.5241310000000 1.0
C      1  0.5266490000000  0.5027110000000  0.5568760000000 1.0
C      1  0.4811210000000  0.4757800000000  0.4938650000000 1.0
C      1  0.5326800000000  0.5515870000000  0.4939870000000 1.0
C      1  0.5160290000000  0.4829150000000  0.4685520000000 1.0
C      1  0.4837160000000  0.5170830000000  0.5122200000000 1.0
C      1  0.4534020000000  0.4644720000000  0.5589530000000 1.0
C      1  0.4450650000000  0.5588650000000  0.5120770000000 1.0
C      1  0.5298700000000  0.5206230000000  0.4890490000000 1.0
C      1  0.5655890000000  0.5147170000000  0.5058400000000 1.0
C      1  0.5219800000000  0.5055200000000  0.4305120000000 1.0
C      1  0.5225540000000  0.5679500000000  0.4707770000000 1.0
C      1  0.4532360000000  0.5484670000000  0.4831540000000 1.0
C      1  0.4555970000000  0.4930970000000  0.4920240000000 1.0
C      1  0.5336090000000  0.4561200000000  0.4762050000000 1.0
C      1  0.4574270000000  0.4402480000000  0.5153080000000 1.0
C      1  0.4929440000000  0.5476470000000  0.5240730000000 1.0
C      1  0.5502880000000  0.5083850000000  0.4411670000000 1.0
C      1  0.5633860000000  0.4871450000000  0.5566170000000 1.0
C      1  0.4519230000000  0.5212400000000  0.5235730000000 1.0
C      1  0.5473330000000  0.5124380000000  0.5329950000000 1.0
C      1  0.4612110000000  0.4949170000000  0.5639750000000 1.0
C      1  0.4943980000000  0.4325020000000  0.4782850000000 1.0
C      1  0.4996630000000  0.5216720000000  0.4318900000000 1.0
C      1  0.4685370000000  0.5091020000000  0.4385660000000 1.0
C      1  0.4749990000000  0.4482360000000  0.4922060000000 1.0
C      1  0.4277470000000  0.5316010000000  0.5087500000000 1.0
C      1  0.5605710000000  0.4548220000000  0.5542030000000 1.0
C      1  0.4410240000000  0.4655470000000  0.5044470000000 1.0
C      1  0.4327370000000  0.5007530000000  0.4722030000000 1.0
C      1  0.5146990000000  0.4509610000000  0.5180610000000 1.0
C      1  0.4862560000000  0.5356760000000  0.5524420000000 1.0
C      1  0.4398140000000  0.4970480000000  0.4458870000000 1.0
C      1  0.4852190000000  0.5404420000000  0.4562940000000 1.0
C      1  0.4958670000000  0.5665190000000  0.4666830000000 1.0
END
