TITL C-2847952-8118-674 0.00392513768784835 125000 -744.831310934738 0 0 139 (C1) n - 1
REM
REM in /home/bkarasulu/work/CARBON/AIRSS/Generating-Clusters/AIREBO/with-SteepDescent/Only-C1/SD-CG-opt/Try1-1.4A-POS3A/HFTN-CG
REM
REM
REM
REM
REM
REM ./C.cell (11c1c37f851c82e70ff6c80c92926a4b)
REM
REM compiler GCC version 9.2.1 20190827 (Red Hat 9.2.1-1)
REM options -cpp -mtune=generic -march=x86-64 -g -O0 -fpre-include=/usr/include/finclude/math-vector-fortran.h
REM seed 711284291 -1651244924 -1725588162 -1683385009 -251271801 222018101 -2074424192 1736752970 -229776648 -1377862521 1411313820 208212897 1738520467 1339472708 510817420 -731570433 -393949853 -1742159444 2048763867 -1878770848 460721257 -855520787 351475522 630203155 1595009365 -36787383 1643334479 -1638227784 1667373215 1412586022 1251746328 2072511581 556773801
REM
CELL 1.54180   50.00000   50.00000   50.00000   90.00000   90.00000   90.00000
LATT -1
SFAC C  
C      1  0.5227510000000  0.5841620000000  0.4876030000000 1.0
C      1  0.5953510000000  0.4947740000000  0.4176960000000 1.0
C      1  0.4777550000000  0.5213120000000  0.4850570000000 1.0
C      1  0.4098470000000  0.4445810000000  0.4643300000000 1.0
C      1  0.5311690000000  0.4566550000000  0.4642520000000 1.0
C      1  0.4735820000000  0.5649920000000  0.4693440000000 1.0
C      1  0.5028490000000  0.5749130000000  0.4632970000000 1.0
C      1  0.4849510000000  0.5275210000000  0.5944200000000 1.0
C      1  0.5729360000000  0.5598760000000  0.4554800000000 1.0
C      1  0.4459720000000  0.5567340000000  0.5133290000000 1.0
C      1  0.4210570000000  0.5721160000000  0.5440860000000 1.0
C      1  0.5713900000000  0.4295250000000  0.5247670000000 1.0
C      1  0.4571750000000  0.3997590000000  0.4945300000000 1.0
C      1  0.4926340000000  0.6104570000000  0.5154610000000 1.0
C      1  0.4974300000000  0.5472710000000  0.5690470000000 1.0
C      1  0.4182430000000  0.4788910000000  0.5473430000000 1.0
C      1  0.4102500000000  0.4469460000000  0.4932210000000 1.0
C      1  0.4681560000000  0.5553300000000  0.5948780000000 1.0
C      1  0.4302110000000  0.4381460000000  0.5152620000000 1.0
C      1  0.5349120000000  0.5487860000000  0.5221960000000 1.0
C      1  0.4136060000000  0.4944850000000  0.4909330000000 1.0
C      1  0.5533720000000  0.5768800000000  0.5004690000000 1.0
C      1  0.4064070000000  0.4700800000000  0.4499970000000 1.0
C      1  0.4795210000000  0.4565980000000  0.5351640000000 1.0
C      1  0.4528060000000  0.4885000000000  0.3976420000000 1.0
C      1  0.4869950000000  0.5190770000000  0.4120140000000 1.0
C      1  0.4240900000000  0.5549320000000  0.4652110000000 1.0
C      1  0.5271440000000  0.4743010000000  0.5420910000000 1.0
C      1  0.4587430000000  0.4820540000000  0.5115860000000 1.0
C      1  0.5012060000000  0.4304820000000  0.5558890000000 1.0
C      1  0.5752710000000  0.5391370000000  0.5744110000000 1.0
C      1  0.5718090000000  0.4548330000000  0.5555660000000 1.0
C      1  0.4702310000000  0.5117500000000  0.4471310000000 1.0
C      1  0.5381040000000  0.5044340000000  0.4019360000000 1.0
C      1  0.5370920000000  0.6012730000000  0.5275020000000 1.0
C      1  0.4559530000000  0.5133880000000  0.5099430000000 1.0
C      1  0.4854580000000  0.4868340000000  0.4069760000000 1.0
C      1  0.4952160000000  0.4244040000000  0.4525480000000 1.0
C      1  0.4871410000000  0.5805810000000  0.5273910000000 1.0
C      1  0.4199750000000  0.5370630000000  0.5745000000000 1.0
C      1  0.5460060000000  0.4165600000000  0.4726470000000 1.0
C      1  0.4278730000000  0.4283280000000  0.4498900000000 1.0
C      1  0.4366580000000  0.5523390000000  0.5576160000000 1.0
C      1  0.5935690000000  0.4527560000000  0.5166290000000 1.0
C      1  0.4710190000000  0.4676050000000  0.4828570000000 1.0
C      1  0.4508150000000  0.5579260000000  0.4271530000000 1.0
C      1  0.5249910000000  0.5181020000000  0.4850780000000 1.0
C      1  0.4896370000000  0.5376540000000  0.4575460000000 1.0
C      1  0.4908500000000  0.4465900000000  0.5761510000000 1.0
C      1  0.5006610000000  0.5119630000000  0.5224750000000 1.0
C      1  0.5716350000000  0.4312010000000  0.4740990000000 1.0
C      1  0.5738650000000  0.4958820000000  0.5551680000000 1.0
C      1  0.5077440000000  0.4688550000000  0.5955160000000 1.0
C      1  0.5435550000000  0.4367710000000  0.5209260000000 1.0
C      1  0.5553640000000  0.5063330000000  0.4817370000000 1.0
C      1  0.5115170000000  0.6111290000000  0.4983800000000 1.0
C      1  0.5366030000000  0.5230740000000  0.4471770000000 1.0
C      1  0.4473370000000  0.5663820000000  0.4534050000000 1.0
C      1  0.5908670000000  0.5161890000000  0.4972800000000 1.0
C      1  0.4845260000000  0.4938430000000  0.5980000000000 1.0
C      1  0.4366500000000  0.5049380000000  0.4131890000000 1.0
C      1  0.5869790000000  0.4684970000000  0.4871720000000 1.0
C      1  0.5018330000000  0.5007570000000  0.4725560000000 1.0
C      1  0.5818630000000  0.4952430000000  0.4393080000000 1.0
C      1  0.5811890000000  0.4901650000000  0.5098660000000 1.0
C      1  0.5257110000000  0.4569550000000  0.4060610000000 1.0
C      1  0.5221590000000  0.5504730000000  0.4922390000000 1.0
C      1  0.5849450000000  0.4975040000000  0.4708410000000 1.0
C      1  0.4877710000000  0.4427200000000  0.4790870000000 1.0
C      1  0.4215130000000  0.5267620000000  0.4535910000000 1.0
C      1  0.4512490000000  0.4941270000000  0.5770420000000 1.0
C      1  0.4928980000000  0.4678870000000  0.4303410000000 1.0
C      1  0.5725980000000  0.5615780000000  0.4864820000000 1.0
C      1  0.5543930000000  0.5243710000000  0.5527290000000 1.0
C      1  0.4534770000000  0.4157790000000  0.5169140000000 1.0
C      1  0.4483070000000  0.4420280000000  0.4375990000000 1.0
C      1  0.5590810000000  0.5777280000000  0.5339880000000 1.0
C      1  0.5971290000000  0.4728240000000  0.5438880000000 1.0
C      1  0.5359290000000  0.5309470000000  0.4082480000000 1.0
C      1  0.4682710000000  0.5114980000000  0.5590210000000 1.0
C      1  0.4715830000000  0.4712460000000  0.3797990000000 1.0
C      1  0.4001100000000  0.4729450000000  0.5003350000000 1.0
C      1  0.5435560000000  0.4659180000000  0.5034360000000 1.0
C      1  0.5080270000000  0.4380080000000  0.4244620000000 1.0
C      1  0.4567110000000  0.5278570000000  0.4211900000000 1.0
C      1  0.5485480000000  0.4491410000000  0.5709650000000 1.0
C      1  0.4484490000000  0.5237530000000  0.4679830000000 1.0
C      1  0.4278430000000  0.4891490000000  0.4647870000000 1.0
C      1  0.5166060000000  0.4477290000000  0.4934820000000 1.0
C      1  0.4155990000000  0.4998800000000  0.4356880000000 1.0
C      1  0.5295490000000  0.4171870000000  0.4998580000000 1.0
C      1  0.5506980000000  0.4948990000000  0.5794670000000 1.0
C      1  0.4668300000000  0.4673620000000  0.5860470000000 1.0
C      1  0.5296470000000  0.4819580000000  0.4165220000000 1.0
C      1  0.4816920000000  0.4243470000000  0.5297500000000 1.0
C      1  0.4556920000000  0.4552270000000  0.5575210000000 1.0
C      1  0.5930440000000  0.4295690000000  0.4916740000000 1.0
C      1  0.5595220000000  0.4757970000000  0.5317830000000 1.0
C      1  0.4216150000000  0.5514410000000  0.4947650000000 1.0
C      1  0.5617390000000  0.4621130000000  0.4665390000000 1.0
C      1  0.5284920000000  0.4408840000000  0.5483190000000 1.0
C      1  0.4251080000000  0.4914940000000  0.5706120000000 1.0
C      1  0.5676190000000  0.5423870000000  0.5270990000000 1.0
C      1  0.5216720000000  0.5614980000000  0.5728820000000 1.0
C      1  0.5376640000000  0.4974370000000  0.5064880000000 1.0
C      1  0.5390130000000  0.4705710000000  0.5861740000000 1.0
C      1  0.4931420000000  0.5416040000000  0.5076030000000 1.0
C      1  0.5438310000000  0.5744150000000  0.4390850000000 1.0
C      1  0.4864120000000  0.5493000000000  0.5403980000000 1.0
C      1  0.5158960000000  0.3842730000000  0.5136260000000 1.0
C      1  0.4565970000000  0.5344090000000  0.5366780000000 1.0
C      1  0.5098080000000  0.5354150000000  0.4302570000000 1.0
C      1  0.5147240000000  0.5677860000000  0.4388900000000 1.0
C      1  0.5501740000000  0.4922610000000  0.4519240000000 1.0
C      1  0.4844140000000  0.4897110000000  0.5412400000000 1.0
C      1  0.4977640000000  0.4099670000000  0.5061940000000 1.0
C      1  0.5057500000000  0.4652070000000  0.5183200000000 1.0
C      1  0.5411190000000  0.5514530000000  0.4640280000000 1.0
C      1  0.4819700000000  0.4089780000000  0.4776420000000 1.0
C      1  0.4908650000000  0.4876090000000  0.5018940000000 1.0
C      1  0.4708470000000  0.5863980000000  0.5566630000000 1.0
C      1  0.4572350000000  0.4854700000000  0.4604810000000 1.0
C      1  0.3981820000000  0.5378860000000  0.5145410000000 1.0
C      1  0.5272870000000  0.4283160000000  0.4500380000000 1.0
C      1  0.4354130000000  0.4324020000000  0.5484210000000 1.0
C      1  0.5327370000000  0.5188000000000  0.5783500000000 1.0
C      1  0.5815540000000  0.5407360000000  0.5025500000000 1.0
C      1  0.5013820000000  0.5139020000000  0.5679460000000 1.0
C      1  0.5426230000000  0.5562290000000  0.5545690000000 1.0
C      1  0.4412900000000  0.4661930000000  0.5287370000000 1.0
C      1  0.5307460000000  0.5073960000000  0.5350740000000 1.0
C      1  0.5196480000000  0.5770050000000  0.5281110000000 1.0
C      1  0.5586670000000  0.5422080000000  0.4297620000000 1.0
C      1  0.4587090000000  0.5675490000000  0.5724680000000 1.0
C      1  0.4247020000000  0.5188630000000  0.5039950000000 1.0
C      1  0.5059700000000  0.4821140000000  0.5661340000000 1.0
C      1  0.5178150000000  0.4823680000000  0.4484120000000 1.0
C      1  0.4665320000000  0.4608650000000  0.4436880000000 1.0
C      1  0.4717720000000  0.5670140000000  0.5002630000000 1.0
END
