TITL C-2847956-8218-622 -0.00192826362965518 125000 -514.06167537839 0 0 99 (C1) n - 1
REM
REM in /home/bkarasulu/work/CARBON/AIRSS/Generating-Clusters/AIREBO/with-SteepDescent/Only-C1/SD-CG-opt/Try1-1.4A-POS3A/HFTN-CG
REM
REM
REM
REM
REM
REM ./C.cell (11c1c37f851c82e70ff6c80c92926a4b)
REM
REM compiler GCC version 9.2.1 20190827 (Red Hat 9.2.1-1)
REM options -cpp -mtune=generic -march=x86-64 -g -O0 -fpre-include=/usr/include/finclude/math-vector-fortran.h
REM seed 1928087408 2110347371 186651496 982090913 -1358957648 142639785 1467576518 1839285455 -1660369514 -2061559485 -2054385710 -1771223182 2039027462 873615537 -1843333244 1338399886 -1755088999 -903855491 -1846873638 -1023886813 437574002 -2032555685 1907569099 -778376290 1124516070 1383030166 -1686284148 672244271 -161555000 -1476951546 1910966693 -1503803800 1591330840
REM
CELL 1.54180   50.00000   50.00000   50.00000   90.00000   90.00000   90.00000
LATT -1
SFAC C  
C      1  0.5309270000000  0.4432090000000  0.4607400000000 1.0
C      1  0.5325040000000  0.4505010000000  0.5171140000000 1.0
C      1  0.5582060000000  0.4868370000000  0.5590750000000 1.0
C      1  0.5090380000000  0.5206540000000  0.4714690000000 1.0
C      1  0.4623140000000  0.5241370000000  0.5250130000000 1.0
C      1  0.5394130000000  0.5145890000000  0.5236830000000 1.0
C      1  0.5201460000000  0.5787960000000  0.5697710000000 1.0
C      1  0.4893630000000  0.4458890000000  0.5091820000000 1.0
C      1  0.5081020000000  0.4194750000000  0.4614590000000 1.0
C      1  0.4465350000000  0.5188590000000  0.4172710000000 1.0
C      1  0.5366450000000  0.5521550000000  0.4767320000000 1.0
C      1  0.4548770000000  0.4581380000000  0.4250050000000 1.0
C      1  0.4424390000000  0.5342320000000  0.4387950000000 1.0
C      1  0.5724410000000  0.5423880000000  0.4982310000000 1.0
C      1  0.5409170000000  0.5819020000000  0.5135130000000 1.0
C      1  0.4514130000000  0.5442030000000  0.5611390000000 1.0
C      1  0.4785860000000  0.5483690000000  0.5633870000000 1.0
C      1  0.4845840000000  0.5871820000000  0.4466320000000 1.0
C      1  0.4299830000000  0.5241870000000  0.5572570000000 1.0
C      1  0.5554410000000  0.5097670000000  0.4433760000000 1.0
C      1  0.4510180000000  0.4499710000000  0.4879200000000 1.0
C      1  0.5432840000000  0.5252180000000  0.4948910000000 1.0
C      1  0.4596920000000  0.5799090000000  0.4565910000000 1.0
C      1  0.4640720000000  0.4764120000000  0.5052000000000 1.0
C      1  0.4876240000000  0.5306790000000  0.4947370000000 1.0
C      1  0.5125560000000  0.5113790000000  0.4174930000000 1.0
C      1  0.4941370000000  0.4730060000000  0.5451410000000 1.0
C      1  0.5043100000000  0.4861720000000  0.4345340000000 1.0
C      1  0.5619790000000  0.4992240000000  0.5357420000000 1.0
C      1  0.5301560000000  0.4300260000000  0.5475800000000 1.0
C      1  0.4313080000000  0.5751580000000  0.4657840000000 1.0
C      1  0.5093920000000  0.5071430000000  0.5309580000000 1.0
C      1  0.5041900000000  0.5692020000000  0.4402540000000 1.0
C      1  0.4356220000000  0.4758960000000  0.4750500000000 1.0
C      1  0.4735490000000  0.5001640000000  0.5469800000000 1.0
C      1  0.5374100000000  0.4839400000000  0.4322690000000 1.0
C      1  0.4744250000000  0.4501070000000  0.5371940000000 1.0
C      1  0.5249140000000  0.4114640000000  0.5195770000000 1.0
C      1  0.5605200000000  0.4282220000000  0.5375130000000 1.0
C      1  0.4840400000000  0.4701510000000  0.4212490000000 1.0
C      1  0.5313060000000  0.3844500000000  0.5216240000000 1.0
C      1  0.5192520000000  0.5451880000000  0.4522780000000 1.0
C      1  0.4302770000000  0.5127510000000  0.5252350000000 1.0
C      1  0.5340710000000  0.4671080000000  0.4811200000000 1.0
C      1  0.5353240000000  0.4992870000000  0.4762600000000 1.0
C      1  0.5880050000000  0.5003380000000  0.5188930000000 1.0
C      1  0.5033680000000  0.5077830000000  0.5883210000000 1.0
C      1  0.4189050000000  0.5432420000000  0.5153750000000 1.0
C      1  0.4983590000000  0.4905370000000  0.4637470000000 1.0
C      1  0.5168660000000  0.4759830000000  0.5224880000000 1.0
C      1  0.4569750000000  0.5083490000000  0.4656110000000 1.0
C      1  0.5709970000000  0.5294990000000  0.4667850000000 1.0
C      1  0.5003550000000  0.5172880000000  0.3938420000000 1.0
C      1  0.5394160000000  0.4721020000000  0.5715170000000 1.0
C      1  0.5967020000000  0.5291630000000  0.5138020000000 1.0
C      1  0.4427740000000  0.5530600000000  0.5327130000000 1.0
C      1  0.5316030000000  0.5263180000000  0.4316900000000 1.0
C      1  0.5829240000000  0.4674290000000  0.5191690000000 1.0
C      1  0.4283670000000  0.5036320000000  0.4925340000000 1.0
C      1  0.4595240000000  0.5471280000000  0.4640920000000 1.0
C      1  0.5869460000000  0.4846760000000  0.4900950000000 1.0
C      1  0.4777750000000  0.5624270000000  0.4875700000000 1.0
C      1  0.4537240000000  0.5289800000000  0.4924540000000 1.0
C      1  0.5125400000000  0.4426990000000  0.4159540000000 1.0
C      1  0.5310030000000  0.4542620000000  0.4327190000000 1.0
C      1  0.4547890000000  0.5803010000000  0.5255900000000 1.0
C      1  0.4477960000000  0.4842820000000  0.5314590000000 1.0
C      1  0.5304970000000  0.5584500000000  0.5848500000000 1.0
C      1  0.5228730000000  0.5304320000000  0.5724220000000 1.0
C      1  0.4612720000000  0.4278010000000  0.4690030000000 1.0
C      1  0.5043220000000  0.5452050000000  0.5198140000000 1.0
C      1  0.5329970000000  0.4284460000000  0.4912370000000 1.0
C      1  0.4324170000000  0.4656900000000  0.4384290000000 1.0
C      1  0.5688320000000  0.4966580000000  0.4711070000000 1.0
C      1  0.4971590000000  0.4198270000000  0.5060820000000 1.0
C      1  0.4528780000000  0.4435420000000  0.5629450000000 1.0
C      1  0.5150500000000  0.4536340000000  0.5637480000000 1.0
C      1  0.4358960000000  0.4582130000000  0.5427760000000 1.0
C      1  0.4718870000000  0.5821050000000  0.5043980000000 1.0
C      1  0.4814830000000  0.4371080000000  0.4261480000000 1.0
C      1  0.4059270000000  0.4808290000000  0.4906660000000 1.0
C      1  0.5375420000000  0.5779990000000  0.4856820000000 1.0
C      1  0.5612290000000  0.4242310000000  0.5088890000000 1.0
C      1  0.5012120000000  0.4433660000000  0.5863360000000 1.0
C      1  0.4689740000000  0.4820910000000  0.4726580000000 1.0
C      1  0.4475580000000  0.4424050000000  0.5178290000000 1.0
C      1  0.4959920000000  0.5249780000000  0.5531100000000 1.0
C      1  0.5544290000000  0.5565860000000  0.5224790000000 1.0
C      1  0.5306100000000  0.5408590000000  0.5409620000000 1.0
C      1  0.5186600000000  0.5724240000000  0.5363950000000 1.0
C      1  0.4882230000000  0.4994180000000  0.5074460000000 1.0
C      1  0.4905660000000  0.5730130000000  0.5585110000000 1.0
C      1  0.4801420000000  0.5003960000000  0.5803480000000 1.0
C      1  0.5602030000000  0.4566510000000  0.4984640000000 1.0
C      1  0.5808540000000  0.4479430000000  0.5433250000000 1.0
C      1  0.4209360000000  0.5477790000000  0.4538970000000 1.0
C      1  0.4825390000000  0.4238840000000  0.4528470000000 1.0
C      1  0.5023720000000  0.4724020000000  0.4922360000000 1.0
C      1  0.4264590000000  0.5484560000000  0.4865250000000 1.0
END
