TITL C-2847955-7945-549 -0.000119912846963013 125000 -240.083506691175 0 0 45 (C1) n - 1
REM
REM in /home/bkarasulu/work/CARBON/AIRSS/Generating-Clusters/AIREBO/with-SteepDescent/Only-C1/SD-CG-opt/Try1-1.4A-POS3A/HFTN-CG
REM
REM
REM
REM
REM
REM ./C.cell (11c1c37f851c82e70ff6c80c92926a4b)
REM
REM compiler GCC version 9.2.1 20190827 (Red Hat 9.2.1-1)
REM options -cpp -mtune=generic -march=x86-64 -g -O0 -fpre-include=/usr/include/finclude/math-vector-fortran.h
REM seed -1665840577 -1634456036 -692293589 -1635460597 1745323677 629392228 1396020794 -1959345798 2123346417 1950160345 55673959 -1367577233 1579931328 1151995173 1063013059 2074087287 -760713670 766426661 -2064230816 -678261224 -1553348438 239290481 -373661569 -1085912305 811144412 1050943796 -1196576547 137698742 -869006054 2133743035 1767528223 1958436904 -784912211
REM
CELL 1.54180   50.00000   50.00000   50.00000   90.00000   90.00000   90.00000
LATT -1
SFAC C  
C      1  0.4414240000000  0.4521100000000  0.4951490000000 1.0
C      1  0.4663570000000  0.4975540000000  0.4737590000000 1.0
C      1  0.4885670000000  0.5155460000000  0.5148680000000 1.0
C      1  0.4907890000000  0.4503610000000  0.4715400000000 1.0
C      1  0.5087480000000  0.5443450000000  0.5329540000000 1.0
C      1  0.4773180000000  0.4720250000000  0.5435110000000 1.0
C      1  0.5193680000000  0.5168230000000  0.4587000000000 1.0
C      1  0.4643130000000  0.4684150000000  0.4759780000000 1.0
C      1  0.4487220000000  0.5428900000000  0.5178210000000 1.0
C      1  0.4491680000000  0.5185960000000  0.4942020000000 1.0
C      1  0.5057630000000  0.4653170000000  0.4523560000000 1.0
C      1  0.4624340000000  0.4960360000000  0.5529590000000 1.0
C      1  0.4753860000000  0.5827740000000  0.5359960000000 1.0
C      1  0.4810030000000  0.5424720000000  0.4954740000000 1.0
C      1  0.5604610000000  0.4946840000000  0.4738640000000 1.0
C      1  0.4862970000000  0.4973860000000  0.4244530000000 1.0
C      1  0.5645300000000  0.5149630000000  0.4948820000000 1.0
C      1  0.5336830000000  0.5053870000000  0.5472240000000 1.0
C      1  0.5197620000000  0.5266650000000  0.5071620000000 1.0
C      1  0.4957180000000  0.5705670000000  0.4887280000000 1.0
C      1  0.5473160000000  0.5043550000000  0.4505590000000 1.0
C      1  0.5631990000000  0.4800710000000  0.5235370000000 1.0
C      1  0.5491440000000  0.4722450000000  0.4860480000000 1.0
C      1  0.4711790000000  0.4587610000000  0.5065450000000 1.0
C      1  0.5571240000000  0.5058100000000  0.4251610000000 1.0
C      1  0.4803410000000  0.5164700000000  0.5466150000000 1.0
C      1  0.5072000000000  0.4421450000000  0.4928250000000 1.0
C      1  0.5410450000000  0.5014650000000  0.5154400000000 1.0
C      1  0.5274300000000  0.4799870000000  0.5577750000000 1.0
C      1  0.5355820000000  0.4448280000000  0.4889730000000 1.0
C      1  0.4926290000000  0.4836430000000  0.5153310000000 1.0
C      1  0.4961600000000  0.4442920000000  0.5219130000000 1.0
C      1  0.5232610000000  0.5313320000000  0.5531880000000 1.0
C      1  0.5164990000000  0.4860180000000  0.4681320000000 1.0
C      1  0.4785900000000  0.5568210000000  0.5262080000000 1.0
C      1  0.5195630000000  0.4791980000000  0.5013050000000 1.0
C      1  0.5244000000000  0.5373030000000  0.4796720000000 1.0
C      1  0.5095950000000  0.4642590000000  0.5459320000000 1.0
C      1  0.4667150000000  0.5312450000000  0.4685410000000 1.0
C      1  0.4802950000000  0.4391430000000  0.5516430000000 1.0
C      1  0.4881050000000  0.5119880000000  0.4517370000000 1.0
C      1  0.4978090000000  0.4722350000000  0.4261040000000 1.0
C      1  0.5200430000000  0.5639770000000  0.4773060000000 1.0
C      1  0.4357100000000  0.5012870000000  0.5456240000000 1.0
C      1  0.4312550000000  0.5162080000000  0.5223090000000 1.0
END
