TITL C-2847946-5639-656 -0.00198768592149434 125000 -870.259806839039 0 0 162 (C1) n - 1
REM
REM in /home/bkarasulu/work/CARBON/AIRSS/Generating-Clusters/AIREBO/with-SteepDescent/Only-C1/SD-CG-opt/Try1-1.4A-POS3A/HFTN-CG
REM
REM
REM
REM
REM
REM ./C.cell (11c1c37f851c82e70ff6c80c92926a4b)
REM
REM compiler GCC version 9.2.1 20190827 (Red Hat 9.2.1-1)
REM options -cpp -mtune=generic -march=x86-64 -g -O0 -fpre-include=/usr/include/finclude/math-vector-fortran.h
REM seed -1620757266 -489788192 2056886065 1828672466 -499117802 -655380278 231096214 688691059 1407723200 1764471324 -1526725868 -15560272 -518267991 1724518531 190813338 -593131468 1407697377 -1576944700 960224494 2106196919 1229497015 389548432 -1596813871 -1228250655 -2040782870 -406740431 658435464 -1101854820 199068514 1420968518 -225651083 23607376 -1206218900
REM
CELL 1.54180   50.00000   50.00000   50.00000   90.00000   90.00000   90.00000
LATT -1
SFAC C  
C      1  0.5153200000000  0.5222610000000  0.5411890000000 1.0
C      1  0.4440620000000  0.4784430000000  0.4727310000000 1.0
C      1  0.5375220000000  0.4578020000000  0.4736130000000 1.0
C      1  0.4627610000000  0.5752760000000  0.4744570000000 1.0
C      1  0.4465910000000  0.4507800000000  0.4899750000000 1.0
C      1  0.5112960000000  0.4291790000000  0.4240010000000 1.0
C      1  0.5482780000000  0.4950020000000  0.6067760000000 1.0
C      1  0.4871800000000  0.5774510000000  0.5595450000000 1.0
C      1  0.4992390000000  0.4561750000000  0.5614480000000 1.0
C      1  0.5448470000000  0.4725100000000  0.5815040000000 1.0
C      1  0.4952960000000  0.4665320000000  0.4857450000000 1.0
C      1  0.5274020000000  0.4051950000000  0.5487630000000 1.0
C      1  0.5524530000000  0.5669690000000  0.4448250000000 1.0
C      1  0.4993730000000  0.5025080000000  0.5909500000000 1.0
C      1  0.4424250000000  0.5564190000000  0.5558910000000 1.0
C      1  0.5006480000000  0.4984900000000  0.4548940000000 1.0
C      1  0.5503710000000  0.4473950000000  0.5592580000000 1.0
C      1  0.5053510000000  0.4722480000000  0.5355890000000 1.0
C      1  0.4983210000000  0.6144500000000  0.5076710000000 1.0
C      1  0.5944560000000  0.5335100000000  0.5297860000000 1.0
C      1  0.4996130000000  0.4254970000000  0.5689610000000 1.0
C      1  0.4457740000000  0.5274640000000  0.4118370000000 1.0
C      1  0.4371160000000  0.5832260000000  0.4908430000000 1.0
C      1  0.5335610000000  0.5862300000000  0.4406450000000 1.0
C      1  0.5318720000000  0.5120180000000  0.5877230000000 1.0
C      1  0.4538740000000  0.5495350000000  0.4571480000000 1.0
C      1  0.4456020000000  0.5011470000000  0.5054460000000 1.0
C      1  0.4669180000000  0.4944150000000  0.5971040000000 1.0
C      1  0.5552010000000  0.5776260000000  0.4830710000000 1.0
C      1  0.5751240000000  0.5077020000000  0.5701040000000 1.0
C      1  0.4533020000000  0.5010540000000  0.4088900000000 1.0
C      1  0.4120030000000  0.5553710000000  0.5396690000000 1.0
C      1  0.5145350000000  0.5295170000000  0.4536600000000 1.0
C      1  0.4317350000000  0.4243400000000  0.5364150000000 1.0
C      1  0.3945730000000  0.5046350000000  0.5408160000000 1.0
C      1  0.4522580000000  0.4601680000000  0.5206430000000 1.0
C      1  0.4234790000000  0.4714980000000  0.4398830000000 1.0
C      1  0.5240060000000  0.4692290000000  0.5004460000000 1.0
C      1  0.5055250000000  0.3882000000000  0.5369930000000 1.0
C      1  0.5327110000000  0.5319340000000  0.4058860000000 1.0
C      1  0.5334190000000  0.5098850000000  0.4745920000000 1.0
C      1  0.5775290000000  0.5040210000000  0.5299260000000 1.0
C      1  0.5832710000000  0.5421390000000  0.4406970000000 1.0
C      1  0.4903700000000  0.5658540000000  0.4569680000000 1.0
C      1  0.4192840000000  0.4955590000000  0.5508900000000 1.0
C      1  0.5817470000000  0.4536710000000  0.5198390000000 1.0
C      1  0.4589330000000  0.5251830000000  0.4748360000000 1.0
C      1  0.4367740000000  0.4457540000000  0.5546430000000 1.0
C      1  0.5661910000000  0.5100570000000  0.4800030000000 1.0
C      1  0.5150350000000  0.4511070000000  0.4070060000000 1.0
C      1  0.4387460000000  0.5273330000000  0.5731210000000 1.0
C      1  0.4909540000000  0.4531840000000  0.5152410000000 1.0
C      1  0.4425210000000  0.4287180000000  0.4569120000000 1.0
C      1  0.5045290000000  0.5468660000000  0.4811400000000 1.0
C      1  0.5313010000000  0.4839160000000  0.4527460000000 1.0
C      1  0.5545670000000  0.4162250000000  0.5078430000000 1.0
C      1  0.5436910000000  0.5373150000000  0.4376180000000 1.0
C      1  0.4230680000000  0.4684550000000  0.5463820000000 1.0
C      1  0.4919500000000  0.4697860000000  0.4088260000000 1.0
C      1  0.4363200000000  0.4252310000000  0.5100460000000 1.0
C      1  0.4549910000000  0.5828100000000  0.5396850000000 1.0
C      1  0.5782730000000  0.5619030000000  0.5265270000000 1.0
C      1  0.4879450000000  0.5403020000000  0.4351090000000 1.0
C      1  0.5663630000000  0.5404470000000  0.5478660000000 1.0
C      1  0.5368060000000  0.4602650000000  0.5306470000000 1.0
C      1  0.4868990000000  0.4090830000000  0.5491240000000 1.0
C      1  0.5166400000000  0.5538060000000  0.5538350000000 1.0
C      1  0.4188730000000  0.4640690000000  0.5154900000000 1.0
C      1  0.4717810000000  0.5496670000000  0.5716810000000 1.0
C      1  0.3953940000000  0.5135470000000  0.5137380000000 1.0
C      1  0.5293650000000  0.5617000000000  0.5086480000000 1.0
C      1  0.4957470000000  0.5223640000000  0.6183160000000 1.0
C      1  0.4781610000000  0.4659580000000  0.5932040000000 1.0
C      1  0.4957240000000  0.5429890000000  0.5950990000000 1.0
C      1  0.5331420000000  0.4983360000000  0.5060540000000 1.0
C      1  0.5776600000000  0.5657370000000  0.4645230000000 1.0
C      1  0.5551180000000  0.4201220000000  0.4594000000000 1.0
C      1  0.5477290000000  0.5568800000000  0.5664760000000 1.0
C      1  0.5127220000000  0.3725020000000  0.5144860000000 1.0
C      1  0.5330020000000  0.4265290000000  0.5286540000000 1.0
C      1  0.4143750000000  0.4915550000000  0.4959730000000 1.0
C      1  0.4701620000000  0.4352540000000  0.5353030000000 1.0
C      1  0.4774160000000  0.5581150000000  0.5330600000000 1.0
C      1  0.6024280000000  0.5209790000000  0.4997980000000 1.0
C      1  0.4668020000000  0.4985470000000  0.4586130000000 1.0
C      1  0.4300580000000  0.5416740000000  0.4357780000000 1.0
C      1  0.4963610000000  0.4505520000000  0.4579510000000 1.0
C      1  0.4717270000000  0.4371700000000  0.4723190000000 1.0
C      1  0.5375760000000  0.3987710000000  0.4763070000000 1.0
C      1  0.5093620000000  0.5689290000000  0.5287470000000 1.0
C      1  0.4585460000000  0.5745800000000  0.4346190000000 1.0
C      1  0.4522510000000  0.4118230000000  0.4839120000000 1.0
C      1  0.4712180000000  0.4884930000000  0.3919900000000 1.0
C      1  0.4748380000000  0.4611360000000  0.4337990000000 1.0
C      1  0.4493060000000  0.5223800000000  0.6051040000000 1.0
C      1  0.6033500000000  0.4825230000000  0.4703280000000 1.0
C      1  0.4452530000000  0.5157670000000  0.5426000000000 1.0
C      1  0.4726840000000  0.5280850000000  0.5266610000000 1.0
C      1  0.5254400000000  0.4130890000000  0.5777720000000 1.0
C      1  0.4859480000000  0.4161250000000  0.4249220000000 1.0
C      1  0.3953500000000  0.5421320000000  0.5135050000000 1.0
C      1  0.5449400000000  0.5154740000000  0.5564980000000 1.0
C      1  0.5396950000000  0.4625470000000  0.4076170000000 1.0
C      1  0.4657440000000  0.5484740000000  0.4190560000000 1.0
C      1  0.4201270000000  0.4495050000000  0.4592990000000 1.0
C      1  0.5228840000000  0.5753360000000  0.4781620000000 1.0
C      1  0.6044910000000  0.4765230000000  0.5200790000000 1.0
C      1  0.5945800000000  0.4863610000000  0.5512140000000 1.0
C      1  0.5148450000000  0.5124570000000  0.4032640000000 1.0
C      1  0.5997830000000  0.4912000000000  0.4130330000000 1.0
C      1  0.5839390000000  0.4879600000000  0.4429450000000 1.0
C      1  0.5632370000000  0.5233960000000  0.5086130000000 1.0
C      1  0.4930440000000  0.5242690000000  0.5667970000000 1.0
C      1  0.5601860000000  0.4793610000000  0.5141530000000 1.0
C      1  0.5413750000000  0.4855160000000  0.5516530000000 1.0
C      1  0.4873960000000  0.5960230000000  0.4843220000000 1.0
C      1  0.5786390000000  0.4756340000000  0.5792690000000 1.0
C      1  0.4150910000000  0.5219270000000  0.5969610000000 1.0
C      1  0.4826670000000  0.5278480000000  0.4946710000000 1.0
C      1  0.5782420000000  0.4288280000000  0.5012730000000 1.0
C      1  0.5662360000000  0.5327190000000  0.4125640000000 1.0
C      1  0.5061100000000  0.4264340000000  0.5084870000000 1.0
C      1  0.5716520000000  0.5026400000000  0.4083950000000 1.0
C      1  0.4648990000000  0.4314950000000  0.4335050000000 1.0
C      1  0.5096450000000  0.6005850000000  0.4601070000000 1.0
C      1  0.4641280000000  0.4878320000000  0.5181020000000 1.0
C      1  0.5535440000000  0.4821140000000  0.4285900000000 1.0
C      1  0.4748910000000  0.4171930000000  0.5066670000000 1.0
C      1  0.4641830000000  0.5946060000000  0.5091490000000 1.0
C      1  0.6069210000000  0.4930740000000  0.4968110000000 1.0
C      1  0.4081060000000  0.5304730000000  0.4775800000000 1.0
C      1  0.5302130000000  0.4284170000000  0.4891030000000 1.0
C      1  0.5864520000000  0.4569230000000  0.4673410000000 1.0
C      1  0.4347650000000  0.5695610000000  0.5189470000000 1.0
C      1  0.5790140000000  0.4309910000000  0.4727690000000 1.0
C      1  0.5112580000000  0.4709320000000  0.5866170000000 1.0
C      1  0.4945210000000  0.5022490000000  0.5231480000000 1.0
C      1  0.5769270000000  0.4431940000000  0.5495010000000 1.0
C      1  0.4794830000000  0.5956140000000  0.4445750000000 1.0
C      1  0.4127820000000  0.5761840000000  0.4744560000000 1.0
C      1  0.5247810000000  0.5421820000000  0.5834680000000 1.0
C      1  0.4082800000000  0.4600700000000  0.4834250000000 1.0
C      1  0.4331340000000  0.5265840000000  0.4920590000000 1.0
C      1  0.5886450000000  0.5349130000000  0.4741390000000 1.0
C      1  0.5004860000000  0.4973290000000  0.4208220000000 1.0
C      1  0.3963930000000  0.5561820000000  0.4868030000000 1.0
C      1  0.4105220000000  0.5223330000000  0.4497510000000 1.0
C      1  0.4352310000000  0.4963150000000  0.5872170000000 1.0
C      1  0.4975060000000  0.4996100000000  0.4887580000000 1.0
C      1  0.5666160000000  0.5143810000000  0.4478830000000 1.0
C      1  0.4515880000000  0.4832850000000  0.4338190000000 1.0
C      1  0.4917720000000  0.5953720000000  0.5310130000000 1.0
C      1  0.4660370000000  0.4501430000000  0.5656100000000 1.0
C      1  0.5653800000000  0.4759150000000  0.4808700000000 1.0
C      1  0.4341610000000  0.5369510000000  0.5211890000000 1.0
C      1  0.5261980000000  0.4359270000000  0.4501600000000 1.0
C      1  0.5096870000000  0.5741950000000  0.4302510000000 1.0
C      1  0.4177690000000  0.5710210000000  0.4475560000000 1.0
C      1  0.4159180000000  0.4943290000000  0.4621100000000 1.0
C      1  0.5597970000000  0.5753250000000  0.5119940000000 1.0
C      1  0.5336570000000  0.5314600000000  0.5140680000000 1.0
C      1  0.5248450000000  0.3779520000000  0.4900510000000 1.0
END
