TITL C-2848509-3138-533 -0.000725490971506487 125000 -830.307756036382 0 0 153 (C1) n - 1
REM
REM in /home/bkarasulu/work/CARBON/AIRSS/Generating-Clusters/AIREBO/with-SteepDescent/Only-C1/SD-CG-opt/Try1-1.4A-POS3A/HFTN-CG
REM
REM
REM
REM
REM
REM ./C.cell (11c1c37f851c82e70ff6c80c92926a4b)
REM
REM compiler GCC version 9.2.1 20190827 (Red Hat 9.2.1-1)
REM options -cpp -mtune=generic -march=x86-64 -g -O0 -fpre-include=/usr/include/finclude/math-vector-fortran.h
REM seed 264201305 2076866094 1889348045 1101870487 -574510476 979570446 -1959045945 -1237894353 -439767911 -1916458154 -101357343 -2060464775 713923110 -33888625 324840349 -556588004 -1287578922 286387835 -2079477390 1120724304 1068582946 496063493 -234775806 -1410380501 1362213424 1178511387 1097070367 1076288257 -1237555892 -955391947 -1851210561 743522670 1241830089
REM
CELL 1.54180   50.00000   50.00000   50.00000   90.00000   90.00000   90.00000
LATT -1
SFAC C  
C      1  0.4211830000000  0.5477340000000  0.4341920000000 1.0
C      1  0.5662100000000  0.5466470000000  0.5665570000000 1.0
C      1  0.4993900000000  0.5825850000000  0.5446870000000 1.0
C      1  0.4878660000000  0.4144930000000  0.4664250000000 1.0
C      1  0.5481430000000  0.5120170000000  0.5508410000000 1.0
C      1  0.5048090000000  0.4660190000000  0.4910980000000 1.0
C      1  0.4768710000000  0.4394440000000  0.4186750000000 1.0
C      1  0.5284310000000  0.5791690000000  0.4444310000000 1.0
C      1  0.4758320000000  0.5316500000000  0.4108030000000 1.0
C      1  0.4608440000000  0.5694870000000  0.4944400000000 1.0
C      1  0.5455640000000  0.4012280000000  0.4792200000000 1.0
C      1  0.5394140000000  0.4722120000000  0.5207610000000 1.0
C      1  0.5141070000000  0.4971980000000  0.3900680000000 1.0
C      1  0.5560030000000  0.5796030000000  0.4933590000000 1.0
C      1  0.4111060000000  0.5074580000000  0.4310450000000 1.0
C      1  0.5023500000000  0.4369740000000  0.4033210000000 1.0
C      1  0.4737070000000  0.4048680000000  0.5364650000000 1.0
C      1  0.4971490000000  0.5180800000000  0.5235890000000 1.0
C      1  0.4588390000000  0.5134180000000  0.4463240000000 1.0
C      1  0.4047190000000  0.5388980000000  0.4600980000000 1.0
C      1  0.5361190000000  0.4439310000000  0.5021670000000 1.0
C      1  0.4237560000000  0.5669670000000  0.4621930000000 1.0
C      1  0.5202640000000  0.4067030000000  0.5115250000000 1.0
C      1  0.4309410000000  0.4628740000000  0.4385450000000 1.0
C      1  0.4902940000000  0.5480450000000  0.4599280000000 1.0
C      1  0.5338040000000  0.5368530000000  0.5443560000000 1.0
C      1  0.4399340000000  0.6005590000000  0.5083410000000 1.0
C      1  0.5914850000000  0.4952280000000  0.5264420000000 1.0
C      1  0.5105610000000  0.4834150000000  0.4674470000000 1.0
C      1  0.5878410000000  0.5035630000000  0.4575400000000 1.0
C      1  0.5869460000000  0.5452630000000  0.5145340000000 1.0
C      1  0.6013370000000  0.4576490000000  0.4827400000000 1.0
C      1  0.5858210000000  0.5323550000000  0.4644700000000 1.0
C      1  0.4715490000000  0.4977960000000  0.5141180000000 1.0
C      1  0.4034870000000  0.5023960000000  0.5106880000000 1.0
C      1  0.4274500000000  0.5773920000000  0.5149200000000 1.0
C      1  0.5154460000000  0.4447420000000  0.5809310000000 1.0
C      1  0.5338920000000  0.5739540000000  0.5185640000000 1.0
C      1  0.6013970000000  0.5252350000000  0.5335810000000 1.0
C      1  0.4571930000000  0.5031100000000  0.4078990000000 1.0
C      1  0.5047880000000  0.5114840000000  0.5796330000000 1.0
C      1  0.6018110000000  0.4851780000000  0.4762390000000 1.0
C      1  0.5246630000000  0.4475490000000  0.4131180000000 1.0
C      1  0.4977890000000  0.5470500000000  0.5057910000000 1.0
C      1  0.4931910000000  0.4371150000000  0.5608780000000 1.0
C      1  0.5347060000000  0.4247360000000  0.4574870000000 1.0
C      1  0.4513210000000  0.5804030000000  0.4638350000000 1.0
C      1  0.5360530000000  0.5007710000000  0.6165190000000 1.0
C      1  0.4419170000000  0.5107400000000  0.5246520000000 1.0
C      1  0.4471580000000  0.4510710000000  0.3946710000000 1.0
C      1  0.4774840000000  0.5764660000000  0.5624730000000 1.0
C      1  0.5605000000000  0.5305810000000  0.4265270000000 1.0
C      1  0.4674160000000  0.5625480000000  0.5264760000000 1.0
C      1  0.5544130000000  0.4955890000000  0.4879900000000 1.0
C      1  0.4536220000000  0.4483840000000  0.5229590000000 1.0
C      1  0.5530350000000  0.4874610000000  0.5916890000000 1.0
C      1  0.4972890000000  0.5968980000000  0.4879360000000 1.0
C      1  0.5196980000000  0.5544040000000  0.4640330000000 1.0
C      1  0.5384300000000  0.4617660000000  0.5531080000000 1.0
C      1  0.4644450000000  0.6023200000000  0.4863770000000 1.0
C      1  0.5308620000000  0.5805510000000  0.5503110000000 1.0
C      1  0.5102540000000  0.4878460000000  0.5151330000000 1.0
C      1  0.4806350000000  0.4456180000000  0.5035820000000 1.0
C      1  0.4871390000000  0.4129880000000  0.5062980000000 1.0
C      1  0.5843890000000  0.5008230000000  0.4972160000000 1.0
C      1  0.4432920000000  0.4350110000000  0.4235310000000 1.0
C      1  0.4424230000000  0.4997940000000  0.4676220000000 1.0
C      1  0.5421550000000  0.4334780000000  0.5716230000000 1.0
C      1  0.4325900000000  0.4909550000000  0.5826740000000 1.0
C      1  0.4715830000000  0.5388880000000  0.4868030000000 1.0
C      1  0.4626170000000  0.4515800000000  0.5556190000000 1.0
C      1  0.5052600000000  0.4117520000000  0.5416320000000 1.0
C      1  0.4657040000000  0.4013770000000  0.4853880000000 1.0
C      1  0.5657190000000  0.4326250000000  0.5550560000000 1.0
C      1  0.4396260000000  0.4143180000000  0.4831650000000 1.0
C      1  0.5339090000000  0.5093150000000  0.5086110000000 1.0
C      1  0.5695450000000  0.4393910000000  0.5235410000000 1.0
C      1  0.5155750000000  0.5593060000000  0.4204270000000 1.0
C      1  0.4672430000000  0.4584080000000  0.4750570000000 1.0
C      1  0.5621200000000  0.4962540000000  0.4284350000000 1.0
C      1  0.4869660000000  0.5095840000000  0.4861710000000 1.0
C      1  0.5220220000000  0.4392730000000  0.5335820000000 1.0
C      1  0.5672190000000  0.4698930000000  0.5692810000000 1.0
C      1  0.5604810000000  0.5664610000000  0.5473070000000 1.0
C      1  0.5296440000000  0.5338840000000  0.4197770000000 1.0
C      1  0.4275210000000  0.4333660000000  0.5505420000000 1.0
C      1  0.4523860000000  0.5092540000000  0.5753130000000 1.0
C      1  0.4173150000000  0.4867400000000  0.4508920000000 1.0
C      1  0.4543070000000  0.4190630000000  0.5501180000000 1.0
C      1  0.5529720000000  0.4147490000000  0.5067220000000 1.0
C      1  0.5205830000000  0.5206020000000  0.6052040000000 1.0
C      1  0.5199330000000  0.5138670000000  0.4789930000000 1.0
C      1  0.4898980000000  0.4763970000000  0.5916570000000 1.0
C      1  0.4785760000000  0.4963130000000  0.5695230000000 1.0
C      1  0.4965030000000  0.4861010000000  0.4375650000000 1.0
C      1  0.4533840000000  0.4729800000000  0.4164650000000 1.0
C      1  0.5511510000000  0.4703550000000  0.4481700000000 1.0
C      1  0.4820220000000  0.5387460000000  0.5411720000000 1.0
C      1  0.5415180000000  0.5400270000000  0.4826930000000 1.0
C      1  0.5269710000000  0.4778190000000  0.4252040000000 1.0
C      1  0.5241740000000  0.5175190000000  0.4459490000000 1.0
C      1  0.4046980000000  0.4865080000000  0.4822830000000 1.0
C      1  0.5604940000000  0.5206720000000  0.5877630000000 1.0
C      1  0.4089500000000  0.4878540000000  0.5618600000000 1.0
C      1  0.4748080000000  0.5721420000000  0.4456330000000 1.0
C      1  0.5284830000000  0.5424360000000  0.5135550000000 1.0
C      1  0.5540870000000  0.4637580000000  0.4811660000000 1.0
C      1  0.4414080000000  0.4415500000000  0.4628760000000 1.0
C      1  0.4708810000000  0.4555370000000  0.5883770000000 1.0
C      1  0.5232390000000  0.5533260000000  0.5688100000000 1.0
C      1  0.4314340000000  0.4624560000000  0.5652440000000 1.0
C      1  0.4211430000000  0.5536040000000  0.4931500000000 1.0
C      1  0.5542100000000  0.5084840000000  0.4591580000000 1.0
C      1  0.4300400000000  0.4384980000000  0.5010480000000 1.0
C      1  0.4906960000000  0.5163760000000  0.4519300000000 1.0
C      1  0.4264530000000  0.5483090000000  0.5323080000000 1.0
C      1  0.5732150000000  0.5688640000000  0.5210740000000 1.0
C      1  0.5846100000000  0.4647670000000  0.5405150000000 1.0
C      1  0.4058400000000  0.5310080000000  0.5134380000000 1.0
C      1  0.4459180000000  0.5687790000000  0.5512330000000 1.0
C      1  0.5269260000000  0.4924910000000  0.5620630000000 1.0
C      1  0.4945990000000  0.4552820000000  0.5321720000000 1.0
C      1  0.4766160000000  0.4796570000000  0.5424790000000 1.0
C      1  0.5699390000000  0.5476360000000  0.4474740000000 1.0
C      1  0.4942850000000  0.5408280000000  0.5692190000000 1.0
C      1  0.5779510000000  0.4497000000000  0.4945130000000 1.0
C      1  0.4165120000000  0.5176250000000  0.4762910000000 1.0
C      1  0.5730400000000  0.5312650000000  0.4919510000000 1.0
C      1  0.5378370000000  0.5043420000000  0.4069160000000 1.0
C      1  0.5114630000000  0.4343510000000  0.4807570000000 1.0
C      1  0.5802830000000  0.5199400000000  0.5557980000000 1.0
C      1  0.5371180000000  0.5425170000000  0.5935950000000 1.0
C      1  0.4944940000000  0.5785230000000  0.5137520000000 1.0
C      1  0.4387090000000  0.5246700000000  0.4237590000000 1.0
C      1  0.4566980000000  0.4836420000000  0.4872560000000 1.0
C      1  0.4447650000000  0.5288540000000  0.5517710000000 1.0
C      1  0.5212980000000  0.4751350000000  0.5897050000000 1.0
C      1  0.4894940000000  0.5006580000000  0.4078100000000 1.0
C      1  0.6283890000000  0.5293000000000  0.5383700000000 1.0
C      1  0.4737750000000  0.4638420000000  0.4421280000000 1.0
C      1  0.5001140000000  0.5885970000000  0.4576790000000 1.0
C      1  0.4615120000000  0.5486590000000  0.5737790000000 1.0
C      1  0.5613050000000  0.4888310000000  0.5346770000000 1.0
C      1  0.4662470000000  0.4239650000000  0.4460520000000 1.0
C      1  0.4869230000000  0.5555760000000  0.4208280000000 1.0
C      1  0.5276940000000  0.5983580000000  0.4973970000000 1.0
C      1  0.4216300000000  0.4570940000000  0.5269110000000 1.0
C      1  0.4148010000000  0.4563420000000  0.4791210000000 1.0
C      1  0.5562820000000  0.5699040000000  0.4606870000000 1.0
C      1  0.4190850000000  0.4865930000000  0.5320100000000 1.0
C      1  0.4418910000000  0.5271220000000  0.4967230000000 1.0
C      1  0.5155410000000  0.3980550000000  0.4647980000000 1.0
C      1  0.5422060000000  0.4427270000000  0.4363980000000 1.0
END
