TITL C-2847949-8115-635 0.00310755413057198 125000 -517.881364726491 0 0 97 (C1) n - 1
REM
REM in /home/bkarasulu/work/CARBON/AIRSS/Generating-Clusters/AIREBO/with-SteepDescent/Only-C1/SD-CG-opt/Try1-1.4A-POS3A/HFTN-CG
REM
REM
REM
REM
REM
REM ./C.cell (11c1c37f851c82e70ff6c80c92926a4b)
REM
REM compiler GCC version 9.2.1 20190827 (Red Hat 9.2.1-1)
REM options -cpp -mtune=generic -march=x86-64 -g -O0 -fpre-include=/usr/include/finclude/math-vector-fortran.h
REM seed -704682115 -1030948234 -2120326965 1824173240 -765923320 1392981583 286566874 1893476267 1387626888 1493979995 -2132970685 -756732862 1402438115 1665309242 -325233416 -1201617649 -211216813 -1874720874 2081401791 -1767592652 700211263 -1985570506 -682623605 362997361 -344081280 1975129849 1573497906 2081251614 -2115129895 -429418266 599719622 1229832998 -1295147098
REM
CELL 1.54180   50.00000   50.00000   50.00000   90.00000   90.00000   90.00000
LATT -1
SFAC C  
C      1  0.4954100000000  0.4163800000000  0.5143940000000 1.0
C      1  0.4434790000000  0.5573840000000  0.4615800000000 1.0
C      1  0.5786350000000  0.4578480000000  0.4665690000000 1.0
C      1  0.5599240000000  0.5149880000000  0.4839690000000 1.0
C      1  0.4741910000000  0.4933540000000  0.4063960000000 1.0
C      1  0.4282420000000  0.4804080000000  0.5459420000000 1.0
C      1  0.5741790000000  0.5352610000000  0.5895840000000 1.0
C      1  0.5434840000000  0.4822950000000  0.4678240000000 1.0
C      1  0.5549970000000  0.5376890000000  0.5704610000000 1.0
C      1  0.5109550000000  0.4469000000000  0.4801530000000 1.0
C      1  0.5664600000000  0.4908550000000  0.5053080000000 1.0
C      1  0.5715510000000  0.4595650000000  0.4931210000000 1.0
C      1  0.4728600000000  0.5462060000000  0.5497760000000 1.0
C      1  0.4610240000000  0.5237490000000  0.5719560000000 1.0
C      1  0.5074210000000  0.5093060000000  0.5136240000000 1.0
C      1  0.4421000000000  0.5273500000000  0.5144070000000 1.0
C      1  0.5602440000000  0.5063290000000  0.4534160000000 1.0
C      1  0.4572510000000  0.4641320000000  0.5238590000000 1.0
C      1  0.5655990000000  0.4559390000000  0.5470500000000 1.0
C      1  0.4484400000000  0.5377170000000  0.4392140000000 1.0
C      1  0.4697540000000  0.5716340000000  0.4674250000000 1.0
C      1  0.4545970000000  0.5054230000000  0.4929440000000 1.0
C      1  0.4814170000000  0.4562620000000  0.5475200000000 1.0
C      1  0.5110550000000  0.5466620000000  0.5508380000000 1.0
C      1  0.5062730000000  0.4805320000000  0.4820110000000 1.0
C      1  0.4763980000000  0.4884830000000  0.5378770000000 1.0
C      1  0.4848400000000  0.5082780000000  0.5572230000000 1.0
C      1  0.4463750000000  0.4258170000000  0.5227540000000 1.0
C      1  0.4704530000000  0.4583160000000  0.4938780000000 1.0
C      1  0.5451470000000  0.5261520000000  0.4374630000000 1.0
C      1  0.4922130000000  0.5713710000000  0.5370300000000 1.0
C      1  0.5216510000000  0.5712480000000  0.5212950000000 1.0
C      1  0.4485290000000  0.5666520000000  0.5142780000000 1.0
C      1  0.5580280000000  0.5377620000000  0.5424580000000 1.0
C      1  0.4100160000000  0.5073410000000  0.4628790000000 1.0
C      1  0.4554050000000  0.4968440000000  0.5855250000000 1.0
C      1  0.5162740000000  0.5425940000000  0.6002010000000 1.0
C      1  0.5179340000000  0.4719930000000  0.4498760000000 1.0
C      1  0.4001990000000  0.4485490000000  0.5192930000000 1.0
C      1  0.5148940000000  0.5068630000000  0.5641770000000 1.0
C      1  0.5266900000000  0.4989270000000  0.5361170000000 1.0
C      1  0.4784640000000  0.4859480000000  0.5976140000000 1.0
C      1  0.4258550000000  0.5057540000000  0.5350640000000 1.0
C      1  0.5233470000000  0.4148130000000  0.5337300000000 1.0
C      1  0.5518680000000  0.5532640000000  0.4428400000000 1.0
C      1  0.5057400000000  0.4505710000000  0.5319070000000 1.0
C      1  0.4896390000000  0.4586950000000  0.5804290000000 1.0
C      1  0.4262660000000  0.4527840000000  0.5279590000000 1.0
C      1  0.4851330000000  0.5354830000000  0.4747530000000 1.0
C      1  0.5539850000000  0.4562100000000  0.4443230000000 1.0
C      1  0.5562610000000  0.5097060000000  0.5317210000000 1.0
C      1  0.4888320000000  0.5568200000000  0.4485290000000 1.0
C      1  0.5287960000000  0.5193080000000  0.4907380000000 1.0
C      1  0.6028860000000  0.5377610000000  0.4968080000000 1.0
C      1  0.5099790000000  0.4303770000000  0.4537490000000 1.0
C      1  0.5085520000000  0.4854020000000  0.5852810000000 1.0
C      1  0.4348360000000  0.5273680000000  0.4751380000000 1.0
C      1  0.4808180000000  0.4326780000000  0.4480520000000 1.0
C      1  0.4417250000000  0.5333910000000  0.5478740000000 1.0
C      1  0.4732640000000  0.5815010000000  0.5145500000000 1.0
C      1  0.5069490000000  0.5106170000000  0.4661780000000 1.0
C      1  0.5545460000000  0.4406920000000  0.5032620000000 1.0
C      1  0.5276510000000  0.4456240000000  0.4319930000000 1.0
C      1  0.5154310000000  0.5195880000000  0.4356780000000 1.0
C      1  0.5761470000000  0.4809580000000  0.4450160000000 1.0
C      1  0.5315980000000  0.4682220000000  0.5299940000000 1.0
C      1  0.4568020000000  0.4531790000000  0.5707790000000 1.0
C      1  0.5724430000000  0.4796890000000  0.5368690000000 1.0
C      1  0.4707440000000  0.4290850000000  0.5103230000000 1.0
C      1  0.5344020000000  0.4809740000000  0.5005630000000 1.0
C      1  0.4988400000000  0.4905190000000  0.4296420000000 1.0
C      1  0.4708360000000  0.5427960000000  0.5048010000000 1.0
C      1  0.5782230000000  0.5391900000000  0.4850990000000 1.0
C      1  0.4681910000000  0.4874970000000  0.4464870000000 1.0
C      1  0.4504640000000  0.4394530000000  0.4417540000000 1.0
C      1  0.4675970000000  0.5208190000000  0.4495720000000 1.0
C      1  0.5224720000000  0.4353960000000  0.5064790000000 1.0
C      1  0.5166090000000  0.5464540000000  0.4808740000000 1.0
C      1  0.5691610000000  0.5595900000000  0.4691470000000 1.0
C      1  0.5185800000000  0.4036040000000  0.4568810000000 1.0
C      1  0.5255550000000  0.5345710000000  0.5750670000000 1.0
C      1  0.5421840000000  0.4378990000000  0.5411600000000 1.0
C      1  0.4218420000000  0.5548500000000  0.5115940000000 1.0
C      1  0.4819640000000  0.4887320000000  0.5043330000000 1.0
C      1  0.5127460000000  0.4645900000000  0.4112130000000 1.0
C      1  0.5376090000000  0.5682940000000  0.4691740000000 1.0
C      1  0.4405740000000  0.4955460000000  0.4646230000000 1.0
C      1  0.4926300000000  0.5331280000000  0.5256640000000 1.0
C      1  0.4511610000000  0.4795280000000  0.4181530000000 1.0
C      1  0.4392460000000  0.4543090000000  0.4207920000000 1.0
C      1  0.5146160000000  0.5772730000000  0.4910840000000 1.0
C      1  0.5444220000000  0.5596300000000  0.5300800000000 1.0
C      1  0.5011120000000  0.5451190000000  0.4273350000000 1.0
C      1  0.4845150000000  0.5837840000000  0.4891870000000 1.0
C      1  0.4674290000000  0.4583600000000  0.4641800000000 1.0
C      1  0.5026520000000  0.5542730000000  0.4016500000000 1.0
C      1  0.4412250000000  0.4769750000000  0.5705990000000 1.0
END
