TITL C-2847950-6905-200 0.00117229806402165 125000 -641.008174690782 0 0 115 (C1) n - 1
REM
REM in /home/bkarasulu/work/CARBON/AIRSS/Generating-Clusters/AIREBO/with-SteepDescent/Only-C1/SD-CG-opt/Try1-1.4A-POS3A/HFTN-CG
REM
REM
REM
REM
REM
REM ./C.cell (11c1c37f851c82e70ff6c80c92926a4b)
REM
REM compiler GCC version 9.2.1 20190827 (Red Hat 9.2.1-1)
REM options -cpp -mtune=generic -march=x86-64 -g -O0 -fpre-include=/usr/include/finclude/math-vector-fortran.h
REM seed -1576365943 638419970 723535895 -602684718 -1602062428 -1431567323 1329496777 126195610 -1021219358 -1538144403 -22722409 -241586932 1468583732 121168353 -699913508 -894768644 -1823232684 627810823 -565359440 982816959 -486864095 1862892182 -2041731723 -170363242 783154593 473959217 308998569 -395776535 333779149 564294239 1926005018 -35577158 -132717066
REM
CELL 1.54180   50.00000   50.00000   50.00000   90.00000   90.00000   90.00000
LATT -1
SFAC C  
C      1  0.5630050000000  0.5357830000000  0.4449540000000 1.0
C      1  0.4847410000000  0.4854910000000  0.5827270000000 1.0
C      1  0.4741550000000  0.5885490000000  0.4501540000000 1.0
C      1  0.5507280000000  0.5709770000000  0.4788310000000 1.0
C      1  0.5249830000000  0.5289360000000  0.5525160000000 1.0
C      1  0.3992370000000  0.4963280000000  0.4553680000000 1.0
C      1  0.5537120000000  0.5395310000000  0.5427650000000 1.0
C      1  0.4465660000000  0.5505120000000  0.5334810000000 1.0
C      1  0.5308860000000  0.4661740000000  0.4311390000000 1.0
C      1  0.5210010000000  0.5068950000000  0.4471970000000 1.0
C      1  0.4717060000000  0.4243060000000  0.4435370000000 1.0
C      1  0.5294090000000  0.4476800000000  0.5324970000000 1.0
C      1  0.5827880000000  0.5031010000000  0.5128070000000 1.0
C      1  0.4386340000000  0.5195410000000  0.4496940000000 1.0
C      1  0.5164740000000  0.4867220000000  0.5583670000000 1.0
C      1  0.4307110000000  0.5263750000000  0.5461570000000 1.0
C      1  0.4996460000000  0.5422490000000  0.4988200000000 1.0
C      1  0.4665830000000  0.4785970000000  0.4253070000000 1.0
C      1  0.4401940000000  0.5072740000000  0.5656620000000 1.0
C      1  0.4842140000000  0.4936380000000  0.4451130000000 1.0
C      1  0.4573930000000  0.5026500000000  0.4724760000000 1.0
C      1  0.5306690000000  0.4831500000000  0.4695480000000 1.0
C      1  0.4777370000000  0.5374550000000  0.5743010000000 1.0
C      1  0.5710510000000  0.5247040000000  0.4692210000000 1.0
C      1  0.4539500000000  0.4269430000000  0.5161210000000 1.0
C      1  0.5950720000000  0.4845610000000  0.4761510000000 1.0
C      1  0.4908790000000  0.5739480000000  0.5016110000000 1.0
C      1  0.4106980000000  0.5297710000000  0.4949230000000 1.0
C      1  0.6012750000000  0.4672530000000  0.4972450000000 1.0
C      1  0.4101460000000  0.5198060000000  0.4685200000000 1.0
C      1  0.4885440000000  0.5730240000000  0.5411340000000 1.0
C      1  0.5880540000000  0.5544870000000  0.5093440000000 1.0
C      1  0.4641910000000  0.4054620000000  0.5369120000000 1.0
C      1  0.4399030000000  0.4926160000000  0.4288940000000 1.0
C      1  0.4543900000000  0.4442140000000  0.5635660000000 1.0
C      1  0.6028020000000  0.5271300000000  0.5030600000000 1.0
C      1  0.5523960000000  0.4832470000000  0.4360640000000 1.0
C      1  0.5033730000000  0.4953990000000  0.3965780000000 1.0
C      1  0.5214970000000  0.5039690000000  0.4132640000000 1.0
C      1  0.5055770000000  0.5239360000000  0.5271610000000 1.0
C      1  0.4216850000000  0.4803290000000  0.4485350000000 1.0
C      1  0.5045670000000  0.4929580000000  0.5207970000000 1.0
C      1  0.4806100000000  0.4803270000000  0.3978050000000 1.0
C      1  0.4480740000000  0.4758260000000  0.5410030000000 1.0
C      1  0.4401620000000  0.5467120000000  0.4284030000000 1.0
C      1  0.4606370000000  0.5666950000000  0.4388740000000 1.0
C      1  0.4447470000000  0.4997910000000  0.5200580000000 1.0
C      1  0.4629430000000  0.5750070000000  0.5195540000000 1.0
C      1  0.4724000000000  0.4130080000000  0.4696640000000 1.0
C      1  0.5200980000000  0.4268770000000  0.4708800000000 1.0
C      1  0.5156800000000  0.4844270000000  0.5973360000000 1.0
C      1  0.5429940000000  0.4091220000000  0.5279590000000 1.0
C      1  0.4779610000000  0.4778480000000  0.5258750000000 1.0
C      1  0.5107480000000  0.4609140000000  0.5106490000000 1.0
C      1  0.5229100000000  0.5659180000000  0.4484980000000 1.0
C      1  0.4985300000000  0.4112510000000  0.4815200000000 1.0
C      1  0.5234480000000  0.5115370000000  0.5783310000000 1.0
C      1  0.4640670000000  0.5399290000000  0.4593900000000 1.0
C      1  0.5319710000000  0.5482050000000  0.4901190000000 1.0
C      1  0.4331050000000  0.4395190000000  0.4739840000000 1.0
C      1  0.4924330000000  0.5244280000000  0.4531680000000 1.0
C      1  0.5568580000000  0.4340550000000  0.5231790000000 1.0
C      1  0.5494620000000  0.5235830000000  0.4919680000000 1.0
C      1  0.4134820000000  0.4583570000000  0.4913420000000 1.0
C      1  0.4833660000000  0.5404340000000  0.5443190000000 1.0
C      1  0.4790310000000  0.4212520000000  0.5586880000000 1.0
C      1  0.5099310000000  0.4342950000000  0.5571700000000 1.0
C      1  0.4924740000000  0.5587440000000  0.5866670000000 1.0
C      1  0.5165070000000  0.4569130000000  0.4798730000000 1.0
C      1  0.4896970000000  0.4939750000000  0.4786690000000 1.0
C      1  0.4725400000000  0.5247450000000  0.4934270000000 1.0
C      1  0.4534220000000  0.4766880000000  0.5729360000000 1.0
C      1  0.4819750000000  0.4433870000000  0.5060670000000 1.0
C      1  0.5638790000000  0.4762030000000  0.4672890000000 1.0
C      1  0.4166660000000  0.5152210000000  0.5187370000000 1.0
C      1  0.4769580000000  0.4624470000000  0.4779810000000 1.0
C      1  0.4402150000000  0.5797410000000  0.5000140000000 1.0
C      1  0.4420200000000  0.5616840000000  0.4734690000000 1.0
C      1  0.4885890000000  0.5886230000000  0.4736060000000 1.0
C      1  0.4984130000000  0.4139900000000  0.5107710000000 1.0
C      1  0.5586960000000  0.4779080000000  0.5603880000000 1.0
C      1  0.5959570000000  0.5131170000000  0.4765560000000 1.0
C      1  0.5198040000000  0.5075990000000  0.4871030000000 1.0
C      1  0.4579430000000  0.4765510000000  0.5023770000000 1.0
C      1  0.5325630000000  0.5616010000000  0.5565200000000 1.0
C      1  0.4663770000000  0.5133050000000  0.5803990000000 1.0
C      1  0.4776990000000  0.4491590000000  0.5393110000000 1.0
C      1  0.4357610000000  0.4480680000000  0.5319710000000 1.0
C      1  0.5098410000000  0.4582040000000  0.4467180000000 1.0
C      1  0.5664000000000  0.5310870000000  0.5185700000000 1.0
C      1  0.5125770000000  0.5875830000000  0.5218760000000 1.0
C      1  0.5691620000000  0.5837760000000  0.4316980000000 1.0
C      1  0.5129500000000  0.6179200000000  0.5223620000000 1.0
C      1  0.4106240000000  0.4521890000000  0.5175290000000 1.0
C      1  0.5063210000000  0.4603060000000  0.5752230000000 1.0
C      1  0.5482320000000  0.5159220000000  0.4294370000000 1.0
C      1  0.4388790000000  0.4742330000000  0.4752200000000 1.0
C      1  0.5471020000000  0.4880190000000  0.5839750000000 1.0
C      1  0.5816470000000  0.4680680000000  0.5491500000000 1.0
C      1  0.4190560000000  0.5565560000000  0.4949730000000 1.0
C      1  0.5607620000000  0.5700410000000  0.5072530000000 1.0
C      1  0.5364720000000  0.4769760000000  0.5387480000000 1.0
C      1  0.5062510000000  0.5732150000000  0.5673340000000 1.0
C      1  0.5653230000000  0.4430610000000  0.4626160000000 1.0
C      1  0.5778990000000  0.4564660000000  0.5194590000000 1.0
C      1  0.5468860000000  0.4227270000000  0.4634400000000 1.0
C      1  0.5096660000000  0.5465000000000  0.4659390000000 1.0
C      1  0.5370800000000  0.4907750000000  0.5110730000000 1.0
C      1  0.5554860000000  0.5654090000000  0.4473190000000 1.0
C      1  0.5408970000000  0.5740820000000  0.5266470000000 1.0
C      1  0.5146040000000  0.4108110000000  0.5329110000000 1.0
C      1  0.4788630000000  0.4542750000000  0.4450170000000 1.0
C      1  0.4629620000000  0.5240080000000  0.5226240000000 1.0
C      1  0.5639600000000  0.4810050000000  0.5009640000000 1.0
C      1  0.4510710000000  0.4221290000000  0.4855340000000 1.0
END
