TITL C-2848496-4490-133 -0.000886797393505577 125000 -685.103811954963 0 0 131 (C1) n - 1
REM
REM in /home/bkarasulu/work/CARBON/AIRSS/Generating-Clusters/AIREBO/with-SteepDescent/Only-C1/SD-CG-opt/Try1-1.4A-POS3A/HFTN-CG
REM
REM
REM
REM
REM
REM ./C.cell (11c1c37f851c82e70ff6c80c92926a4b)
REM
REM compiler GCC version 9.2.1 20190827 (Red Hat 9.2.1-1)
REM options -cpp -mtune=generic -march=x86-64 -g -O0 -fpre-include=/usr/include/finclude/math-vector-fortran.h
REM seed 1954693636 -893295720 1028060579 -892514182 -532040725 1078306361 -1289493849 1608351011 -1992956302 2034880346 -1386430083 -725494646 -1047076546 -1640222279 238917281 -1314380465 -576150538 -1790624880 -464832272 -1824059068 1555125374 320974432 657395873 -149606664 951831695 -428634469 -1631207268 260184606 -697805943 1932368010 2100205995 -1049716569 -196468911
REM
CELL 1.54180   50.00000   50.00000   50.00000   90.00000   90.00000   90.00000
LATT -1
SFAC C  
C      1  0.4390560000000  0.5546270000000  0.4614250000000 1.0
C      1  0.5294600000000  0.5045110000000  0.4785060000000 1.0
C      1  0.5369230000000  0.4838650000000  0.5633280000000 1.0
C      1  0.5064780000000  0.4406810000000  0.4874610000000 1.0
C      1  0.5262220000000  0.5725200000000  0.4548970000000 1.0
C      1  0.4437740000000  0.4799920000000  0.4913250000000 1.0
C      1  0.4916540000000  0.4476250000000  0.5281060000000 1.0
C      1  0.5452080000000  0.4165100000000  0.4922370000000 1.0
C      1  0.4722470000000  0.4890960000000  0.5015420000000 1.0
C      1  0.5011970000000  0.4875130000000  0.4702070000000 1.0
C      1  0.5446600000000  0.4593420000000  0.4284760000000 1.0
C      1  0.5416870000000  0.5469430000000  0.5140640000000 1.0
C      1  0.4784260000000  0.4160400000000  0.5242720000000 1.0
C      1  0.6029740000000  0.4947080000000  0.4871410000000 1.0
C      1  0.5395100000000  0.5436470000000  0.5656000000000 1.0
C      1  0.5465970000000  0.4284760000000  0.5523850000000 1.0
C      1  0.4900440000000  0.3960060000000  0.5097940000000 1.0
C      1  0.5879660000000  0.4498980000000  0.5184300000000 1.0
C      1  0.5791810000000  0.5183070000000  0.4852770000000 1.0
C      1  0.4525590000000  0.4747190000000  0.4302930000000 1.0
C      1  0.5321680000000  0.5327960000000  0.4597980000000 1.0
C      1  0.5710760000000  0.4722670000000  0.4409220000000 1.0
C      1  0.5452230000000  0.4678220000000  0.4791460000000 1.0
C      1  0.4541730000000  0.5330360000000  0.4126060000000 1.0
C      1  0.4694770000000  0.5144100000000  0.5177590000000 1.0
C      1  0.5206660000000  0.4512870000000  0.5950890000000 1.0
C      1  0.4309100000000  0.4799260000000  0.4450310000000 1.0
C      1  0.4464040000000  0.5036400000000  0.5721240000000 1.0
C      1  0.5632100000000  0.5122890000000  0.5700400000000 1.0
C      1  0.5330630000000  0.4751150000000  0.5310850000000 1.0
C      1  0.5161030000000  0.5105740000000  0.4412680000000 1.0
C      1  0.4774580000000  0.5463290000000  0.5091480000000 1.0
C      1  0.5198100000000  0.5183500000000  0.4097350000000 1.0
C      1  0.5192890000000  0.4227550000000  0.5133550000000 1.0
C      1  0.4944130000000  0.4802650000000  0.6024540000000 1.0
C      1  0.4505660000000  0.4384450000000  0.4653180000000 1.0
C      1  0.4246550000000  0.4789770000000  0.5454880000000 1.0
C      1  0.5300170000000  0.5698690000000  0.5472110000000 1.0
C      1  0.4938120000000  0.4881440000000  0.4082660000000 1.0
C      1  0.5017200000000  0.5133730000000  0.5219690000000 1.0
C      1  0.4969260000000  0.4680390000000  0.4942070000000 1.0
C      1  0.4384370000000  0.5191530000000  0.4852560000000 1.0
C      1  0.4650060000000  0.5466040000000  0.5407940000000 1.0
C      1  0.4814160000000  0.4305490000000  0.4687760000000 1.0
C      1  0.5698960000000  0.4398890000000  0.4929470000000 1.0
C      1  0.4910850000000  0.4318760000000  0.5582350000000 1.0
C      1  0.4189440000000  0.5433990000000  0.4990050000000 1.0
C      1  0.5717180000000  0.5427860000000  0.5676540000000 1.0
C      1  0.4735570000000  0.5568750000000  0.4614490000000 1.0
C      1  0.5024710000000  0.4095280000000  0.4594500000000 1.0
C      1  0.4320740000000  0.4481360000000  0.5334800000000 1.0
C      1  0.5044830000000  0.4518600000000  0.4261410000000 1.0
C      1  0.4546120000000  0.5965200000000  0.5080850000000 1.0
C      1  0.5087930000000  0.5466320000000  0.5228060000000 1.0
C      1  0.4718670000000  0.4941680000000  0.4302240000000 1.0
C      1  0.4236280000000  0.4313000000000  0.5083560000000 1.0
C      1  0.5371650000000  0.4365350000000  0.4430460000000 1.0
C      1  0.4924100000000  0.4553680000000  0.5807740000000 1.0
C      1  0.5990900000000  0.5274410000000  0.5096910000000 1.0
C      1  0.5273550000000  0.5935890000000  0.4968710000000 1.0
C      1  0.4516980000000  0.5471110000000  0.5712640000000 1.0
C      1  0.4793120000000  0.4574330000000  0.4064100000000 1.0
C      1  0.4662690000000  0.4629570000000  0.5193680000000 1.0
C      1  0.4923820000000  0.4598230000000  0.4554040000000 1.0
C      1  0.5649020000000  0.5551660000000  0.4557260000000 1.0
C      1  0.5146870000000  0.4016080000000  0.4871230000000 1.0
C      1  0.4861770000000  0.5211440000000  0.4050070000000 1.0
C      1  0.5142610000000  0.4205550000000  0.4351910000000 1.0
C      1  0.4461100000000  0.4478890000000  0.4960430000000 1.0
C      1  0.5544510000000  0.5004710000000  0.5393760000000 1.0
C      1  0.4061910000000  0.4654010000000  0.5197430000000 1.0
C      1  0.5661430000000  0.4454540000000  0.5440280000000 1.0
C      1  0.5079790000000  0.5248940000000  0.4905920000000 1.0
C      1  0.5389370000000  0.5913280000000  0.4713660000000 1.0
C      1  0.4421630000000  0.4746260000000  0.5848260000000 1.0
C      1  0.4103120000000  0.5348600000000  0.4623330000000 1.0
C      1  0.5642630000000  0.5054870000000  0.4360540000000 1.0
C      1  0.4778680000000  0.4983710000000  0.5612930000000 1.0
C      1  0.5788720000000  0.4768320000000  0.5409330000000 1.0
C      1  0.5496550000000  0.5009250000000  0.5056910000000 1.0
C      1  0.4968530000000  0.5650640000000  0.4186080000000 1.0
C      1  0.4468720000000  0.5583850000000  0.5004630000000 1.0
C      1  0.5206200000000  0.4245450000000  0.5430460000000 1.0
C      1  0.5638070000000  0.5332020000000  0.5359960000000 1.0
C      1  0.4059240000000  0.5091620000000  0.4844400000000 1.0
C      1  0.5506200000000  0.4614310000000  0.5108690000000 1.0
C      1  0.4671320000000  0.5245450000000  0.5887070000000 1.0
C      1  0.4261970000000  0.5560190000000  0.5273970000000 1.0
C      1  0.5217700000000  0.4814060000000  0.4246810000000 1.0
C      1  0.4332420000000  0.5325860000000  0.4373180000000 1.0
C      1  0.4473060000000  0.5819090000000  0.4782630000000 1.0
C      1  0.4971220000000  0.5697200000000  0.5449940000000 1.0
C      1  0.5086420000000  0.5469430000000  0.5650640000000 1.0
C      1  0.5788380000000  0.4506210000000  0.4660570000000 1.0
C      1  0.4793030000000  0.5886790000000  0.4720190000000 1.0
C      1  0.5847490000000  0.5516090000000  0.5196040000000 1.0
C      1  0.5540000000000  0.5402770000000  0.4843540000000 1.0
C      1  0.5456410000000  0.4880710000000  0.4560680000000 1.0
C      1  0.5748530000000  0.5768380000000  0.5171910000000 1.0
C      1  0.4323390000000  0.5008470000000  0.5129570000000 1.0
C      1  0.5208300000000  0.5743990000000  0.4276480000000 1.0
C      1  0.4786550000000  0.5802740000000  0.5110560000000 1.0
C      1  0.4999860000000  0.5922340000000  0.4945120000000 1.0
C      1  0.5485110000000  0.5148650000000  0.4095420000000 1.0
C      1  0.4805840000000  0.5397010000000  0.4329560000000 1.0
C      1  0.4104280000000  0.4750930000000  0.4875100000000 1.0
C      1  0.4661970000000  0.4485130000000  0.4368470000000 1.0
C      1  0.5402220000000  0.4638610000000  0.5857630000000 1.0
C      1  0.5349570000000  0.4409960000000  0.4720990000000 1.0
C      1  0.5060800000000  0.5516590000000  0.4699090000000 1.0
C      1  0.4318970000000  0.5059520000000  0.4546020000000 1.0
C      1  0.4896300000000  0.5260320000000  0.5511240000000 1.0
C      1  0.4582180000000  0.4739260000000  0.5483300000000 1.0
C      1  0.5906860000000  0.5038390000000  0.5239500000000 1.0
C      1  0.4241540000000  0.4597880000000  0.4631970000000 1.0
C      1  0.4007010000000  0.4989060000000  0.5175670000000 1.0
C      1  0.6069970000000  0.4758910000000  0.5134730000000 1.0
C      1  0.4682310000000  0.5746300000000  0.5595120000000 1.0
C      1  0.5730450000000  0.4800290000000  0.4932530000000 1.0
C      1  0.5042190000000  0.4791990000000  0.5236340000000 1.0
C      1  0.4850870000000  0.5132800000000  0.4549540000000 1.0
C      1  0.4474630000000  0.5109710000000  0.5389300000000 1.0
C      1  0.5275220000000  0.5130600000000  0.5745560000000 1.0
C      1  0.4146830000000  0.5114400000000  0.5471360000000 1.0
C      1  0.4612680000000  0.4532930000000  0.5735460000000 1.0
C      1  0.4696880000000  0.5291800000000  0.4807930000000 1.0
C      1  0.4589480000000  0.4322440000000  0.5469460000000 1.0
C      1  0.4977140000000  0.5094630000000  0.5865770000000 1.0
C      1  0.5759710000000  0.5269910000000  0.4539090000000 1.0
C      1  0.4256560000000  0.5417690000000  0.5514290000000 1.0
C      1  0.5423330000000  0.5793860000000  0.5190540000000 1.0
END
