TITL C-2848507-1641-535 0.000816846831233645 125000 -845.687770749075 0 0 156 (C1) n - 1
REM
REM in /home/bkarasulu/work/CARBON/AIRSS/Generating-Clusters/AIREBO/with-SteepDescent/Only-C1/SD-CG-opt/Try1-1.4A-POS3A/HFTN-CG
REM
REM
REM
REM
REM
REM ./C.cell (11c1c37f851c82e70ff6c80c92926a4b)
REM
REM compiler GCC version 9.2.1 20190827 (Red Hat 9.2.1-1)
REM options -cpp -mtune=generic -march=x86-64 -g -O0 -fpre-include=/usr/include/finclude/math-vector-fortran.h
REM seed 2072359011 -1687094245 -689652414 -722525135 -1263613786 -2052999523 1292176517 268215842 673991650 -739550975 -326752373 1432217280 -1778345621 1157422872 -2016091236 -1676207184 1808713959 -214732853 590632684 543485706 667365647 -981901122 -1160276944 -1998078008 384245612 1666863855 -2126559956 1997425481 1809781433 488086479 710588479 1146876430 -1370034427
REM
CELL 1.54180   50.00000   50.00000   50.00000   90.00000   90.00000   90.00000
LATT -1
SFAC C  
C      1  0.4558310000000  0.4841020000000  0.5764620000000 1.0
C      1  0.5794910000000  0.4444500000000  0.5207630000000 1.0
C      1  0.4681260000000  0.4613860000000  0.5977240000000 1.0
C      1  0.5509850000000  0.4234030000000  0.5709810000000 1.0
C      1  0.4680760000000  0.5130690000000  0.5634380000000 1.0
C      1  0.5091690000000  0.4772960000000  0.4937040000000 1.0
C      1  0.5588410000000  0.4695050000000  0.5179200000000 1.0
C      1  0.5317650000000  0.5488000000000  0.5802230000000 1.0
C      1  0.5260230000000  0.6005780000000  0.4843690000000 1.0
C      1  0.4197160000000  0.4401590000000  0.4824020000000 1.0
C      1  0.3830560000000  0.5152990000000  0.4865910000000 1.0
C      1  0.5391300000000  0.5099050000000  0.3931210000000 1.0
C      1  0.4808410000000  0.4453610000000  0.5320570000000 1.0
C      1  0.6056220000000  0.5196020000000  0.4746820000000 1.0
C      1  0.5053230000000  0.4412470000000  0.4226480000000 1.0
C      1  0.5924800000000  0.4400010000000  0.4930950000000 1.0
C      1  0.5674170000000  0.5573090000000  0.5241640000000 1.0
C      1  0.4333920000000  0.5443890000000  0.5606700000000 1.0
C      1  0.5440620000000  0.4913880000000  0.5620940000000 1.0
C      1  0.4851370000000  0.4406670000000  0.5897790000000 1.0
C      1  0.5420240000000  0.4987560000000  0.4874980000000 1.0
C      1  0.5704630000000  0.4367710000000  0.4712050000000 1.0
C      1  0.5902920000000  0.4898190000000  0.4805220000000 1.0
C      1  0.5316000000000  0.4838400000000  0.5324020000000 1.0
C      1  0.5324970000000  0.5098670000000  0.5142250000000 1.0
C      1  0.4890240000000  0.5735800000000  0.5639970000000 1.0
C      1  0.4593120000000  0.5788780000000  0.4670710000000 1.0
C      1  0.5561130000000  0.4963130000000  0.4117560000000 1.0
C      1  0.4784820000000  0.5161620000000  0.5113240000000 1.0
C      1  0.5394570000000  0.5774630000000  0.4668400000000 1.0
C      1  0.5526790000000  0.3918220000000  0.4612820000000 1.0
C      1  0.5962970000000  0.5222340000000  0.4422120000000 1.0
C      1  0.4917630000000  0.4321540000000  0.4776870000000 1.0
C      1  0.4503620000000  0.5345180000000  0.4142720000000 1.0
C      1  0.4104550000000  0.4652700000000  0.5574420000000 1.0
C      1  0.6007540000000  0.5146380000000  0.5369360000000 1.0
C      1  0.4777080000000  0.4567290000000  0.4588560000000 1.0
C      1  0.4672760000000  0.5139570000000  0.4042410000000 1.0
C      1  0.4733330000000  0.4164680000000  0.5790850000000 1.0
C      1  0.5078590000000  0.4063570000000  0.4624670000000 1.0
C      1  0.5910260000000  0.4620100000000  0.4698710000000 1.0
C      1  0.4892070000000  0.3989040000000  0.5140360000000 1.0
C      1  0.5297050000000  0.5625080000000  0.4397440000000 1.0
C      1  0.4642790000000  0.4104710000000  0.5219600000000 1.0
C      1  0.4881910000000  0.5949410000000  0.5386830000000 1.0
C      1  0.4473600000000  0.4990490000000  0.5403790000000 1.0
C      1  0.4810470000000  0.5067970000000  0.4651080000000 1.0
C      1  0.4522640000000  0.4774720000000  0.4651670000000 1.0
C      1  0.4179260000000  0.4790440000000  0.4998450000000 1.0
C      1  0.5901430000000  0.5478330000000  0.4637540000000 1.0
C      1  0.4430210000000  0.4781870000000  0.5210450000000 1.0
C      1  0.4987980000000  0.5194450000000  0.5724370000000 1.0
C      1  0.5125560000000  0.5188680000000  0.3967470000000 1.0
C      1  0.4327540000000  0.5056020000000  0.4939750000000 1.0
C      1  0.4024830000000  0.5700060000000  0.4875240000000 1.0
C      1  0.4317840000000  0.5724060000000  0.4512490000000 1.0
C      1  0.5768020000000  0.5776390000000  0.5047350000000 1.0
C      1  0.5170230000000  0.5351110000000  0.4751600000000 1.0
C      1  0.4675130000000  0.5470450000000  0.5617650000000 1.0
C      1  0.5284150000000  0.4695630000000  0.5819340000000 1.0
C      1  0.5381400000000  0.5311900000000  0.5354670000000 1.0
C      1  0.4249500000000  0.5239310000000  0.5186160000000 1.0
C      1  0.4212090000000  0.4545990000000  0.4566170000000 1.0
C      1  0.5446270000000  0.4185670000000  0.4720050000000 1.0
C      1  0.4984680000000  0.4905010000000  0.5363140000000 1.0
C      1  0.5339980000000  0.5632730000000  0.5270570000000 1.0
C      1  0.5104470000000  0.3998270000000  0.4919650000000 1.0
C      1  0.4241030000000  0.5452330000000  0.4322680000000 1.0
C      1  0.4699140000000  0.5998820000000  0.4916950000000 1.0
C      1  0.4848200000000  0.5651760000000  0.4221770000000 1.0
C      1  0.5252840000000  0.4300200000000  0.4464780000000 1.0
C      1  0.4873290000000  0.5774730000000  0.4519040000000 1.0
C      1  0.6057460000000  0.4818640000000  0.5401050000000 1.0
C      1  0.4208070000000  0.4886280000000  0.4581400000000 1.0
C      1  0.5218730000000  0.5696180000000  0.5584920000000 1.0
C      1  0.4223570000000  0.5147350000000  0.5572640000000 1.0
C      1  0.5952160000000  0.5194550000000  0.5066460000000 1.0
C      1  0.3990940000000  0.5151560000000  0.5324270000000 1.0
C      1  0.4527820000000  0.5288580000000  0.5293990000000 1.0
C      1  0.5837810000000  0.5097520000000  0.4182310000000 1.0
C      1  0.4632260000000  0.5918240000000  0.5212370000000 1.0
C      1  0.4191130000000  0.5629370000000  0.5459810000000 1.0
C      1  0.5054770000000  0.4529060000000  0.5697730000000 1.0
C      1  0.5442090000000  0.4489050000000  0.4277340000000 1.0
C      1  0.5722830000000  0.5402770000000  0.4917040000000 1.0
C      1  0.5566760000000  0.5192340000000  0.4458000000000 1.0
C      1  0.4249370000000  0.4849780000000  0.5700040000000 1.0
C      1  0.4834670000000  0.4747860000000  0.5589640000000 1.0
C      1  0.4099710000000  0.5825260000000  0.4643870000000 1.0
C      1  0.5164600000000  0.4856230000000  0.4412510000000 1.0
C      1  0.5003570000000  0.5936420000000  0.5069470000000 1.0
C      1  0.5425670000000  0.4758970000000  0.4267630000000 1.0
C      1  0.5666070000000  0.5115630000000  0.4744000000000 1.0
C      1  0.4810750000000  0.4509460000000  0.5028670000000 1.0
C      1  0.5397890000000  0.4090790000000  0.5043200000000 1.0
C      1  0.4805460000000  0.4845550000000  0.5079930000000 1.0
C      1  0.5170680000000  0.4562860000000  0.5192580000000 1.0
C      1  0.5905830000000  0.4754960000000  0.5689960000000 1.0
C      1  0.5485190000000  0.5582310000000  0.4204810000000 1.0
C      1  0.5682540000000  0.5341360000000  0.5486240000000 1.0
C      1  0.4126240000000  0.5193470000000  0.4702700000000 1.0
C      1  0.4821180000000  0.5159820000000  0.4347710000000 1.0
C      1  0.3786580000000  0.5156070000000  0.5144630000000 1.0
C      1  0.4640250000000  0.4123930000000  0.4760830000000 1.0
C      1  0.4963870000000  0.4801240000000  0.4658830000000 1.0
C      1  0.5073900000000  0.5676040000000  0.4723790000000 1.0
C      1  0.5300770000000  0.5084040000000  0.4586550000000 1.0
C      1  0.5051220000000  0.5430670000000  0.4104510000000 1.0
C      1  0.5358310000000  0.5960250000000  0.5497760000000 1.0
C      1  0.4148170000000  0.4521520000000  0.5320680000000 1.0
C      1  0.4838200000000  0.4223810000000  0.4226960000000 1.0
C      1  0.5058150000000  0.5388420000000  0.4432740000000 1.0
C      1  0.4615830000000  0.4487470000000  0.5588490000000 1.0
C      1  0.5395330000000  0.5474130000000  0.4974760000000 1.0
C      1  0.4867320000000  0.5481580000000  0.5337070000000 1.0
C      1  0.5674340000000  0.5701530000000  0.4761720000000 1.0
C      1  0.5647600000000  0.5469510000000  0.5783610000000 1.0
C      1  0.4954330000000  0.5614270000000  0.5036360000000 1.0
C      1  0.5675770000000  0.4148830000000  0.5168270000000 1.0
C      1  0.4598430000000  0.5237040000000  0.4842440000000 1.0
C      1  0.5703620000000  0.4500570000000  0.5685030000000 1.0
C      1  0.4701450000000  0.5553100000000  0.5946510000000 1.0
C      1  0.4665150000000  0.5555050000000  0.4881820000000 1.0
C      1  0.4238260000000  0.5112040000000  0.4328450000000 1.0
C      1  0.4183420000000  0.5426610000000  0.4945770000000 1.0
C      1  0.5759150000000  0.5025040000000  0.5567980000000 1.0
C      1  0.5067770000000  0.5176920000000  0.4997260000000 1.0
C      1  0.4460140000000  0.4473880000000  0.5317280000000 1.0
C      1  0.4924930000000  0.4987280000000  0.4002660000000 1.0
C      1  0.4250070000000  0.5640340000000  0.5188930000000 1.0
C      1  0.4471790000000  0.4270430000000  0.4975630000000 1.0
C      1  0.4615930000000  0.4158150000000  0.5503540000000 1.0
C      1  0.4628730000000  0.5504080000000  0.4393460000000 1.0
C      1  0.4040970000000  0.4536430000000  0.5042080000000 1.0
C      1  0.4522960000000  0.4604310000000  0.4935730000000 1.0
C      1  0.4935780000000  0.4723000000000  0.4198570000000 1.0
C      1  0.5095300000000  0.4363700000000  0.5417230000000 1.0
C      1  0.5951940000000  0.4501580000000  0.5463040000000 1.0
C      1  0.4535400000000  0.4978150000000  0.4378800000000 1.0
C      1  0.5060760000000  0.5233140000000  0.5409570000000 1.0
C      1  0.4656330000000  0.4268960000000  0.4478880000000 1.0
C      1  0.5415600000000  0.4675980000000  0.4906410000000 1.0
C      1  0.4586050000000  0.5607590000000  0.5191670000000 1.0
C      1  0.4442280000000  0.4485930000000  0.4387270000000 1.0
C      1  0.5463110000000  0.5187380000000  0.5780210000000 1.0
C      1  0.5481370000000  0.4484120000000  0.5917780000000 1.0
C      1  0.5000570000000  0.5490160000000  0.5847790000000 1.0
C      1  0.5234250000000  0.4408180000000  0.4865590000000 1.0
C      1  0.4412560000000  0.5342810000000  0.4586190000000 1.0
C      1  0.4600790000000  0.4697060000000  0.4256600000000 1.0
C      1  0.5326480000000  0.5958400000000  0.5173800000000 1.0
C      1  0.5858840000000  0.4866340000000  0.5130950000000 1.0
C      1  0.5176850000000  0.4080950000000  0.5301830000000 1.0
C      1  0.5360870000000  0.4070440000000  0.5568330000000 1.0
C      1  0.5128610000000  0.4985300000000  0.5859390000000 1.0
C      1  0.5639570000000  0.5353190000000  0.4226790000000 1.0
END
