TITL C-2848497-6229-593 -0.00150615158107717 125000 -398.404789265641 0 0 73 (C1) n - 1
REM
REM in /home/bkarasulu/work/CARBON/AIRSS/Generating-Clusters/AIREBO/with-SteepDescent/Only-C1/SD-CG-opt/Try1-1.4A-POS3A/HFTN-CG
REM
REM
REM
REM
REM
REM ./C.cell (11c1c37f851c82e70ff6c80c92926a4b)
REM
REM compiler GCC version 9.2.1 20190827 (Red Hat 9.2.1-1)
REM options -cpp -mtune=generic -march=x86-64 -g -O0 -fpre-include=/usr/include/finclude/math-vector-fortran.h
REM seed -859613349 -558246676 -788238350 -1271546876 548629008 -541677758 -1373465422 -925233248 390752662 -35899854 845681471 1544944545 -446451032 -422962634 1001085255 2122999831 887219516 2135652969 639707850 -658066592 -1086564646 -759649807 -1964997685 51850081 -1806594434 325817365 -2089227835 384040059 -3295406 1278188260 1298209591 -144155045 1813555133
REM
CELL 1.54180   50.00000   50.00000   50.00000   90.00000   90.00000   90.00000
LATT -1
SFAC C  
C      1  0.5759950000000  0.4972460000000  0.5392630000000 1.0
C      1  0.4818040000000  0.4683600000000  0.4554400000000 1.0
C      1  0.4646980000000  0.5186920000000  0.4604420000000 1.0
C      1  0.4417470000000  0.4587760000000  0.4921130000000 1.0
C      1  0.5465730000000  0.5444620000000  0.5490630000000 1.0
C      1  0.4957820000000  0.5079310000000  0.4667000000000 1.0
C      1  0.4739730000000  0.5693670000000  0.4480530000000 1.0
C      1  0.4991900000000  0.5291980000000  0.4403700000000 1.0
C      1  0.4868560000000  0.5511790000000  0.5619050000000 1.0
C      1  0.4819370000000  0.5070590000000  0.5457720000000 1.0
C      1  0.5149080000000  0.4347410000000  0.5162020000000 1.0
C      1  0.5002420000000  0.5511580000000  0.5316960000000 1.0
C      1  0.4652000000000  0.4821620000000  0.5606210000000 1.0
C      1  0.4994130000000  0.5567930000000  0.4448020000000 1.0
C      1  0.5197080000000  0.5189390000000  0.5817350000000 1.0
C      1  0.4466260000000  0.4499730000000  0.4600610000000 1.0
C      1  0.5428410000000  0.4705530000000  0.4591530000000 1.0
C      1  0.4495780000000  0.5369260000000  0.4743310000000 1.0
C      1  0.5226700000000  0.4536880000000  0.5414820000000 1.0
C      1  0.4996080000000  0.5711470000000  0.4896340000000 1.0
C      1  0.4690520000000  0.4309660000000  0.4581020000000 1.0
C      1  0.4387250000000  0.4805490000000  0.5522210000000 1.0
C      1  0.5183370000000  0.4406650000000  0.4743250000000 1.0
C      1  0.4942420000000  0.4692950000000  0.5503130000000 1.0
C      1  0.5125950000000  0.5826970000000  0.5105090000000 1.0
C      1  0.5593720000000  0.5129850000000  0.4922200000000 1.0
C      1  0.4711720000000  0.5680960000000  0.5299510000000 1.0
C      1  0.5309530000000  0.4842400000000  0.5483240000000 1.0
C      1  0.5383640000000  0.5256650000000  0.4719120000000 1.0
C      1  0.5251630000000  0.4962250000000  0.4728430000000 1.0
C      1  0.5295390000000  0.5614480000000  0.5286170000000 1.0
C      1  0.5479690000000  0.5214540000000  0.5706120000000 1.0
C      1  0.5199470000000  0.4683690000000  0.4916600000000 1.0
C      1  0.4738460000000  0.4611150000000  0.5262080000000 1.0
C      1  0.5151040000000  0.5656970000000  0.4667970000000 1.0
C      1  0.4401930000000  0.5285260000000  0.5355530000000 1.0
C      1  0.4729810000000  0.4673690000000  0.4843720000000 1.0
C      1  0.4438890000000  0.4986880000000  0.4933160000000 1.0
C      1  0.4516480000000  0.5571390000000  0.5106120000000 1.0
C      1  0.4804830000000  0.5471540000000  0.4972900000000 1.0
C      1  0.4990680000000  0.4440980000000  0.4488690000000 1.0
C      1  0.4646360000000  0.5327710000000  0.5497590000000 1.0
C      1  0.5163530000000  0.5454160000000  0.5677400000000 1.0
C      1  0.4778700000000  0.4995210000000  0.4943080000000 1.0
C      1  0.4765010000000  0.4866870000000  0.4354060000000 1.0
C      1  0.4500160000000  0.4448240000000  0.5387530000000 1.0
C      1  0.5461870000000  0.4305950000000  0.5068070000000 1.0
C      1  0.5481540000000  0.5601120000000  0.5004730000000 1.0
C      1  0.4919870000000  0.5217330000000  0.5167770000000 1.0
C      1  0.5383020000000  0.5528520000000  0.4749990000000 1.0
C      1  0.4873490000000  0.4425520000000  0.5027930000000 1.0
C      1  0.5425130000000  0.4635080000000  0.5145420000000 1.0
C      1  0.5133290000000  0.4147950000000  0.4904590000000 1.0
C      1  0.4341930000000  0.5300930000000  0.5021140000000 1.0
C      1  0.5729030000000  0.4529010000000  0.5035630000000 1.0
C      1  0.5245850000000  0.4585960000000  0.4351290000000 1.0
C      1  0.4314790000000  0.4977070000000  0.5250940000000 1.0
C      1  0.4347080000000  0.4644280000000  0.5189240000000 1.0
C      1  0.4625770000000  0.5629540000000  0.4730530000000 1.0
C      1  0.5065840000000  0.4972550000000  0.5653730000000 1.0
C      1  0.5250060000000  0.4884800000000  0.4282240000000 1.0
C      1  0.5197210000000  0.5027810000000  0.5221220000000 1.0
C      1  0.5636640000000  0.4972580000000  0.4623750000000 1.0
C      1  0.4744650000000  0.4203730000000  0.4835830000000 1.0
C      1  0.5559030000000  0.4970570000000  0.5593440000000 1.0
C      1  0.4377700000000  0.4826010000000  0.4638530000000 1.0
C      1  0.4513960000000  0.4994000000000  0.4433820000000 1.0
C      1  0.5525600000000  0.4955350000000  0.5168020000000 1.0
C      1  0.4987170000000  0.4796170000000  0.5122050000000 1.0
C      1  0.5513750000000  0.4479570000000  0.4777140000000 1.0
C      1  0.4995570000000  0.5019260000000  0.4274110000000 1.0
C      1  0.5576590000000  0.5351850000000  0.5180260000000 1.0
C      1  0.5499890000000  0.5017390000000  0.4354290000000 1.0
END
