TITL C-2848502-4955-6 0.000764283051798806 125000 -480.615213526551 0 0 89 (C1) n - 1
REM
REM in /home/bkarasulu/work/CARBON/AIRSS/Generating-Clusters/AIREBO/with-SteepDescent/Only-C1/SD-CG-opt/Try1-1.4A-POS3A/HFTN-CG
REM
REM
REM
REM
REM
REM ./C.cell (11c1c37f851c82e70ff6c80c92926a4b)
REM
REM compiler GCC version 9.2.1 20190827 (Red Hat 9.2.1-1)
REM options -cpp -mtune=generic -march=x86-64 -g -O0 -fpre-include=/usr/include/finclude/math-vector-fortran.h
REM seed -171884054 1623551794 177806438 -1997434851 802563776 1349643017 1243710965 -1689533470 -1456355128 -352305298 -457839983 -1880549281 893055156 -368439789 -2081223226 2107681556 426256181 1662892736 1811546865 1198512721 230616682 -979552589 -963031176 -2103697883 1010276053 -143249870 -752531378 995215240 -107099379 -895423274 -628698536 918546067 2035315996
REM
CELL 1.54180   50.00000   50.00000   50.00000   90.00000   90.00000   90.00000
LATT -1
SFAC C  
C      1  0.4706000000000  0.5773870000000  0.5722150000000 1.0
C      1  0.5300680000000  0.5358560000000  0.5095660000000 1.0
C      1  0.4806680000000  0.4995080000000  0.5702730000000 1.0
C      1  0.4434160000000  0.4809420000000  0.4738790000000 1.0
C      1  0.5700530000000  0.4651030000000  0.4881920000000 1.0
C      1  0.4979060000000  0.4800120000000  0.5901730000000 1.0
C      1  0.4647830000000  0.5757120000000  0.4674680000000 1.0
C      1  0.4536190000000  0.4477800000000  0.5418590000000 1.0
C      1  0.4452750000000  0.5591630000000  0.5310210000000 1.0
C      1  0.5435350000000  0.5411450000000  0.5991310000000 1.0
C      1  0.5183530000000  0.5134380000000  0.4306870000000 1.0
C      1  0.5167730000000  0.5707490000000  0.4797230000000 1.0
C      1  0.5553390000000  0.4898350000000  0.4926450000000 1.0
C      1  0.5279140000000  0.4524630000000  0.4692030000000 1.0
C      1  0.4466450000000  0.5595720000000  0.4832530000000 1.0
C      1  0.5264290000000  0.4453780000000  0.5292950000000 1.0
C      1  0.5040910000000  0.4672250000000  0.4838280000000 1.0
C      1  0.4980680000000  0.4627520000000  0.6086970000000 1.0
C      1  0.4186670000000  0.4545190000000  0.5097280000000 1.0
C      1  0.4172300000000  0.4763320000000  0.4906670000000 1.0
C      1  0.4936600000000  0.4977670000000  0.4731010000000 1.0
C      1  0.4906460000000  0.4890940000000  0.4154450000000 1.0
C      1  0.5375310000000  0.4291530000000  0.5090680000000 1.0
C      1  0.5601850000000  0.5298210000000  0.4568140000000 1.0
C      1  0.4669170000000  0.5373380000000  0.5305490000000 1.0
C      1  0.4896600000000  0.4290990000000  0.4451530000000 1.0
C      1  0.4555410000000  0.5304200000000  0.4834550000000 1.0
C      1  0.4816810000000  0.5315840000000  0.4998280000000 1.0
C      1  0.5443570000000  0.5597730000000  0.5738890000000 1.0
C      1  0.5258680000000  0.4140180000000  0.4845150000000 1.0
C      1  0.4515880000000  0.4546360000000  0.4609660000000 1.0
C      1  0.4350390000000  0.4961870000000  0.5460860000000 1.0
C      1  0.4307090000000  0.4655510000000  0.5358950000000 1.0
C      1  0.4819160000000  0.4419230000000  0.5241630000000 1.0
C      1  0.4934160000000  0.4772640000000  0.4459730000000 1.0
C      1  0.5234410000000  0.4833030000000  0.4205300000000 1.0
C      1  0.4313460000000  0.5130110000000  0.4943860000000 1.0
C      1  0.4366510000000  0.5299990000000  0.4466090000000 1.0
C      1  0.5675650000000  0.4967600000000  0.5523760000000 1.0
C      1  0.4838440000000  0.5641920000000  0.5548440000000 1.0
C      1  0.5211980000000  0.5241540000000  0.4614660000000 1.0
C      1  0.4669000000000  0.4904120000000  0.4917000000000 1.0
C      1  0.5182390000000  0.5675000000000  0.5135380000000 1.0
C      1  0.5504140000000  0.4452760000000  0.4880140000000 1.0
C      1  0.4874360000000  0.5876520000000  0.4765770000000 1.0
C      1  0.5294020000000  0.4866790000000  0.5128990000000 1.0
C      1  0.5147050000000  0.5006120000000  0.5702490000000 1.0
C      1  0.4949980000000  0.5315570000000  0.4324560000000 1.0
C      1  0.5274880000000  0.5228790000000  0.5398670000000 1.0
C      1  0.5155690000000  0.5722150000000  0.4457630000000 1.0
C      1  0.4375860000000  0.4326050000000  0.4719540000000 1.0
C      1  0.5470980000000  0.5779800000000  0.5539990000000 1.0
C      1  0.4470910000000  0.4997110000000  0.5758790000000 1.0
C      1  0.5271010000000  0.5311150000000  0.5710760000000 1.0
C      1  0.5479210000000  0.4640560000000  0.4263750000000 1.0
C      1  0.5191050000000  0.4262470000000  0.4535610000000 1.0
C      1  0.5204290000000  0.5091360000000  0.4907980000000 1.0
C      1  0.5372660000000  0.4585480000000  0.5514260000000 1.0
C      1  0.5783800000000  0.4846970000000  0.5745370000000 1.0
C      1  0.4630540000000  0.5508950000000  0.4460040000000 1.0
C      1  0.4321940000000  0.4319060000000  0.4996750000000 1.0
C      1  0.5262400000000  0.4822970000000  0.4544030000000 1.0
C      1  0.5350200000000  0.5861310000000  0.5311120000000 1.0
C      1  0.5370460000000  0.4907860000000  0.5457770000000 1.0
C      1  0.5663980000000  0.4771190000000  0.4427530000000 1.0
C      1  0.4810160000000  0.4898970000000  0.5195180000000 1.0
C      1  0.4928580000000  0.5612680000000  0.4333290000000 1.0
C      1  0.5813640000000  0.5140180000000  0.5361390000000 1.0
C      1  0.4200890000000  0.4952380000000  0.5174420000000 1.0
C      1  0.5409060000000  0.4382020000000  0.4322290000000 1.0
C      1  0.5031950000000  0.4652700000000  0.5163540000000 1.0
C      1  0.5481920000000  0.4480370000000  0.5740860000000 1.0
C      1  0.4936120000000  0.3853770000000  0.5227530000000 1.0
C      1  0.5364880000000  0.5514770000000  0.4507520000000 1.0
C      1  0.4678900000000  0.5025480000000  0.4284420000000 1.0
C      1  0.4540710000000  0.4238940000000  0.5179760000000 1.0
C      1  0.5845150000000  0.4665750000000  0.4632900000000 1.0
C      1  0.4649500000000  0.5075570000000  0.5418050000000 1.0
C      1  0.5022770000000  0.5424800000000  0.4804690000000 1.0
C      1  0.4987700000000  0.5492330000000  0.5309240000000 1.0
C      1  0.4995480000000  0.5159160000000  0.5241480000000 1.0
C      1  0.5506960000000  0.5720840000000  0.4818100000000 1.0
C      1  0.4344020000000  0.5675870000000  0.5071980000000 1.0
C      1  0.4740720000000  0.5203080000000  0.4567850000000 1.0
C      1  0.4288060000000  0.5094900000000  0.4625770000000 1.0
C      1  0.5696600000000  0.5540330000000  0.4726440000000 1.0
C      1  0.4830500000000  0.4082000000000  0.5195140000000 1.0
C      1  0.5535190000000  0.5009090000000  0.4624000000000 1.0
C      1  0.4767790000000  0.4524690000000  0.4504080000000 1.0
END
