TITL C-2847947-6848-697 -0.00112579171534418 125000 -486.275056968996 0 0 91 (C1) n - 1
REM
REM in /home/bkarasulu/work/CARBON/AIRSS/Generating-Clusters/AIREBO/with-SteepDescent/Only-C1/SD-CG-opt/Try1-1.4A-POS3A/HFTN-CG
REM
REM
REM
REM
REM
REM ./C.cell (11c1c37f851c82e70ff6c80c92926a4b)
REM
REM compiler GCC version 9.2.1 20190827 (Red Hat 9.2.1-1)
REM options -cpp -mtune=generic -march=x86-64 -g -O0 -fpre-include=/usr/include/finclude/math-vector-fortran.h
REM seed -2041832571 -1010711019 -1813422816 -366344305 -516028181 1221623051 -225247361 669973843 1198716760 2007948496 -1031497220 205762807 242125917 -1209143014 1880487728 20092006 -1358039750 1154467615 -617526057 1436413677 474460152 220911134 -1854782366 -336190244 -1438082789 1839172935 1028813708 462154379 -1444651339 1711740955 444223369 -1208238354 -1418032062
REM
CELL 1.54180   50.00000   50.00000   50.00000   90.00000   90.00000   90.00000
LATT -1
SFAC C  
C      1  0.5302350000000  0.5690600000000  0.4820560000000 1.0
C      1  0.5209310000000  0.6004740000000  0.4791230000000 1.0
C      1  0.4827510000000  0.4522890000000  0.4540230000000 1.0
C      1  0.5428470000000  0.4718460000000  0.5749150000000 1.0
C      1  0.4599820000000  0.4749820000000  0.4651290000000 1.0
C      1  0.4309640000000  0.4893390000000  0.5295610000000 1.0
C      1  0.4649000000000  0.4815640000000  0.5713160000000 1.0
C      1  0.5235090000000  0.5501720000000  0.5627250000000 1.0
C      1  0.4442370000000  0.5696980000000  0.4810900000000 1.0
C      1  0.4060730000000  0.5323370000000  0.5003930000000 1.0
C      1  0.5275170000000  0.4708290000000  0.4885370000000 1.0
C      1  0.5315940000000  0.4200140000000  0.5033220000000 1.0
C      1  0.5225420000000  0.5503320000000  0.4580780000000 1.0
C      1  0.4888880000000  0.4968180000000  0.5388280000000 1.0
C      1  0.4265480000000  0.5299040000000  0.5601190000000 1.0
C      1  0.5001750000000  0.4796370000000  0.4464210000000 1.0
C      1  0.5111980000000  0.4647250000000  0.5843540000000 1.0
C      1  0.4788060000000  0.4759250000000  0.5155490000000 1.0
C      1  0.5301410000000  0.5213000000000  0.5592960000000 1.0
C      1  0.5472340000000  0.4437580000000  0.4912790000000 1.0
C      1  0.5667580000000  0.4450780000000  0.4694700000000 1.0
C      1  0.4898360000000  0.5527200000000  0.4539150000000 1.0
C      1  0.4472130000000  0.4667840000000  0.5172230000000 1.0
C      1  0.5779830000000  0.5367490000000  0.4905340000000 1.0
C      1  0.4402560000000  0.5885500000000  0.4615400000000 1.0
C      1  0.5467380000000  0.4969950000000  0.4761270000000 1.0
C      1  0.5290810000000  0.5809210000000  0.4188110000000 1.0
C      1  0.4111350000000  0.5044520000000  0.5183900000000 1.0
C      1  0.4107850000000  0.4918560000000  0.4552740000000 1.0
C      1  0.5266210000000  0.4335680000000  0.4485630000000 1.0
C      1  0.5150240000000  0.4457160000000  0.5494940000000 1.0
C      1  0.5696690000000  0.5341770000000  0.5342840000000 1.0
C      1  0.5127970000000  0.4577920000000  0.6114990000000 1.0
C      1  0.4539500000000  0.4183710000000  0.5322790000000 1.0
C      1  0.4362070000000  0.5199520000000  0.4914000000000 1.0
C      1  0.5619180000000  0.5127000000000  0.5005370000000 1.0
C      1  0.5294780000000  0.5617760000000  0.5331500000000 1.0
C      1  0.5172370000000  0.4194890000000  0.5335600000000 1.0
C      1  0.5568240000000  0.5217210000000  0.4127150000000 1.0
C      1  0.5151610000000  0.5131220000000  0.5337000000000 1.0
C      1  0.5374870000000  0.5593110000000  0.4333660000000 1.0
C      1  0.4855450000000  0.4200460000000  0.5300410000000 1.0
C      1  0.4724010000000  0.5502810000000  0.5401470000000 1.0
C      1  0.4747040000000  0.4270760000000  0.4753760000000 1.0
C      1  0.4983500000000  0.5776530000000  0.4749120000000 1.0
C      1  0.4245740000000  0.5580100000000  0.4950680000000 1.0
C      1  0.4630890000000  0.5165870000000  0.5012290000000 1.0
C      1  0.4874100000000  0.5197040000000  0.4534060000000 1.0
C      1  0.5932210000000  0.5344640000000  0.4679610000000 1.0
C      1  0.5542350000000  0.4343970000000  0.4464920000000 1.0
C      1  0.5157340000000  0.5239070000000  0.5025370000000 1.0
C      1  0.5532120000000  0.4563190000000  0.5542700000000 1.0
C      1  0.5624600000000  0.5203700000000  0.5561140000000 1.0
C      1  0.4995570000000  0.5591210000000  0.5455280000000 1.0
C      1  0.4615480000000  0.5678560000000  0.5170360000000 1.0
C      1  0.5789500000000  0.5717270000000  0.4676130000000 1.0
C      1  0.5579590000000  0.5626690000000  0.4910220000000 1.0
C      1  0.4629370000000  0.5140710000000  0.5797840000000 1.0
C      1  0.4176530000000  0.4368980000000  0.4775150000000 1.0
C      1  0.5074010000000  0.4976010000000  0.4826450000000 1.0
C      1  0.5141360000000  0.5061480000000  0.4375200000000 1.0
C      1  0.5709400000000  0.4729400000000  0.4776450000000 1.0
C      1  0.4415700000000  0.4401720000000  0.5324490000000 1.0
C      1  0.4099780000000  0.5094330000000  0.4759940000000 1.0
C      1  0.4772800000000  0.4400760000000  0.4279270000000 1.0
C      1  0.5444690000000  0.5396600000000  0.5121140000000 1.0
C      1  0.4642640000000  0.5024130000000  0.4454980000000 1.0
C      1  0.4550060000000  0.5404630000000  0.5646560000000 1.0
C      1  0.5477090000000  0.4338990000000  0.5300210000000 1.0
C      1  0.5258480000000  0.5193510000000  0.4641240000000 1.0
C      1  0.4478020000000  0.4291160000000  0.4803940000000 1.0
C      1  0.4681610000000  0.5199260000000  0.5314110000000 1.0
C      1  0.5613560000000  0.5450310000000  0.4279670000000 1.0
C      1  0.4775160000000  0.4361250000000  0.5590490000000 1.0
C      1  0.5658270000000  0.4817370000000  0.5072800000000 1.0
C      1  0.4516070000000  0.5044040000000  0.4226930000000 1.0
C      1  0.5127170000000  0.4716200000000  0.5191410000000 1.0
C      1  0.4784260000000  0.4913360000000  0.4880740000000 1.0
C      1  0.4805880000000  0.4595370000000  0.5727500000000 1.0
C      1  0.4868780000000  0.5315590000000  0.4854010000000 1.0
C      1  0.5487110000000  0.4982510000000  0.5738660000000 1.0
C      1  0.5460940000000  0.4669500000000  0.5237030000000 1.0
C      1  0.5340210000000  0.5065660000000  0.4145300000000 1.0
C      1  0.4743010000000  0.5613430000000  0.4876840000000 1.0
C      1  0.4307260000000  0.4747860000000  0.4477990000000 1.0
C      1  0.5096560000000  0.4459130000000  0.4738190000000 1.0
C      1  0.5103970000000  0.4761660000000  0.5523250000000 1.0
C      1  0.4405460000000  0.4598220000000  0.4885530000000 1.0
C      1  0.4984620000000  0.4250680000000  0.4987480000000 1.0
C      1  0.5829880000000  0.5510370000000  0.4450650000000 1.0
C      1  0.4478530000000  0.5035930000000  0.5511590000000 1.0
END
