TITL C-2847959-7740-603 -0.00428047633345282 125000 -788.726198819575 0 0 153 (C1) n - 1
REM
REM in /home/bkarasulu/work/CARBON/AIRSS/Generating-Clusters/AIREBO/with-SteepDescent/Only-C1/SD-CG-opt/Try1-1.4A-POS3A/HFTN-CG
REM
REM
REM
REM
REM
REM ./C.cell (11c1c37f851c82e70ff6c80c92926a4b)
REM
REM compiler GCC version 9.2.1 20190827 (Red Hat 9.2.1-1)
REM options -cpp -mtune=generic -march=x86-64 -g -O0 -fpre-include=/usr/include/finclude/math-vector-fortran.h
REM seed -323419372 -198347537 -2016918101 -1065623913 272213016 -1607121323 1898964049 1914288128 787299670 -1824050055 1570365979 -971138967 197427622 -1482010843 456255467 -622292442 -836985469 155420142 -2116102273 1773362489 2085308628 -750218720 -1322767798 1650234717 -1100337626 -312838079 1736193871 -2011410081 -667281109 -1997092699 1119024745 1273793270 -366785500
REM
CELL 1.54180   50.00000   50.00000   50.00000   90.00000   90.00000   90.00000
LATT -1
SFAC C  
C      1  0.5528880000000  0.5081560000000  0.4479920000000 1.0
C      1  0.4250990000000  0.4654810000000  0.5598770000000 1.0
C      1  0.5004530000000  0.4440010000000  0.5500550000000 1.0
C      1  0.4793720000000  0.4312050000000  0.5881430000000 1.0
C      1  0.5266680000000  0.4361480000000  0.4621740000000 1.0
C      1  0.5640130000000  0.4421010000000  0.4395120000000 1.0
C      1  0.5437030000000  0.5300920000000  0.4248860000000 1.0
C      1  0.5732930000000  0.4556290000000  0.4694550000000 1.0
C      1  0.4585840000000  0.5591980000000  0.5013740000000 1.0
C      1  0.5274170000000  0.3902500000000  0.4842640000000 1.0
C      1  0.5407260000000  0.5852360000000  0.5116370000000 1.0
C      1  0.4677110000000  0.3967060000000  0.5175140000000 1.0
C      1  0.4115760000000  0.4448950000000  0.4648560000000 1.0
C      1  0.4192330000000  0.5300340000000  0.5658260000000 1.0
C      1  0.5110380000000  0.5013810000000  0.4550250000000 1.0
C      1  0.5315610000000  0.5422150000000  0.5074960000000 1.0
C      1  0.5034060000000  0.4937850000000  0.3990770000000 1.0
C      1  0.4928140000000  0.5401600000000  0.4204630000000 1.0
C      1  0.4149500000000  0.5273200000000  0.4650250000000 1.0
C      1  0.5246640000000  0.4440390000000  0.5831450000000 1.0
C      1  0.5930810000000  0.4682920000000  0.4907150000000 1.0
C      1  0.5349850000000  0.5046000000000  0.3960980000000 1.0
C      1  0.4982830000000  0.4646590000000  0.5771990000000 1.0
C      1  0.5753140000000  0.4948600000000  0.5752710000000 1.0
C      1  0.4242360000000  0.4969860000000  0.5625500000000 1.0
C      1  0.5528430000000  0.5615000000000  0.4476930000000 1.0
C      1  0.5123960000000  0.4087940000000  0.4713150000000 1.0
C      1  0.5051720000000  0.4586740000000  0.4517630000000 1.0
C      1  0.5529540000000  0.4741150000000  0.5178800000000 1.0
C      1  0.4721740000000  0.4734960000000  0.5572740000000 1.0
C      1  0.4340840000000  0.5117860000000  0.5187330000000 1.0
C      1  0.4900950000000  0.4805020000000  0.4393310000000 1.0
C      1  0.5622100000000  0.5753990000000  0.5363080000000 1.0
C      1  0.4823130000000  0.5390310000000  0.4891710000000 1.0
C      1  0.4950500000000  0.4632470000000  0.4037560000000 1.0
C      1  0.5470290000000  0.4451550000000  0.4851020000000 1.0
C      1  0.6096280000000  0.4960950000000  0.4927940000000 1.0
C      1  0.4388210000000  0.5693430000000  0.4285530000000 1.0
C      1  0.4518550000000  0.5406530000000  0.4294230000000 1.0
C      1  0.4400600000000  0.5498310000000  0.5722510000000 1.0
C      1  0.4527040000000  0.5981380000000  0.5076150000000 1.0
C      1  0.5032100000000  0.5482500000000  0.5720590000000 1.0
C      1  0.4442000000000  0.4864540000000  0.5879900000000 1.0
C      1  0.4162470000000  0.5449130000000  0.5405600000000 1.0
C      1  0.4666860000000  0.5102420000000  0.4879870000000 1.0
C      1  0.4101780000000  0.4643890000000  0.5041870000000 1.0
C      1  0.4665260000000  0.4607960000000  0.5887640000000 1.0
C      1  0.5050090000000  0.4280120000000  0.4370730000000 1.0
C      1  0.4804530000000  0.6018510000000  0.4869660000000 1.0
C      1  0.5431910000000  0.4568350000000  0.4209910000000 1.0
C      1  0.4932210000000  0.5242550000000  0.5178240000000 1.0
C      1  0.5565100000000  0.5227960000000  0.4972160000000 1.0
C      1  0.3957720000000  0.5099900000000  0.5077180000000 1.0
C      1  0.6135990000000  0.5290900000000  0.4924470000000 1.0
C      1  0.4441850000000  0.4065610000000  0.4872140000000 1.0
C      1  0.5168280000000  0.4481570000000  0.4151040000000 1.0
C      1  0.4671160000000  0.4346440000000  0.5301340000000 1.0
C      1  0.5374890000000  0.5544630000000  0.5364430000000 1.0
C      1  0.4629710000000  0.4623270000000  0.4153410000000 1.0
C      1  0.5817810000000  0.5665260000000  0.4935830000000 1.0
C      1  0.4575740000000  0.3785550000000  0.4929930000000 1.0
C      1  0.5493240000000  0.5630380000000  0.4873220000000 1.0
C      1  0.4380490000000  0.5489610000000  0.4658680000000 1.0
C      1  0.5749870000000  0.5490010000000  0.5491490000000 1.0
C      1  0.5840530000000  0.4393230000000  0.5414670000000 1.0
C      1  0.4427160000000  0.5407120000000  0.5212260000000 1.0
C      1  0.4474760000000  0.4581170000000  0.5443170000000 1.0
C      1  0.4490340000000  0.4779710000000  0.4727260000000 1.0
C      1  0.5769400000000  0.5312030000000  0.5255630000000 1.0
C      1  0.4706640000000  0.5440510000000  0.4575800000000 1.0
C      1  0.4780360000000  0.4203890000000  0.5590070000000 1.0
C      1  0.4833030000000  0.4833260000000  0.5004730000000 1.0
C      1  0.4031780000000  0.5345490000000  0.4942980000000 1.0
C      1  0.6051920000000  0.4981010000000  0.5256200000000 1.0
C      1  0.4870280000000  0.5196260000000  0.4454780000000 1.0
C      1  0.6096720000000  0.5153590000000  0.4645510000000 1.0
C      1  0.4747520000000  0.4209960000000  0.4336490000000 1.0
C      1  0.5540510000000  0.4022050000000  0.5339860000000 1.0
C      1  0.5187940000000  0.5980730000000  0.5359820000000 1.0
C      1  0.5699580000000  0.4916330000000  0.4951560000000 1.0
C      1  0.5099660000000  0.5970040000000  0.5031640000000 1.0
C      1  0.4386300000000  0.4484870000000  0.4810760000000 1.0
C      1  0.5542520000000  0.4891060000000  0.4198180000000 1.0
C      1  0.5603110000000  0.4268310000000  0.5464670000000 1.0
C      1  0.4414850000000  0.4167190000000  0.5166900000000 1.0
C      1  0.4763830000000  0.5189890000000  0.5678040000000 1.0
C      1  0.5321700000000  0.5825600000000  0.4645790000000 1.0
C      1  0.4421510000000  0.4601640000000  0.5118830000000 1.0
C      1  0.4810860000000  0.5007700000000  0.5394740000000 1.0
C      1  0.4883290000000  0.4285460000000  0.4823090000000 1.0
C      1  0.4531390000000  0.5836280000000  0.4781740000000 1.0
C      1  0.5466170000000  0.5114860000000  0.5677680000000 1.0
C      1  0.5070040000000  0.5148490000000  0.5664260000000 1.0
C      1  0.4971640000000  0.4579220000000  0.4826160000000 1.0
C      1  0.5332670000000  0.5422480000000  0.5623050000000 1.0
C      1  0.5940810000000  0.5443330000000  0.5039140000000 1.0
C      1  0.4335940000000  0.5781880000000  0.4552640000000 1.0
C      1  0.4674420000000  0.5271540000000  0.4051100000000 1.0
C      1  0.5049690000000  0.4291960000000  0.5982020000000 1.0
C      1  0.4991160000000  0.5858530000000  0.4632030000000 1.0
C      1  0.5088860000000  0.4811980000000  0.5390160000000 1.0
C      1  0.5751260000000  0.5298290000000  0.5704450000000 1.0
C      1  0.5376760000000  0.3966060000000  0.5095360000000 1.0
C      1  0.4056130000000  0.5065940000000  0.5365840000000 1.0
C      1  0.5005700000000  0.5677070000000  0.4899520000000 1.0
C      1  0.5793270000000  0.4924010000000  0.5417030000000 1.0
C      1  0.5031710000000  0.4044050000000  0.5465290000000 1.0
C      1  0.5382300000000  0.4814950000000  0.5539880000000 1.0
C      1  0.5203690000000  0.5361800000000  0.4009150000000 1.0
C      1  0.4712920000000  0.5870250000000  0.5588910000000 1.0
C      1  0.5742140000000  0.4727970000000  0.4401150000000 1.0
C      1  0.4696250000000  0.5483120000000  0.5774100000000 1.0
C      1  0.5191530000000  0.5612610000000  0.4246240000000 1.0
C      1  0.4610160000000  0.5086140000000  0.5932650000000 1.0
C      1  0.4135900000000  0.4936760000000  0.4637190000000 1.0
C      1  0.4078660000000  0.5576300000000  0.5119960000000 1.0
C      1  0.5495040000000  0.4822440000000  0.5943370000000 1.0
C      1  0.5144620000000  0.5314710000000  0.4810720000000 1.0
C      1  0.5104320000000  0.4984240000000  0.4854260000000 1.0
C      1  0.5083450000000  0.5666510000000  0.5289070000000 1.0
C      1  0.4724260000000  0.4941850000000  0.4613020000000 1.0
C      1  0.5916540000000  0.5280430000000  0.4477930000000 1.0
C      1  0.4728190000000  0.4948390000000  0.4137930000000 1.0
C      1  0.4780670000000  0.5797890000000  0.5201510000000 1.0
C      1  0.4799260000000  0.5485330000000  0.5334190000000 1.0
C      1  0.5524870000000  0.5076160000000  0.5273850000000 1.0
C      1  0.5194480000000  0.5062970000000  0.4263240000000 1.0
C      1  0.4515890000000  0.5633050000000  0.5450630000000 1.0
C      1  0.4307860000000  0.5787870000000  0.5230690000000 1.0
C      1  0.5843660000000  0.4642000000000  0.5233250000000 1.0
C      1  0.4299300000000  0.4673110000000  0.4469550000000 1.0
C      1  0.4312020000000  0.5182540000000  0.4365610000000 1.0
C      1  0.4408070000000  0.4902310000000  0.4243100000000 1.0
C      1  0.4902130000000  0.4182030000000  0.5113610000000 1.0
C      1  0.5218890000000  0.5508090000000  0.4568670000000 1.0
C      1  0.5478270000000  0.4921670000000  0.4731180000000 1.0
C      1  0.5194620000000  0.5110410000000  0.5349680000000 1.0
C      1  0.5197720000000  0.4191440000000  0.5224350000000 1.0
C      1  0.4350430000000  0.5022760000000  0.4886650000000 1.0
C      1  0.4892180000000  0.5674880000000  0.4403930000000 1.0
C      1  0.5162600000000  0.4896520000000  0.5858720000000 1.0
C      1  0.4896050000000  0.4596600000000  0.5240620000000 1.0
C      1  0.5359480000000  0.5129010000000  0.6000340000000 1.0
C      1  0.4601280000000  0.4272300000000  0.4702250000000 1.0
C      1  0.4559550000000  0.4887820000000  0.5199550000000 1.0
C      1  0.5342330000000  0.4478560000000  0.5507340000000 1.0
C      1  0.4540350000000  0.4439970000000  0.4412340000000 1.0
C      1  0.3988070000000  0.4860730000000  0.4918760000000 1.0
C      1  0.5346250000000  0.4478110000000  0.5167170000000 1.0
C      1  0.4997740000000  0.5797140000000  0.5591060000000 1.0
C      1  0.5274520000000  0.4702340000000  0.4828470000000 1.0
C      1  0.5735610000000  0.5403870000000  0.4324430000000 1.0
C      1  0.5566510000000  0.5357060000000  0.4683570000000 1.0
END
