TITL C-2847957-7266-580 0.00287376815529368 125000 -491.798548624051 0 0 90 (C1) n - 1
REM
REM in /home/bkarasulu/work/CARBON/AIRSS/Generating-Clusters/AIREBO/with-SteepDescent/Only-C1/SD-CG-opt/Try1-1.4A-POS3A/HFTN-CG
REM
REM
REM
REM
REM
REM ./C.cell (11c1c37f851c82e70ff6c80c92926a4b)
REM
REM compiler GCC version 9.2.1 20190827 (Red Hat 9.2.1-1)
REM options -cpp -mtune=generic -march=x86-64 -g -O0 -fpre-include=/usr/include/finclude/math-vector-fortran.h
REM seed 992883670 1877776667 204693714 -2031767391 -1922877792 -371885430 -598202514 -1081257090 291799679 -446422189 1304626422 -602000051 152438257 1513910367 -1357991602 -1177484848 763852379 -1489935165 363625479 -201048717 -111288819 -1895955832 -130471610 -615288560 -1979943732 501566809 -1105834308 -215019124 218094452 138325402 431425052 -1554429873 679899848
REM
CELL 1.54180   50.00000   50.00000   50.00000   90.00000   90.00000   90.00000
LATT -1
SFAC C  
C      1  0.5757740000000  0.5415750000000  0.5167180000000 1.0
C      1  0.4614520000000  0.4227790000000  0.5030200000000 1.0
C      1  0.4923910000000  0.5031880000000  0.4055550000000 1.0
C      1  0.5381560000000  0.4301320000000  0.5187600000000 1.0
C      1  0.4908660000000  0.4896120000000  0.5539250000000 1.0
C      1  0.5259530000000  0.5763510000000  0.4795380000000 1.0
C      1  0.4952840000000  0.5834460000000  0.4926040000000 1.0
C      1  0.4648390000000  0.4878110000000  0.4010570000000 1.0
C      1  0.5483620000000  0.5548560000000  0.4389900000000 1.0
C      1  0.4698060000000  0.4302820000000  0.5284340000000 1.0
C      1  0.5456180000000  0.4691540000000  0.5232950000000 1.0
C      1  0.5504570000000  0.4475500000000  0.4462270000000 1.0
C      1  0.5315740000000  0.4947570000000  0.5123430000000 1.0
C      1  0.5091280000000  0.4507790000000  0.5749180000000 1.0
C      1  0.5522230000000  0.5595350000000  0.4657180000000 1.0
C      1  0.5113410000000  0.5132720000000  0.5959360000000 1.0
C      1  0.5429630000000  0.5760040000000  0.5084910000000 1.0
C      1  0.5004980000000  0.5375100000000  0.5878290000000 1.0
C      1  0.4668790000000  0.4862680000000  0.5162200000000 1.0
C      1  0.4256870000000  0.4504540000000  0.5153720000000 1.0
C      1  0.4313880000000  0.4668280000000  0.5446540000000 1.0
C      1  0.5287180000000  0.5235250000000  0.5245370000000 1.0
C      1  0.5010270000000  0.5361820000000  0.5358930000000 1.0
C      1  0.4371380000000  0.5375900000000  0.4751080000000 1.0
C      1  0.4293780000000  0.5393300000000  0.5217690000000 1.0
C      1  0.5216040000000  0.5445470000000  0.4314420000000 1.0
C      1  0.4856400000000  0.5016590000000  0.4849910000000 1.0
C      1  0.5502710000000  0.5452160000000  0.5389110000000 1.0
C      1  0.4357150000000  0.5121510000000  0.4938170000000 1.0
C      1  0.5140000000000  0.5482960000000  0.4643920000000 1.0
C      1  0.4713620000000  0.5772490000000  0.4791540000000 1.0
C      1  0.5267710000000  0.4582080000000  0.4016130000000 1.0
C      1  0.4415400000000  0.4412240000000  0.4944540000000 1.0
C      1  0.5867850000000  0.4968690000000  0.5420240000000 1.0
C      1  0.5393790000000  0.5451610000000  0.5005700000000 1.0
C      1  0.5480420000000  0.4361210000000  0.4966400000000 1.0
C      1  0.5000300000000  0.4687690000000  0.5301190000000 1.0
C      1  0.4585470000000  0.5240850000000  0.5615160000000 1.0
C      1  0.4434690000000  0.5642270000000  0.4838780000000 1.0
C      1  0.5770880000000  0.5260190000000  0.5471870000000 1.0
C      1  0.4221090000000  0.4962800000000  0.5449580000000 1.0
C      1  0.5629140000000  0.5444240000000  0.5696230000000 1.0
C      1  0.5273110000000  0.5800300000000  0.5316770000000 1.0
C      1  0.4718480000000  0.4790220000000  0.5784790000000 1.0
C      1  0.5001520000000  0.4708410000000  0.4117250000000 1.0
C      1  0.4553130000000  0.4884480000000  0.4861940000000 1.0
C      1  0.4979240000000  0.5672410000000  0.5223860000000 1.0
C      1  0.4598450000000  0.5300710000000  0.5097180000000 1.0
C      1  0.4429160000000  0.5311730000000  0.4492140000000 1.0
C      1  0.4529170000000  0.4584920000000  0.5696310000000 1.0
C      1  0.4531380000000  0.4534880000000  0.4368560000000 1.0
C      1  0.4941140000000  0.4867840000000  0.5950860000000 1.0
C      1  0.4760600000000  0.5131490000000  0.5343530000000 1.0
C      1  0.5630090000000  0.5036180000000  0.4847370000000 1.0
C      1  0.4951470000000  0.4300050000000  0.4679280000000 1.0
C      1  0.4713160000000  0.5180820000000  0.4416910000000 1.0
C      1  0.5248080000000  0.4509240000000  0.5384720000000 1.0
C      1  0.5000610000000  0.5281910000000  0.4151460000000 1.0
C      1  0.4819260000000  0.5490180000000  0.4330290000000 1.0
C      1  0.5391400000000  0.4552410000000  0.4741520000000 1.0
C      1  0.4422120000000  0.4755420000000  0.4199040000000 1.0
C      1  0.4851610000000  0.5377120000000  0.5644220000000 1.0
C      1  0.4506080000000  0.4587410000000  0.4705510000000 1.0
C      1  0.5066360000000  0.4576470000000  0.4776840000000 1.0
C      1  0.5775940000000  0.5086500000000  0.5113700000000 1.0
C      1  0.5032990000000  0.4800750000000  0.5009180000000 1.0
C      1  0.4806790000000  0.4136720000000  0.4850260000000 1.0
C      1  0.4330550000000  0.5134050000000  0.5648720000000 1.0
C      1  0.5464030000000  0.4537430000000  0.4202010000000 1.0
C      1  0.4933340000000  0.4277470000000  0.4402730000000 1.0
C      1  0.4766450000000  0.5796090000000  0.5383450000000 1.0
C      1  0.5007270000000  0.5216510000000  0.4544890000000 1.0
C      1  0.5077070000000  0.5459400000000  0.4977320000000 1.0
C      1  0.5123690000000  0.4950940000000  0.4649840000000 1.0
C      1  0.5052890000000  0.4751740000000  0.4419020000000 1.0
C      1  0.4816550000000  0.5329910000000  0.4875400000000 1.0
C      1  0.5730060000000  0.4619040000000  0.5289810000000 1.0
C      1  0.4689350000000  0.4900140000000  0.4351550000000 1.0
C      1  0.4800430000000  0.4704610000000  0.4606800000000 1.0
C      1  0.5205510000000  0.4890330000000  0.5753000000000 1.0
C      1  0.4744360000000  0.5522670000000  0.4618240000000 1.0
C      1  0.4830210000000  0.4503970000000  0.5531350000000 1.0
C      1  0.5665060000000  0.4745670000000  0.5568310000000 1.0
C      1  0.6139970000000  0.4912050000000  0.5453680000000 1.0
C      1  0.5369180000000  0.4867560000000  0.4803300000000 1.0
C      1  0.4797930000000  0.4481730000000  0.4268310000000 1.0
C      1  0.4174150000000  0.5104400000000  0.5214670000000 1.0
C      1  0.5380680000000  0.4657070000000  0.5649670000000 1.0
C      1  0.5646410000000  0.5358070000000  0.4850570000000 1.0
C      1  0.4601880000000  0.4627800000000  0.5311860000000 1.0
END
