TITL C-2847949-8115-599 -0.000821138372344569 125000 -979.509987990911 0 0 180 (C1) n - 1
REM
REM in /home/bkarasulu/work/CARBON/AIRSS/Generating-Clusters/AIREBO/with-SteepDescent/Only-C1/SD-CG-opt/Try1-1.4A-POS3A/HFTN-CG
REM
REM
REM
REM
REM
REM ./C.cell (11c1c37f851c82e70ff6c80c92926a4b)
REM
REM compiler GCC version 9.2.1 20190827 (Red Hat 9.2.1-1)
REM options -cpp -mtune=generic -march=x86-64 -g -O0 -fpre-include=/usr/include/finclude/math-vector-fortran.h
REM seed 1820677408 233740548 -1001964156 -969254983 422078897 -1119026704 -294832594 -1368555446 -527959372 -286108421 -1412003928 1850711574 514624564 -2117320183 402246383 -1552123976 -103969310 1487661412 950667084 -1951995901 347942429 1070386733 -2077039027 352658911 -1250879633 -152838462 -134271536 1208868165 -1320063117 -810717577 1071192079 -1394268316 -51085429
REM
CELL 1.54180   50.00000   50.00000   50.00000   90.00000   90.00000   90.00000
LATT -1
SFAC C  
C      1  0.5814450000000  0.5209400000000  0.4407070000000 1.0
C      1  0.6030170000000  0.4690950000000  0.5518880000000 1.0
C      1  0.3927170000000  0.4358110000000  0.4952060000000 1.0
C      1  0.5347480000000  0.5943100000000  0.4492150000000 1.0
C      1  0.4117500000000  0.5410560000000  0.4640350000000 1.0
C      1  0.4386960000000  0.4894130000000  0.5102200000000 1.0
C      1  0.3963080000000  0.4742790000000  0.5751150000000 1.0
C      1  0.3929400000000  0.4913050000000  0.5518120000000 1.0
C      1  0.5270020000000  0.5857350000000  0.5442140000000 1.0
C      1  0.4235820000000  0.5299490000000  0.4357110000000 1.0
C      1  0.4746420000000  0.4401550000000  0.4934530000000 1.0
C      1  0.4558360000000  0.4805240000000  0.5359740000000 1.0
C      1  0.5644360000000  0.5774970000000  0.4700110000000 1.0
C      1  0.3857550000000  0.4568880000000  0.5073870000000 1.0
C      1  0.4965720000000  0.4523290000000  0.4245180000000 1.0
C      1  0.4404500000000  0.4142560000000  0.5238220000000 1.0
C      1  0.5565690000000  0.5738270000000  0.4416740000000 1.0
C      1  0.4800600000000  0.5779810000000  0.4999370000000 1.0
C      1  0.4517110000000  0.5447530000000  0.3970110000000 1.0
C      1  0.4453290000000  0.4903880000000  0.5919400000000 1.0
C      1  0.5430050000000  0.4936530000000  0.4667620000000 1.0
C      1  0.5426450000000  0.5136130000000  0.5012320000000 1.0
C      1  0.5617270000000  0.5474050000000  0.4319690000000 1.0
C      1  0.5343820000000  0.6214260000000  0.5240690000000 1.0
C      1  0.5462080000000  0.4799580000000  0.5449060000000 1.0
C      1  0.4652890000000  0.5862230000000  0.4182260000000 1.0
C      1  0.4474610000000  0.4505620000000  0.4385190000000 1.0
C      1  0.5529110000000  0.4701660000000  0.4453460000000 1.0
C      1  0.4836320000000  0.4924300000000  0.5475860000000 1.0
C      1  0.5167520000000  0.4380330000000  0.4596650000000 1.0
C      1  0.5388720000000  0.4519090000000  0.5100820000000 1.0
C      1  0.4466860000000  0.4946040000000  0.4705530000000 1.0
C      1  0.5972650000000  0.5328740000000  0.4791130000000 1.0
C      1  0.5920000000000  0.5183870000000  0.5516640000000 1.0
C      1  0.5878690000000  0.4376390000000  0.4544360000000 1.0
C      1  0.3855250000000  0.4921770000000  0.5263400000000 1.0
C      1  0.6067750000000  0.4861690000000  0.4740970000000 1.0
C      1  0.5398880000000  0.5683250000000  0.5111720000000 1.0
C      1  0.5138150000000  0.4056020000000  0.4562030000000 1.0
C      1  0.4142750000000  0.4901120000000  0.4729760000000 1.0
C      1  0.5336660000000  0.4274300000000  0.4251380000000 1.0
C      1  0.4452710000000  0.4101940000000  0.5725160000000 1.0
C      1  0.4252590000000  0.4955770000000  0.5578420000000 1.0
C      1  0.4921960000000  0.5124820000000  0.4688460000000 1.0
C      1  0.5365690000000  0.5321450000000  0.4230830000000 1.0
C      1  0.5121460000000  0.4423120000000  0.5287960000000 1.0
C      1  0.5444400000000  0.4478540000000  0.4767840000000 1.0
C      1  0.4982030000000  0.4967320000000  0.4965950000000 1.0
C      1  0.5465300000000  0.5893800000000  0.4884680000000 1.0
C      1  0.4727080000000  0.5531290000000  0.4207420000000 1.0
C      1  0.5842220000000  0.5913440000000  0.5240580000000 1.0
C      1  0.5747840000000  0.4955740000000  0.4229860000000 1.0
C      1  0.4757580000000  0.4981660000000  0.4439660000000 1.0
C      1  0.4412500000000  0.4558240000000  0.5524930000000 1.0
C      1  0.5432650000000  0.5335600000000  0.4660310000000 1.0
C      1  0.4215190000000  0.4738810000000  0.3937190000000 1.0
C      1  0.4665300000000  0.5333050000000  0.5359860000000 1.0
C      1  0.4693630000000  0.4265570000000  0.4405520000000 1.0
C      1  0.4464380000000  0.4886730000000  0.4117690000000 1.0
C      1  0.5595650000000  0.5174080000000  0.5441270000000 1.0
C      1  0.5318820000000  0.4848980000000  0.5145850000000 1.0
C      1  0.4627220000000  0.4240400000000  0.5899310000000 1.0
C      1  0.5908770000000  0.4667250000000  0.4339610000000 1.0
C      1  0.4413190000000  0.4183380000000  0.4899740000000 1.0
C      1  0.5147560000000  0.5528930000000  0.5039610000000 1.0
C      1  0.4988910000000  0.4999440000000  0.5956650000000 1.0
C      1  0.5922380000000  0.5316170000000  0.5261140000000 1.0
C      1  0.4328110000000  0.5520130000000  0.4185820000000 1.0
C      1  0.5398770000000  0.4481220000000  0.4050710000000 1.0
C      1  0.5997730000000  0.4792900000000  0.5266870000000 1.0
C      1  0.5376770000000  0.5171030000000  0.5723470000000 1.0
C      1  0.4438260000000  0.5226720000000  0.5049600000000 1.0
C      1  0.5833070000000  0.4760750000000  0.5787420000000 1.0
C      1  0.4196380000000  0.4381590000000  0.4814990000000 1.0
C      1  0.6023960000000  0.5756330000000  0.5105050000000 1.0
C      1  0.4037750000000  0.5046080000000  0.4442740000000 1.0
C      1  0.5658290000000  0.4302950000000  0.5623450000000 1.0
C      1  0.4176700000000  0.5412500000000  0.5338010000000 1.0
C      1  0.5482940000000  0.3992600000000  0.5154620000000 1.0
C      1  0.5369120000000  0.4601830000000  0.6005560000000 1.0
C      1  0.5533590000000  0.5950040000000  0.5274060000000 1.0
C      1  0.4828230000000  0.4429910000000  0.5263420000000 1.0
C      1  0.4384910000000  0.5172920000000  0.5381110000000 1.0
C      1  0.4463820000000  0.5728430000000  0.4625730000000 1.0
C      1  0.4687500000000  0.4098350000000  0.5081780000000 1.0
C      1  0.4457160000000  0.5127270000000  0.6154640000000 1.0
C      1  0.5537060000000  0.5496730000000  0.5351260000000 1.0
C      1  0.5745440000000  0.4219510000000  0.4815440000000 1.0
C      1  0.4747830000000  0.4803200000000  0.5917510000000 1.0
C      1  0.5204740000000  0.4636390000000  0.5507520000000 1.0
C      1  0.5448350000000  0.5043400000000  0.4094010000000 1.0
C      1  0.4912560000000  0.5425620000000  0.5579310000000 1.0
C      1  0.5805100000000  0.4686420000000  0.4663000000000 1.0
C      1  0.4518250000000  0.5597860000000  0.5664760000000 1.0
C      1  0.4359560000000  0.3855160000000  0.5778690000000 1.0
C      1  0.4760480000000  0.6118710000000  0.5041190000000 1.0
C      1  0.5005410000000  0.4198240000000  0.4282860000000 1.0
C      1  0.4235030000000  0.4672090000000  0.4247900000000 1.0
C      1  0.4921070000000  0.5411470000000  0.4551880000000 1.0
C      1  0.4274480000000  0.5442380000000  0.5653680000000 1.0
C      1  0.5011450000000  0.5891580000000  0.5241670000000 1.0
C      1  0.4818100000000  0.5246330000000  0.5069790000000 1.0
C      1  0.5700250000000  0.4921010000000  0.5239250000000 1.0
C      1  0.5280520000000  0.4215440000000  0.4992200000000 1.0
C      1  0.4590610000000  0.5231580000000  0.3815570000000 1.0
C      1  0.6139480000000  0.4812340000000  0.5016780000000 1.0
C      1  0.5639650000000  0.5345190000000  0.5083630000000 1.0
C      1  0.4887590000000  0.3953050000000  0.4720110000000 1.0
C      1  0.4969680000000  0.4722140000000  0.5672820000000 1.0
C      1  0.5030460000000  0.5379250000000  0.4229400000000 1.0
C      1  0.5306530000000  0.5210290000000  0.6053820000000 1.0
C      1  0.4390330000000  0.4626040000000  0.4927220000000 1.0
C      1  0.5582470000000  0.3984320000000  0.4844580000000 1.0
C      1  0.4680910000000  0.4174050000000  0.4690360000000 1.0
C      1  0.4014000000000  0.5716790000000  0.4681640000000 1.0
C      1  0.4985750000000  0.5323740000000  0.6051680000000 1.0
C      1  0.6074470000000  0.5108290000000  0.4607520000000 1.0
C      1  0.4637410000000  0.4652520000000  0.4731500000000 1.0
C      1  0.5056470000000  0.5351750000000  0.5281560000000 1.0
C      1  0.4270710000000  0.5673030000000  0.4900390000000 1.0
C      1  0.4557460000000  0.5969310000000  0.5253550000000 1.0
C      1  0.5702650000000  0.4388770000000  0.5088680000000 1.0
C      1  0.4754850000000  0.4658450000000  0.4423440000000 1.0
C      1  0.4552940000000  0.5550550000000  0.5045300000000 1.0
C      1  0.4442370000000  0.5059020000000  0.4385730000000 1.0
C      1  0.5559980000000  0.4890750000000  0.5719890000000 1.0
C      1  0.5044400000000  0.5122980000000  0.5660780000000 1.0
C      1  0.5258040000000  0.5136750000000  0.4472330000000 1.0
C      1  0.4050570000000  0.5195960000000  0.4872210000000 1.0
C      1  0.5070620000000  0.4923630000000  0.4377260000000 1.0
C      1  0.5221250000000  0.6060310000000  0.4785440000000 1.0
C      1  0.5731170000000  0.4690940000000  0.4990750000000 1.0
C      1  0.4098120000000  0.5435310000000  0.5071570000000 1.0
C      1  0.5648450000000  0.4507840000000  0.5849660000000 1.0
C      1  0.4279600000000  0.5941500000000  0.5101520000000 1.0
C      1  0.5151660000000  0.3947990000000  0.5113840000000 1.0
C      1  0.4683530000000  0.5021330000000  0.3961440000000 1.0
C      1  0.4716970000000  0.4466700000000  0.5500620000000 1.0
C      1  0.4598180000000  0.5451630000000  0.4511800000000 1.0
C      1  0.4946640000000  0.5074200000000  0.4099710000000 1.0
C      1  0.5205970000000  0.4652490000000  0.4416970000000 1.0
C      1  0.4990040000000  0.5624180000000  0.4761760000000 1.0
C      1  0.5472690000000  0.5485020000000  0.5658120000000 1.0
C      1  0.5166440000000  0.4209960000000  0.5783210000000 1.0
C      1  0.5398070000000  0.3901850000000  0.4658150000000 1.0
C      1  0.4277380000000  0.4680680000000  0.5776870000000 1.0
C      1  0.5208320000000  0.4913350000000  0.4003180000000 1.0
C      1  0.4412080000000  0.5750350000000  0.4317560000000 1.0
C      1  0.5694140000000  0.5148130000000  0.4715480000000 1.0
C      1  0.4600020000000  0.5332720000000  0.6125810000000 1.0
C      1  0.4060920000000  0.4813890000000  0.5048040000000 1.0
C      1  0.5168830000000  0.4639230000000  0.4019190000000 1.0
C      1  0.4848340000000  0.4449640000000  0.5814170000000 1.0
C      1  0.4385800000000  0.4243640000000  0.5492440000000 1.0
C      1  0.4416040000000  0.5282160000000  0.4715070000000 1.0
C      1  0.6009350000000  0.5032590000000  0.5721810000000 1.0
C      1  0.5000230000000  0.5744990000000  0.5610850000000 1.0
C      1  0.5082890000000  0.5582130000000  0.3961640000000 1.0
C      1  0.5546850000000  0.4362760000000  0.4475390000000 1.0
C      1  0.5183540000000  0.5283760000000  0.4836620000000 1.0
C      1  0.5098620000000  0.6154220000000  0.5044100000000 1.0
C      1  0.4706130000000  0.5896670000000  0.4694340000000 1.0
C      1  0.5307750000000  0.5718730000000  0.5737240000000 1.0
C      1  0.5637660000000  0.4652840000000  0.4134870000000 1.0
C      1  0.4204370000000  0.4603180000000  0.4576890000000 1.0
C      1  0.5063180000000  0.4456650000000  0.4881840000000 1.0
C      1  0.5026510000000  0.5899260000000  0.4600580000000 1.0
C      1  0.6012210000000  0.5478650000000  0.5028720000000 1.0
C      1  0.4904600000000  0.3895610000000  0.5006860000000 1.0
C      1  0.5265760000000  0.4307910000000  0.5554630000000 1.0
C      1  0.5055460000000  0.5015760000000  0.5277590000000 1.0
C      1  0.4798280000000  0.5979210000000  0.5493590000000 1.0
C      1  0.5288350000000  0.4870800000000  0.6049860000000 1.0
C      1  0.4349510000000  0.5195100000000  0.5776620000000 1.0
C      1  0.5140130000000  0.4421820000000  0.5987210000000 1.0
C      1  0.4606140000000  0.5662130000000  0.5362140000000 1.0
C      1  0.5626250000000  0.5519810000000  0.4826570000000 1.0
C      1  0.5189540000000  0.4769760000000  0.4841310000000 1.0
C      1  0.4738310000000  0.5450050000000  0.5855090000000 1.0
C      1  0.5639450000000  0.4207490000000  0.5367940000000 1.0
END
