TITL C-2847959-7740-14 -0.00279196115385576 125000 -569.68126499209 0 0 101 (C1) n - 1
REM
REM in /home/bkarasulu/work/CARBON/AIRSS/Generating-Clusters/AIREBO/with-SteepDescent/Only-C1/SD-CG-opt/Try1-1.4A-POS3A/HFTN-CG
REM
REM
REM
REM
REM
REM ./C.cell (11c1c37f851c82e70ff6c80c92926a4b)
REM
REM compiler GCC version 9.2.1 20190827 (Red Hat 9.2.1-1)
REM options -cpp -mtune=generic -march=x86-64 -g -O0 -fpre-include=/usr/include/finclude/math-vector-fortran.h
REM seed -394206673 2094964351 -195661422 1841673693 19298412 1960440586 -62480222 1754707255 -1926145807 1357432790 1996784759 95976527 -283485727 432181173 1903753771 -883224102 -1640908808 80324060 -1562669040 -1338997632 376387195 114627310 50936838 1502921954 -780570771 -1250255884 1266430759 -1385480521 -1250677087 -1427609762 -2057088424 521730916 467871786
REM
CELL 1.54180   50.00000   50.00000   50.00000   90.00000   90.00000   90.00000
LATT -1
SFAC C  
C      1  0.4883270000000  0.4307540000000  0.4974800000000 1.0
C      1  0.5029270000000  0.5436400000000  0.5707360000000 1.0
C      1  0.5309760000000  0.4211920000000  0.4789760000000 1.0
C      1  0.4867160000000  0.5727310000000  0.4574330000000 1.0
C      1  0.5567450000000  0.5391170000000  0.4707350000000 1.0
C      1  0.4556710000000  0.4838460000000  0.5490590000000 1.0
C      1  0.4206420000000  0.5481710000000  0.4852640000000 1.0
C      1  0.5180320000000  0.5575980000000  0.4933800000000 1.0
C      1  0.4440140000000  0.4988250000000  0.4705740000000 1.0
C      1  0.5890930000000  0.5012840000000  0.4858130000000 1.0
C      1  0.4889170000000  0.5163510000000  0.5586530000000 1.0
C      1  0.4957890000000  0.5530350000000  0.5437760000000 1.0
C      1  0.5089390000000  0.4953550000000  0.5554550000000 1.0
C      1  0.5591050000000  0.4241920000000  0.5407170000000 1.0
C      1  0.4969890000000  0.5878680000000  0.5078960000000 1.0
C      1  0.5270120000000  0.5748150000000  0.4694680000000 1.0
C      1  0.5557060000000  0.4539250000000  0.4585080000000 1.0
C      1  0.4305570000000  0.5450020000000  0.5344660000000 1.0
C      1  0.5110560000000  0.5257390000000  0.4234370000000 1.0
C      1  0.5029540000000  0.4960890000000  0.6341840000000 1.0
C      1  0.5086790000000  0.4076120000000  0.5229460000000 1.0
C      1  0.5100820000000  0.4852000000000  0.6029060000000 1.0
C      1  0.4373480000000  0.4767580000000  0.5219260000000 1.0
C      1  0.5175150000000  0.4398810000000  0.4335730000000 1.0
C      1  0.5253530000000  0.4743240000000  0.5745390000000 1.0
C      1  0.4936310000000  0.5143590000000  0.6070130000000 1.0
C      1  0.4588570000000  0.5399150000000  0.5705430000000 1.0
C      1  0.5369140000000  0.5260930000000  0.5281750000000 1.0
C      1  0.5225280000000  0.5067490000000  0.5041880000000 1.0
C      1  0.5309740000000  0.4754940000000  0.5407420000000 1.0
C      1  0.5007070000000  0.5198520000000  0.4673350000000 1.0
C      1  0.4199000000000  0.5164090000000  0.4761130000000 1.0
C      1  0.4395150000000  0.5592760000000  0.4422630000000 1.0
C      1  0.4588430000000  0.4306820000000  0.5245020000000 1.0
C      1  0.4448060000000  0.4498670000000  0.5086720000000 1.0
C      1  0.5485430000000  0.4944670000000  0.5223260000000 1.0
C      1  0.5319390000000  0.5208490000000  0.4772020000000 1.0
C      1  0.4462600000000  0.5095720000000  0.5617850000000 1.0
C      1  0.4492390000000  0.5563030000000  0.4924780000000 1.0
C      1  0.4203000000000  0.5424890000000  0.4539380000000 1.0
C      1  0.5377370000000  0.4780330000000  0.4682510000000 1.0
C      1  0.4561220000000  0.4698180000000  0.4339450000000 1.0
C      1  0.5393960000000  0.4317510000000  0.4532970000000 1.0
C      1  0.4925830000000  0.4678980000000  0.5814790000000 1.0
C      1  0.4031450000000  0.5048500000000  0.5000150000000 1.0
C      1  0.5102850000000  0.5407580000000  0.5212750000000 1.0
C      1  0.4529370000000  0.5952570000000  0.4932220000000 1.0
C      1  0.4775710000000  0.5283630000000  0.4292620000000 1.0
C      1  0.4525020000000  0.5043900000000  0.5091630000000 1.0
C      1  0.4929420000000  0.4520160000000  0.5198450000000 1.0
C      1  0.4689030000000  0.5560490000000  0.4336910000000 1.0
C      1  0.5396380000000  0.4480480000000  0.4946320000000 1.0
C      1  0.5072170000000  0.4193070000000  0.4175360000000 1.0
C      1  0.4642230000000  0.5481920000000  0.5380040000000 1.0
C      1  0.5796990000000  0.4426260000000  0.5376890000000 1.0
C      1  0.5313130000000  0.4234550000000  0.5347550000000 1.0
C      1  0.4767220000000  0.4428360000000  0.5465960000000 1.0
C      1  0.5885800000000  0.4696550000000  0.4976430000000 1.0
C      1  0.5492560000000  0.5532720000000  0.5177970000000 1.0
C      1  0.5264580000000  0.4657100000000  0.4170970000000 1.0
C      1  0.5124660000000  0.4635840000000  0.4822640000000 1.0
C      1  0.5318320000000  0.4996770000000  0.4201100000000 1.0
C      1  0.5023550000000  0.4854980000000  0.4140570000000 1.0
C      1  0.4718600000000  0.5157220000000  0.5313600000000 1.0
C      1  0.5914520000000  0.5165790000000  0.5318430000000 1.0
C      1  0.4248870000000  0.4668350000000  0.4306620000000 1.0
C      1  0.4630630000000  0.5294380000000  0.4887100000000 1.0
C      1  0.4719300000000  0.4624040000000  0.5647880000000 1.0
C      1  0.4670280000000  0.5737410000000  0.5156210000000 1.0
C      1  0.5055450000000  0.5480820000000  0.4490120000000 1.0
C      1  0.4841280000000  0.4751770000000  0.4367830000000 1.0
C      1  0.5566030000000  0.4920550000000  0.4893660000000 1.0
C      1  0.4685950000000  0.5154920000000  0.4570400000000 1.0
C      1  0.4813510000000  0.4833110000000  0.5267800000000 1.0
C      1  0.4968750000000  0.4526410000000  0.4552930000000 1.0
C      1  0.5877900000000  0.4675670000000  0.5260970000000 1.0
C      1  0.5267650000000  0.5769850000000  0.5199140000000 1.0
C      1  0.5448120000000  0.5613190000000  0.4536750000000 1.0
C      1  0.4928010000000  0.5368060000000  0.4940830000000 1.0
C      1  0.4503990000000  0.4503510000000  0.4811860000000 1.0
C      1  0.5890230000000  0.5265760000000  0.5052410000000 1.0
C      1  0.5096860000000  0.4102640000000  0.4928740000000 1.0
C      1  0.4155750000000  0.4998590000000  0.5237580000000 1.0
C      1  0.5705380000000  0.4536220000000  0.4850850000000 1.0
C      1  0.5669260000000  0.5097890000000  0.4617080000000 1.0
C      1  0.5021960000000  0.5912010000000  0.4787840000000 1.0
C      1  0.5692750000000  0.5460170000000  0.4982250000000 1.0
C      1  0.4391160000000  0.4696780000000  0.4616640000000 1.0
C      1  0.4231570000000  0.5191810000000  0.5428090000000 1.0
C      1  0.5769620000000  0.4923470000000  0.5356240000000 1.0
C      1  0.5072380000000  0.5404820000000  0.5972400000000 1.0
C      1  0.5594530000000  0.5040530000000  0.4347650000000 1.0
C      1  0.4558260000000  0.5755000000000  0.4658360000000 1.0
C      1  0.5232810000000  0.4515990000000  0.5241640000000 1.0
C      1  0.4755450000000  0.4403070000000  0.4750340000000 1.0
C      1  0.5098530000000  0.4903790000000  0.4530340000000 1.0
C      1  0.4719470000000  0.4910780000000  0.4883710000000 1.0
C      1  0.5320340000000  0.5520830000000  0.4281280000000 1.0
C      1  0.5007120000000  0.4852460000000  0.4990820000000 1.0
C      1  0.4799250000000  0.4073590000000  0.5290500000000 1.0
C      1  0.4698660000000  0.5121510000000  0.5865090000000 1.0
END
