TITL C-2848501-3133-686 -0.00404881418738523 125000 -948.482691564498 0 0 175 (C1) n - 1
REM
REM in /home/bkarasulu/work/CARBON/AIRSS/Generating-Clusters/AIREBO/with-SteepDescent/Only-C1/SD-CG-opt/Try1-1.4A-POS3A/HFTN-CG
REM
REM
REM
REM
REM
REM ./C.cell (11c1c37f851c82e70ff6c80c92926a4b)
REM
REM compiler GCC version 9.2.1 20190827 (Red Hat 9.2.1-1)
REM options -cpp -mtune=generic -march=x86-64 -g -O0 -fpre-include=/usr/include/finclude/math-vector-fortran.h
REM seed -1143586599 1040334572 -1893826474 -1837346413 -981913834 -1602593358 -1545969870 -1439504945 -1745752458 -1416483524 -2088425220 1903114041 -161955383 -707458508 -1434339825 526484916 1375836391 467435349 1513746059 -1052584564 1889882729 -2082640148 -604652182 -580471865 -621360480 1323200847 438475565 -1685975807 792030520 -90268605 225251878 -1570552151 1613100367
REM
CELL 1.54180   50.00000   50.00000   50.00000   90.00000   90.00000   90.00000
LATT -1
SFAC C  
C      1  0.4372420000000  0.4200220000000  0.5164510000000 1.0
C      1  0.5031260000000  0.4279480000000  0.4494090000000 1.0
C      1  0.5439450000000  0.4757590000000  0.5092830000000 1.0
C      1  0.4984380000000  0.5699160000000  0.5274470000000 1.0
C      1  0.5451790000000  0.5170690000000  0.4291500000000 1.0
C      1  0.4850740000000  0.4900020000000  0.5562600000000 1.0
C      1  0.5063460000000  0.4792500000000  0.4537400000000 1.0
C      1  0.4419970000000  0.4805610000000  0.5228140000000 1.0
C      1  0.5218360000000  0.3807360000000  0.5263900000000 1.0
C      1  0.6000850000000  0.5211530000000  0.5162660000000 1.0
C      1  0.4487960000000  0.4762700000000  0.3985800000000 1.0
C      1  0.5663620000000  0.4557360000000  0.5222270000000 1.0
C      1  0.3959770000000  0.5305050000000  0.5454220000000 1.0
C      1  0.4324950000000  0.5658290000000  0.4753210000000 1.0
C      1  0.5543640000000  0.5320570000000  0.4670390000000 1.0
C      1  0.4398180000000  0.4718530000000  0.5881290000000 1.0
C      1  0.5053460000000  0.4234420000000  0.5295360000000 1.0
C      1  0.5615420000000  0.4062560000000  0.4888210000000 1.0
C      1  0.5280000000000  0.4410950000000  0.5756980000000 1.0
C      1  0.4975070000000  0.5271680000000  0.5018160000000 1.0
C      1  0.5765900000000  0.5069700000000  0.4987040000000 1.0
C      1  0.5677680000000  0.5569520000000  0.4498130000000 1.0
C      1  0.5318300000000  0.5677190000000  0.5214120000000 1.0
C      1  0.5327310000000  0.5030600000000  0.5447810000000 1.0
C      1  0.4954730000000  0.6099070000000  0.4905330000000 1.0
C      1  0.5779480000000  0.5622120000000  0.5445360000000 1.0
C      1  0.4900720000000  0.5327720000000  0.4561830000000 1.0
C      1  0.5417570000000  0.5418740000000  0.5411570000000 1.0
C      1  0.4777560000000  0.4971780000000  0.6095970000000 1.0
C      1  0.5788620000000  0.4616460000000  0.4765280000000 1.0
C      1  0.5323240000000  0.4274010000000  0.4122890000000 1.0
C      1  0.4275300000000  0.5670290000000  0.5554880000000 1.0
C      1  0.5416520000000  0.4379170000000  0.5215730000000 1.0
C      1  0.5192910000000  0.3882160000000  0.4741130000000 1.0
C      1  0.4456280000000  0.5291060000000  0.4984330000000 1.0
C      1  0.4903330000000  0.5754990000000  0.4435830000000 1.0
C      1  0.5340360000000  0.6008750000000  0.5234000000000 1.0
C      1  0.4558480000000  0.4352890000000  0.4636820000000 1.0
C      1  0.4809420000000  0.4954490000000  0.4234230000000 1.0
C      1  0.5230170000000  0.5093890000000  0.6135480000000 1.0
C      1  0.4636230000000  0.4066460000000  0.4764320000000 1.0
C      1  0.4863400000000  0.5991380000000  0.5179870000000 1.0
C      1  0.4223420000000  0.5452930000000  0.5298550000000 1.0
C      1  0.5976170000000  0.4723800000000  0.4534680000000 1.0
C      1  0.4986150000000  0.5173230000000  0.4093430000000 1.0
C      1  0.5604780000000  0.4509760000000  0.5724120000000 1.0
C      1  0.4322090000000  0.5130420000000  0.5252560000000 1.0
C      1  0.4797800000000  0.4924480000000  0.5139240000000 1.0
C      1  0.4214030000000  0.5705910000000  0.5071390000000 1.0
C      1  0.4418290000000  0.5279210000000  0.5845890000000 1.0
C      1  0.5516830000000  0.5477370000000  0.5807370000000 1.0
C      1  0.4157150000000  0.4370540000000  0.5329340000000 1.0
C      1  0.4251460000000  0.4444990000000  0.4614130000000 1.0
C      1  0.4722640000000  0.6061760000000  0.4704610000000 1.0
C      1  0.5401590000000  0.5287020000000  0.3913730000000 1.0
C      1  0.5228230000000  0.5296900000000  0.4594380000000 1.0
C      1  0.5288650000000  0.4574880000000  0.4114650000000 1.0
C      1  0.5062940000000  0.5765100000000  0.4714200000000 1.0
C      1  0.4113880000000  0.4995290000000  0.4681720000000 1.0
C      1  0.4613330000000  0.5484800000000  0.4470460000000 1.0
C      1  0.5576560000000  0.5194470000000  0.5822940000000 1.0
C      1  0.5587930000000  0.4736390000000  0.4113640000000 1.0
C      1  0.5928230000000  0.4604520000000  0.5050850000000 1.0
C      1  0.4764620000000  0.4005600000000  0.4997530000000 1.0
C      1  0.4978860000000  0.4662840000000  0.4234610000000 1.0
C      1  0.4413410000000  0.5254070000000  0.4104510000000 1.0
C      1  0.4802740000000  0.4680320000000  0.3944080000000 1.0
C      1  0.4172930000000  0.4551600000000  0.4869030000000 1.0
C      1  0.4915420000000  0.5584220000000  0.4961860000000 1.0
C      1  0.4702320000000  0.4534750000000  0.4882400000000 1.0
C      1  0.5652470000000  0.4971590000000  0.4305300000000 1.0
C      1  0.5989970000000  0.5375740000000  0.4861170000000 1.0
C      1  0.5647790000000  0.5082130000000  0.5549220000000 1.0
C      1  0.4031060000000  0.5126980000000  0.5669180000000 1.0
C      1  0.5724850000000  0.5649690000000  0.5709260000000 1.0
C      1  0.5044990000000  0.5830610000000  0.5582230000000 1.0
C      1  0.5222590000000  0.6075650000000  0.5477250000000 1.0
C      1  0.4244400000000  0.4928870000000  0.5775170000000 1.0
C      1  0.5484630000000  0.5069790000000  0.5148860000000 1.0
C      1  0.4704230000000  0.4702070000000  0.5940950000000 1.0
C      1  0.5488510000000  0.5005560000000  0.3929370000000 1.0
C      1  0.5649260000000  0.5032900000000  0.4609220000000 1.0
C      1  0.4275020000000  0.4546440000000  0.4131490000000 1.0
C      1  0.4436190000000  0.5889190000000  0.5465260000000 1.0
C      1  0.6000240000000  0.4880040000000  0.5239960000000 1.0
C      1  0.4177850000000  0.5424380000000  0.4622390000000 1.0
C      1  0.3927130000000  0.5221280000000  0.5165740000000 1.0
C      1  0.4774280000000  0.5109050000000  0.5783120000000 1.0
C      1  0.4837190000000  0.5431780000000  0.5424740000000 1.0
C      1  0.4649590000000  0.4700540000000  0.5435240000000 1.0
C      1  0.4413510000000  0.5542360000000  0.5765860000000 1.0
C      1  0.4822450000000  0.4589870000000  0.5191220000000 1.0
C      1  0.4055320000000  0.4797260000000  0.4910110000000 1.0
C      1  0.4701180000000  0.5123490000000  0.5379030000000 1.0
C      1  0.5464720000000  0.4849150000000  0.4766360000000 1.0
C      1  0.5268660000000  0.4808640000000  0.3889840000000 1.0
C      1  0.4551770000000  0.5539010000000  0.5282210000000 1.0
C      1  0.5689500000000  0.5395960000000  0.4969950000000 1.0
C      1  0.4719050000000  0.5184440000000  0.4811000000000 1.0
C      1  0.5091570000000  0.4017400000000  0.5036220000000 1.0
C      1  0.4057050000000  0.4947660000000  0.5142590000000 1.0
C      1  0.4039070000000  0.4757760000000  0.4224710000000 1.0
C      1  0.5108900000000  0.5331330000000  0.6191130000000 1.0
C      1  0.4601050000000  0.5775640000000  0.4592070000000 1.0
C      1  0.5083920000000  0.4158220000000  0.4048690000000 1.0
C      1  0.5167810000000  0.5007390000000  0.4762200000000 1.0
C      1  0.5141560000000  0.4564020000000  0.5276370000000 1.0
C      1  0.5058190000000  0.4887180000000  0.5951530000000 1.0
C      1  0.5751290000000  0.4597140000000  0.5510430000000 1.0
C      1  0.4948520000000  0.5469340000000  0.4256400000000 1.0
C      1  0.4816610000000  0.5821310000000  0.5959980000000 1.0
C      1  0.4983860000000  0.4573530000000  0.5796060000000 1.0
C      1  0.5741560000000  0.5315450000000  0.5356830000000 1.0
C      1  0.4625790000000  0.4075830000000  0.5230170000000 1.0
C      1  0.5600340000000  0.5929430000000  0.4631370000000 1.0
C      1  0.4409890000000  0.4512920000000  0.5054690000000 1.0
C      1  0.5248130000000  0.5522170000000  0.4102850000000 1.0
C      1  0.5237840000000  0.4037530000000  0.4522360000000 1.0
C      1  0.4788390000000  0.4202790000000  0.5419960000000 1.0
C      1  0.5161640000000  0.5070010000000  0.4367230000000 1.0
C      1  0.5489220000000  0.4565450000000  0.4638210000000 1.0
C      1  0.4026350000000  0.4983580000000  0.4378790000000 1.0
C      1  0.5450810000000  0.4151390000000  0.4352710000000 1.0
C      1  0.5461040000000  0.4989860000000  0.5979720000000 1.0
C      1  0.4385260000000  0.4836930000000  0.4687520000000 1.0
C      1  0.4724760000000  0.4516250000000  0.4406820000000 1.0
C      1  0.5356000000000  0.4218890000000  0.4964920000000 1.0
C      1  0.5708880000000  0.4582840000000  0.4378820000000 1.0
C      1  0.4525990000000  0.5174200000000  0.4530090000000 1.0
C      1  0.5388400000000  0.4729570000000  0.5805530000000 1.0
C      1  0.5374610000000  0.5676010000000  0.4609910000000 1.0
C      1  0.4368130000000  0.5930880000000  0.5193960000000 1.0
C      1  0.4986160000000  0.4541590000000  0.4705970000000 1.0
C      1  0.5855000000000  0.4856990000000  0.5492210000000 1.0
C      1  0.5109830000000  0.4826780000000  0.5045860000000 1.0
C      1  0.4667740000000  0.5613090000000  0.5657200000000 1.0
C      1  0.4623570000000  0.5464990000000  0.4142270000000 1.0
C      1  0.4756680000000  0.4373750000000  0.5638860000000 1.0
C      1  0.5801640000000  0.4205550000000  0.4724290000000 1.0
C      1  0.5008910000000  0.4912520000000  0.3892370000000 1.0
C      1  0.5121860000000  0.5273340000000  0.5327270000000 1.0
C      1  0.4499310000000  0.4963940000000  0.4259670000000 1.0
C      1  0.5240080000000  0.5563440000000  0.5663130000000 1.0
C      1  0.4841180000000  0.4277090000000  0.4211350000000 1.0
C      1  0.4589480000000  0.4434650000000  0.4042950000000 1.0
C      1  0.5985480000000  0.5535230000000  0.4625020000000 1.0
C      1  0.4980390000000  0.5374310000000  0.5727870000000 1.0
C      1  0.6020740000000  0.4322280000000  0.4885210000000 1.0
C      1  0.4648570000000  0.5265480000000  0.6057580000000 1.0
C      1  0.5691320000000  0.4270220000000  0.4461780000000 1.0
C      1  0.4639100000000  0.4867490000000  0.4847220000000 1.0
C      1  0.5305290000000  0.5231020000000  0.4978360000000 1.0
C      1  0.4226320000000  0.5229770000000  0.4379360000000 1.0
C      1  0.4428310000000  0.5109890000000  0.5574900000000 1.0
C      1  0.5157820000000  0.4756550000000  0.5556940000000 1.0
C      1  0.4040940000000  0.4113490000000  0.5203080000000 1.0
C      1  0.4130100000000  0.5251720000000  0.4894510000000 1.0
C      1  0.5479510000000  0.5444680000000  0.4272540000000 1.0
C      1  0.5938700000000  0.4977930000000  0.4712170000000 1.0
C      1  0.4585680000000  0.5605090000000  0.4964970000000 1.0
C      1  0.5171010000000  0.5112170000000  0.5738560000000 1.0
C      1  0.6263780000000  0.4207120000000  0.4934730000000 1.0
C      1  0.5537970000000  0.5848240000000  0.4928020000000 1.0
C      1  0.4724290000000  0.5923890000000  0.5648800000000 1.0
C      1  0.4602030000000  0.5942980000000  0.4999480000000 1.0
C      1  0.4266820000000  0.4591420000000  0.5435900000000 1.0
C      1  0.5323960000000  0.3911780000000  0.5471450000000 1.0
C      1  0.4484230000000  0.4528570000000  0.5656070000000 1.0
C      1  0.5327560000000  0.5549730000000  0.4914350000000 1.0
C      1  0.4880950000000  0.5510910000000  0.6020570000000 1.0
C      1  0.4423540000000  0.4661940000000  0.4414740000000 1.0
C      1  0.5650500000000  0.5644310000000  0.5149500000000 1.0
C      1  0.5270950000000  0.4382790000000  0.4718920000000 1.0
C      1  0.5237920000000  0.5960990000000  0.4913330000000 1.0
C      1  0.5313140000000  0.4230030000000  0.5503260000000 1.0
END
