TITL C-2847945-6269-733 0.00022889166317962 125000 -329.925430077966 0 0 61 (C1) n - 1
REM
REM in /home/bkarasulu/work/CARBON/AIRSS/Generating-Clusters/AIREBO/with-SteepDescent/Only-C1/SD-CG-opt/Try1-1.4A-POS3A/HFTN-CG
REM
REM
REM
REM
REM
REM ./C.cell (11c1c37f851c82e70ff6c80c92926a4b)
REM
REM compiler GCC version 9.2.1 20190827 (Red Hat 9.2.1-1)
REM options -cpp -mtune=generic -march=x86-64 -g -O0 -fpre-include=/usr/include/finclude/math-vector-fortran.h
REM seed 1446818506 2125985814 1880531454 -612276946 -1534268711 -756174672 968283263 661919384 -849901602 198836034 -807956344 -1733859727 -1011817880 -310394175 1679753558 -56400604 150762346 1001019587 2051835117 -1773381124 -1108113734 -166722141 1347902692 755254984 -781451575 -1563215894 713638797 -126273431 -736591702 297050328 1626126845 -594445032 -2144171352
REM
CELL 1.54180   50.00000   50.00000   50.00000   90.00000   90.00000   90.00000
LATT -1
SFAC C  
C      1  0.5392100000000  0.4938680000000  0.5067920000000 1.0
C      1  0.4889590000000  0.4515490000000  0.4545820000000 1.0
C      1  0.5402740000000  0.5486760000000  0.5182880000000 1.0
C      1  0.4699600000000  0.4611190000000  0.5505970000000 1.0
C      1  0.5631630000000  0.5287890000000  0.4475150000000 1.0
C      1  0.5246380000000  0.5514050000000  0.4493520000000 1.0
C      1  0.5710510000000  0.5259820000000  0.4785470000000 1.0
C      1  0.5002240000000  0.4734080000000  0.5444990000000 1.0
C      1  0.4753340000000  0.5285050000000  0.5558270000000 1.0
C      1  0.4763150000000  0.5179360000000  0.4707710000000 1.0
C      1  0.4487620000000  0.5267970000000  0.4994510000000 1.0
C      1  0.4637700000000  0.4282850000000  0.5183740000000 1.0
C      1  0.4560410000000  0.5522210000000  0.4780500000000 1.0
C      1  0.5357700000000  0.5628410000000  0.4941790000000 1.0
C      1  0.4581790000000  0.4991670000000  0.4489190000000 1.0
C      1  0.5125780000000  0.4848700000000  0.5707440000000 1.0
C      1  0.4605400000000  0.4798000000000  0.5212810000000 1.0
C      1  0.5143860000000  0.5072960000000  0.4675240000000 1.0
C      1  0.5265850000000  0.5211100000000  0.5152610000000 1.0
C      1  0.4919840000000  0.5656280000000  0.5185550000000 1.0
C      1  0.5271040000000  0.4593440000000  0.4482970000000 1.0
C      1  0.5148620000000  0.5235200000000  0.4392920000000 1.0
C      1  0.4661900000000  0.4324180000000  0.5455220000000 1.0
C      1  0.4402070000000  0.5068360000000  0.5178340000000 1.0
C      1  0.4472180000000  0.4722180000000  0.4585400000000 1.0
C      1  0.4328070000000  0.4967250000000  0.5444900000000 1.0
C      1  0.5011550000000  0.4722900000000  0.4304500000000 1.0
C      1  0.4913520000000  0.4920420000000  0.5883260000000 1.0
C      1  0.4776840000000  0.4949780000000  0.4259730000000 1.0
C      1  0.4683680000000  0.4535970000000  0.5010490000000 1.0
C      1  0.5543120000000  0.4651550000000  0.4679150000000 1.0
C      1  0.4512090000000  0.5478780000000  0.5588680000000 1.0
C      1  0.5367180000000  0.4898440000000  0.4565780000000 1.0
C      1  0.5072460000000  0.5276580000000  0.4937680000000 1.0
C      1  0.5510880000000  0.5072720000000  0.4355220000000 1.0
C      1  0.5227280000000  0.4966250000000  0.4200320000000 1.0
C      1  0.5623770000000  0.4726240000000  0.4971190000000 1.0
C      1  0.4529860000000  0.4855150000000  0.5611920000000 1.0
C      1  0.5509490000000  0.5172250000000  0.5737010000000 1.0
C      1  0.4919860000000  0.4919800000000  0.4865010000000 1.0
C      1  0.5500590000000  0.5512390000000  0.4694380000000 1.0
C      1  0.4990990000000  0.5502250000000  0.5464430000000 1.0
C      1  0.4979850000000  0.4604760000000  0.4924310000000 1.0
C      1  0.5694860000000  0.5057470000000  0.4973310000000 1.0
C      1  0.4900050000000  0.5192660000000  0.4192170000000 1.0
C      1  0.4656130000000  0.4558200000000  0.4694750000000 1.0
C      1  0.5567480000000  0.4413070000000  0.4999170000000 1.0
C      1  0.5151100000000  0.4421760000000  0.4735680000000 1.0
C      1  0.4431520000000  0.5235120000000  0.4657520000000 1.0
C      1  0.5305620000000  0.5593260000000  0.5420930000000 1.0
C      1  0.5110270000000  0.5190290000000  0.5410570000000 1.0
C      1  0.4961530000000  0.5453290000000  0.4669190000000 1.0
C      1  0.4299350000000  0.4649980000000  0.5203610000000 1.0
C      1  0.5279210000000  0.5072980000000  0.5633850000000 1.0
C      1  0.5075400000000  0.5672480000000  0.4907720000000 1.0
C      1  0.4694500000000  0.5035250000000  0.5745730000000 1.0
C      1  0.4821060000000  0.5011050000000  0.5367130000000 1.0
C      1  0.5378420000000  0.4288080000000  0.4889190000000 1.0
C      1  0.4779570000000  0.5428290000000  0.5020270000000 1.0
C      1  0.5097430000000  0.4820210000000  0.5143380000000 1.0
C      1  0.4662380000000  0.4137170000000  0.5651980000000 1.0
END
