TITL C-2847949-8115-193 -0.00227408621877312 125000 -885.465093720191 0 0 161 (C1) n - 1
REM
REM in /home/bkarasulu/work/CARBON/AIRSS/Generating-Clusters/AIREBO/with-SteepDescent/Only-C1/SD-CG-opt/Try1-1.4A-POS3A/HFTN-CG
REM
REM
REM
REM
REM
REM ./C.cell (11c1c37f851c82e70ff6c80c92926a4b)
REM
REM compiler GCC version 9.2.1 20190827 (Red Hat 9.2.1-1)
REM options -cpp -mtune=generic -march=x86-64 -g -O0 -fpre-include=/usr/include/finclude/math-vector-fortran.h
REM seed -1552024507 -650971599 -1061398247 698590628 1508393819 578799024 626095993 271433786 2105530868 -588669714 -1087572701 1035123365 1948221504 68641937 908059938 -480770606 -1293677442 -802756449 483501497 810249615 -744830202 172317178 1525300570 -2061245935 -436015408 69123792 -362405097 -1955549839 -1776323769 997139725 1250206892 -1862030864 1460308320
REM
CELL 1.54180   50.00000   50.00000   50.00000   90.00000   90.00000   90.00000
LATT -1
SFAC C  
C      1  0.4829720000000  0.5464440000000  0.5251960000000 1.0
C      1  0.5457660000000  0.4963810000000  0.4005350000000 1.0
C      1  0.4976280000000  0.5190640000000  0.3897320000000 1.0
C      1  0.5289500000000  0.4121140000000  0.5320800000000 1.0
C      1  0.3889920000000  0.4902410000000  0.5188270000000 1.0
C      1  0.4062020000000  0.4811620000000  0.5655560000000 1.0
C      1  0.3980810000000  0.5012450000000  0.5456220000000 1.0
C      1  0.4706790000000  0.4678660000000  0.6028520000000 1.0
C      1  0.5850900000000  0.4958190000000  0.4414920000000 1.0
C      1  0.5447740000000  0.5160490000000  0.4622360000000 1.0
C      1  0.5514240000000  0.5215700000000  0.4302590000000 1.0
C      1  0.4362790000000  0.5897670000000  0.4843010000000 1.0
C      1  0.5280750000000  0.5628210000000  0.5418070000000 1.0
C      1  0.4504860000000  0.4821940000000  0.5893720000000 1.0
C      1  0.4160210000000  0.4376310000000  0.4311240000000 1.0
C      1  0.5183790000000  0.4899230000000  0.4479880000000 1.0
C      1  0.4984500000000  0.5666120000000  0.5426020000000 1.0
C      1  0.4189430000000  0.4786540000000  0.5204090000000 1.0
C      1  0.5308200000000  0.5230210000000  0.5399480000000 1.0
C      1  0.4471560000000  0.4958290000000  0.5284970000000 1.0
C      1  0.4763250000000  0.5848480000000  0.4585110000000 1.0
C      1  0.5644710000000  0.3863390000000  0.5080370000000 1.0
C      1  0.5927010000000  0.4634050000000  0.4357850000000 1.0
C      1  0.5170490000000  0.5555140000000  0.5895960000000 1.0
C      1  0.6088300000000  0.5333940000000  0.4970220000000 1.0
C      1  0.5466800000000  0.5604170000000  0.4381020000000 1.0
C      1  0.4551560000000  0.4784970000000  0.5566650000000 1.0
C      1  0.4849910000000  0.5267310000000  0.5641610000000 1.0
C      1  0.4480780000000  0.5238880000000  0.4560380000000 1.0
C      1  0.4278020000000  0.4681810000000  0.4401050000000 1.0
C      1  0.5209920000000  0.5494450000000  0.4253110000000 1.0
C      1  0.4933750000000  0.6010260000000  0.4732810000000 1.0
C      1  0.5225190000000  0.4187330000000  0.4294200000000 1.0
C      1  0.4805520000000  0.5236070000000  0.4661120000000 1.0
C      1  0.4693610000000  0.4002420000000  0.4513090000000 1.0
C      1  0.4805720000000  0.4084960000000  0.5120890000000 1.0
C      1  0.4853180000000  0.4482650000000  0.5319310000000 1.0
C      1  0.5696500000000  0.4841550000000  0.5173360000000 1.0
C      1  0.5357500000000  0.4612010000000  0.5491680000000 1.0
C      1  0.5659040000000  0.4772930000000  0.4201210000000 1.0
C      1  0.5138940000000  0.3878870000000  0.5410930000000 1.0
C      1  0.5140000000000  0.4256290000000  0.4603180000000 1.0
C      1  0.4546290000000  0.4131520000000  0.5009590000000 1.0
C      1  0.4512450000000  0.4920800000000  0.4460560000000 1.0
C      1  0.6145590000000  0.5053390000000  0.4948770000000 1.0
C      1  0.5280850000000  0.5220560000000  0.4912560000000 1.0
C      1  0.5440690000000  0.4511260000000  0.4205550000000 1.0
C      1  0.4141140000000  0.5429600000000  0.4291890000000 1.0
C      1  0.5276130000000  0.4229260000000  0.4876530000000 1.0
C      1  0.4966680000000  0.6273290000000  0.4689500000000 1.0
C      1  0.4253100000000  0.5195820000000  0.5402840000000 1.0
C      1  0.4631750000000  0.5465170000000  0.4912030000000 1.0
C      1  0.5477100000000  0.4340810000000  0.5474990000000 1.0
C      1  0.4885980000000  0.3863080000000  0.5283080000000 1.0
C      1  0.4159320000000  0.4769700000000  0.4807500000000 1.0
C      1  0.4857420000000  0.5602420000000  0.5949730000000 1.0
C      1  0.5241000000000  0.3699340000000  0.5589220000000 1.0
C      1  0.5129920000000  0.4423920000000  0.4100220000000 1.0
C      1  0.5543170000000  0.4587740000000  0.5139590000000 1.0
C      1  0.4393860000000  0.5618780000000  0.4401640000000 1.0
C      1  0.4450390000000  0.4463070000000  0.5610810000000 1.0
C      1  0.5421500000000  0.5606540000000  0.4659150000000 1.0
C      1  0.5016150000000  0.6302180000000  0.5745670000000 1.0
C      1  0.5634810000000  0.5576100000000  0.4873120000000 1.0
C      1  0.5936170000000  0.5463330000000  0.4759060000000 1.0
C      1  0.5525030000000  0.5741000000000  0.5122230000000 1.0
C      1  0.5677000000000  0.5121700000000  0.5769360000000 1.0
C      1  0.4655300000000  0.4446540000000  0.4789150000000 1.0
C      1  0.5585590000000  0.4339460000000  0.4918920000000 1.0
C      1  0.5900680000000  0.4841530000000  0.5414200000000 1.0
C      1  0.4935040000000  0.4542450000000  0.3963060000000 1.0
C      1  0.5712020000000  0.5457880000000  0.4286480000000 1.0
C      1  0.4907710000000  0.5056740000000  0.4202230000000 1.0
C      1  0.4299580000000  0.4406060000000  0.4602750000000 1.0
C      1  0.5602560000000  0.4132420000000  0.5188210000000 1.0
C      1  0.5708620000000  0.4283830000000  0.4606830000000 1.0
C      1  0.4941670000000  0.4020050000000  0.4520220000000 1.0
C      1  0.4209590000000  0.5047620000000  0.4996840000000 1.0
C      1  0.5232320000000  0.5172770000000  0.5993680000000 1.0
C      1  0.4382300000000  0.5624000000000  0.4994660000000 1.0
C      1  0.5048440000000  0.5871490000000  0.4942250000000 1.0
C      1  0.4956560000000  0.5657580000000  0.4170760000000 1.0
C      1  0.4807670000000  0.4660070000000  0.4612670000000 1.0
C      1  0.4254210000000  0.4304600000000  0.5394200000000 1.0
C      1  0.5165020000000  0.4875200000000  0.5558110000000 1.0
C      1  0.4249450000000  0.4955480000000  0.5830080000000 1.0
C      1  0.5696270000000  0.5283190000000  0.5020510000000 1.0
C      1  0.4249720000000  0.5763790000000  0.5341820000000 1.0
C      1  0.4854040000000  0.5547680000000  0.4539020000000 1.0
C      1  0.5038510000000  0.6047720000000  0.5724250000000 1.0
C      1  0.5288160000000  0.5931840000000  0.5052160000000 1.0
C      1  0.4851400000000  0.4950300000000  0.4486470000000 1.0
C      1  0.5847510000000  0.5521140000000  0.5446940000000 1.0
C      1  0.4312980000000  0.4244640000000  0.5130240000000 1.0
C      1  0.5789750000000  0.4807960000000  0.4705790000000 1.0
C      1  0.5203960000000  0.3928160000000  0.4195470000000 1.0
C      1  0.4528540000000  0.4975090000000  0.4121200000000 1.0
C      1  0.5473930000000  0.4855850000000  0.5699000000000 1.0
C      1  0.5256400000000  0.5225520000000  0.4087000000000 1.0
C      1  0.3857760000000  0.4891260000000  0.4895950000000 1.0
C      1  0.5248080000000  0.5828780000000  0.5724790000000 1.0
C      1  0.4461090000000  0.4587080000000  0.4989870000000 1.0
C      1  0.5156690000000  0.5238160000000  0.4473320000000 1.0
C      1  0.4971970000000  0.5079240000000  0.4894370000000 1.0
C      1  0.4858890000000  0.4615200000000  0.5006150000000 1.0
C      1  0.4830500000000  0.5155070000000  0.5260710000000 1.0
C      1  0.5131940000000  0.4886780000000  0.3921740000000 1.0
C      1  0.4148590000000  0.4575750000000  0.5539680000000 1.0
C      1  0.5941500000000  0.4415920000000  0.4514760000000 1.0
C      1  0.4689220000000  0.5270530000000  0.4070000000000 1.0
C      1  0.5512580000000  0.4277840000000  0.4414130000000 1.0
C      1  0.5037580000000  0.5109410000000  0.6175630000000 1.0
C      1  0.4664110000000  0.5517620000000  0.5610110000000 1.0
C      1  0.5155790000000  0.5281300000000  0.5699100000000 1.0
C      1  0.4682500000000  0.5527980000000  0.4245960000000 1.0
C      1  0.5722280000000  0.5127050000000  0.4751450000000 1.0
C      1  0.4798970000000  0.4835560000000  0.3967970000000 1.0
C      1  0.5126900000000  0.5465300000000  0.4724620000000 1.0
C      1  0.4488410000000  0.4856690000000  0.4793610000000 1.0
C      1  0.4848350000000  0.4490580000000  0.5875400000000 1.0
C      1  0.5706150000000  0.5411380000000  0.5666080000000 1.0
C      1  0.4080660000000  0.5179510000000  0.4201250000000 1.0
C      1  0.5871060000000  0.4881270000000  0.5672840000000 1.0
C      1  0.5712850000000  0.4746480000000  0.5903090000000 1.0
C      1  0.4527120000000  0.5575310000000  0.5303360000000 1.0
C      1  0.4287860000000  0.5215920000000  0.5720280000000 1.0
C      1  0.4214600000000  0.4946300000000  0.4196990000000 1.0
C      1  0.4526140000000  0.4178510000000  0.4687150000000 1.0
C      1  0.5495350000000  0.5122650000000  0.6027370000000 1.0
C      1  0.4836210000000  0.4962910000000  0.5541220000000 1.0
C      1  0.5937210000000  0.5369890000000  0.5232020000000 1.0
C      1  0.4382310000000  0.5243680000000  0.4871460000000 1.0
C      1  0.4239170000000  0.5460190000000  0.4659570000000 1.0
C      1  0.5059880000000  0.4534810000000  0.4743890000000 1.0
C      1  0.4481370000000  0.5866270000000  0.4588050000000 1.0
C      1  0.4558090000000  0.4627550000000  0.5265260000000 1.0
C      1  0.5228710000000  0.4594650000000  0.5192190000000 1.0
C      1  0.5943160000000  0.4873820000000  0.4966830000000 1.0
C      1  0.5288400000000  0.4744250000000  0.4721220000000 1.0
C      1  0.4932610000000  0.5579180000000  0.4968650000000 1.0
C      1  0.4079310000000  0.5480510000000  0.4961500000000 1.0
C      1  0.4852030000000  0.5791490000000  0.5683760000000 1.0
C      1  0.4618240000000  0.5510380000000  0.6029030000000 1.0
C      1  0.4709650000000  0.4922520000000  0.5043870000000 1.0
C      1  0.5260960000000  0.4783590000000  0.4216140000000 1.0
C      1  0.4442110000000  0.5415240000000  0.5813960000000 1.0
C      1  0.4239820000000  0.5970040000000  0.5130600000000 1.0
C      1  0.5879050000000  0.5281070000000  0.4491730000000 1.0
C      1  0.5830860000000  0.4202920000000  0.5364530000000 1.0
C      1  0.5113580000000  0.5012870000000  0.5261210000000 1.0
C      1  0.4140970000000  0.5480090000000  0.5275720000000 1.0
C      1  0.5487550000000  0.5088000000000  0.5147940000000 1.0
C      1  0.5560590000000  0.4629410000000  0.4742940000000 1.0
C      1  0.5343620000000  0.5459790000000  0.5151140000000 1.0
C      1  0.5446920000000  0.5554810000000  0.5692990000000 1.0
C      1  0.5747410000000  0.4663170000000  0.6155160000000 1.0
C      1  0.4759800000000  0.4445110000000  0.5620780000000 1.0
C      1  0.5186350000000  0.4842340000000  0.4999720000000 1.0
C      1  0.4172280000000  0.4445790000000  0.4906990000000 1.0
C      1  0.5735600000000  0.5768380000000  0.5350350000000 1.0
C      1  0.5070260000000  0.4299810000000  0.5132010000000 1.0
END
