TITL C-2847944-5688-295 -0.000877166543099061 125000 -579.484162930327 0 0 106 (C1) n - 1
REM
REM in /home/bkarasulu/work/CARBON/AIRSS/Generating-Clusters/AIREBO/with-SteepDescent/Only-C1/SD-CG-opt/Try1-1.4A-POS3A/HFTN-CG
REM
REM
REM
REM
REM
REM ./C.cell (11c1c37f851c82e70ff6c80c92926a4b)
REM
REM compiler GCC version 9.2.1 20190827 (Red Hat 9.2.1-1)
REM options -cpp -mtune=generic -march=x86-64 -g -O0 -fpre-include=/usr/include/finclude/math-vector-fortran.h
REM seed 1375178405 -922464139 -806595471 177094714 128452848 508301421 -1078159992 173255546 -448312073 804903951 786975486 392738262 727675350 -1155017305 -25943442 2111370544 -977812979 502704823 -1379649927 869953335 694547138 -1493435174 -98387560 -312625012 463663460 -863691498 -511433562 -1953312023 628112275 1683742843 1392717128 -75311134 1701475622
REM
CELL 1.54180   50.00000   50.00000   50.00000   90.00000   90.00000   90.00000
LATT -1
SFAC C  
C      1  0.5550890000000  0.4563290000000  0.4716260000000 1.0
C      1  0.5070530000000  0.5281850000000  0.4484020000000 1.0
C      1  0.5684980000000  0.4550320000000  0.5098000000000 1.0
C      1  0.5363950000000  0.5009030000000  0.5026940000000 1.0
C      1  0.5630720000000  0.5498740000000  0.4587530000000 1.0
C      1  0.4623430000000  0.5330750000000  0.5795900000000 1.0
C      1  0.5089830000000  0.4231310000000  0.4980960000000 1.0
C      1  0.5884410000000  0.5171260000000  0.5094770000000 1.0
C      1  0.4578670000000  0.5423030000000  0.5509910000000 1.0
C      1  0.4613230000000  0.4870560000000  0.5680000000000 1.0
C      1  0.4668750000000  0.5570470000000  0.4307830000000 1.0
C      1  0.4120530000000  0.4970300000000  0.4803790000000 1.0
C      1  0.4279070000000  0.5037900000000  0.5539010000000 1.0
C      1  0.4391790000000  0.5688140000000  0.4750570000000 1.0
C      1  0.4577800000000  0.4252130000000  0.4654220000000 1.0
C      1  0.4961160000000  0.4563270000000  0.5694670000000 1.0
C      1  0.5292790000000  0.5465310000000  0.5159230000000 1.0
C      1  0.5036800000000  0.5662590000000  0.5511970000000 1.0
C      1  0.4859160000000  0.5530290000000  0.4580210000000 1.0
C      1  0.4597720000000  0.4833940000000  0.5409440000000 1.0
C      1  0.5117970000000  0.4735700000000  0.5181030000000 1.0
C      1  0.5247740000000  0.4688280000000  0.4806350000000 1.0
C      1  0.4436770000000  0.5693730000000  0.5497230000000 1.0
C      1  0.5263570000000  0.4381360000000  0.4041410000000 1.0
C      1  0.4633050000000  0.5472400000000  0.4811010000000 1.0
C      1  0.4344910000000  0.4478480000000  0.5399310000000 1.0
C      1  0.4865820000000  0.5409250000000  0.5888250000000 1.0
C      1  0.5246480000000  0.4468610000000  0.5066350000000 1.0
C      1  0.5158420000000  0.5435520000000  0.5734690000000 1.0
C      1  0.5699550000000  0.5876640000000  0.5098680000000 1.0
C      1  0.5867790000000  0.5085240000000  0.5376150000000 1.0
C      1  0.4556090000000  0.4288330000000  0.5401030000000 1.0
C      1  0.4889330000000  0.4839080000000  0.5791160000000 1.0
C      1  0.5047590000000  0.4724810000000  0.4336210000000 1.0
C      1  0.4392450000000  0.4734940000000  0.5157050000000 1.0
C      1  0.5169010000000  0.5693640000000  0.5242710000000 1.0
C      1  0.5531770000000  0.5802130000000  0.4894080000000 1.0
C      1  0.5498870000000  0.4284600000000  0.4640880000000 1.0
C      1  0.5556480000000  0.5104810000000  0.5501820000000 1.0
C      1  0.5283480000000  0.4793940000000  0.5746390000000 1.0
C      1  0.5201640000000  0.5003500000000  0.4385320000000 1.0
C      1  0.5704500000000  0.4776210000000  0.4521430000000 1.0
C      1  0.4629170000000  0.5916900000000  0.4738260000000 1.0
C      1  0.5629060000000  0.5404950000000  0.5363710000000 1.0
C      1  0.4554100000000  0.5033910000000  0.4508230000000 1.0
C      1  0.4834850000000  0.4839800000000  0.4136410000000 1.0
C      1  0.5868700000000  0.4971440000000  0.4902620000000 1.0
C      1  0.4940600000000  0.5122210000000  0.5620190000000 1.0
C      1  0.4873750000000  0.4780480000000  0.5108380000000 1.0
C      1  0.4539430000000  0.5187960000000  0.4790950000000 1.0
C      1  0.5695550000000  0.5391250000000  0.5087380000000 1.0
C      1  0.5476020000000  0.5108420000000  0.4263700000000 1.0
C      1  0.5143230000000  0.5343540000000  0.4786700000000 1.0
C      1  0.4775880000000  0.4045670000000  0.4681390000000 1.0
C      1  0.5593220000000  0.4120120000000  0.4853650000000 1.0
C      1  0.5526880000000  0.5158820000000  0.4769970000000 1.0
C      1  0.5179040000000  0.4444520000000  0.4296170000000 1.0
C      1  0.4458170000000  0.5090450000000  0.5800400000000 1.0
C      1  0.5931530000000  0.4882600000000  0.4637140000000 1.0
C      1  0.4445970000000  0.5199970000000  0.5357200000000 1.0
C      1  0.4861160000000  0.5306190000000  0.5360290000000 1.0
C      1  0.5055090000000  0.4243520000000  0.5706820000000 1.0
C      1  0.4949520000000  0.4731100000000  0.4648130000000 1.0
C      1  0.3953710000000  0.4858990000000  0.4328780000000 1.0
C      1  0.4202170000000  0.4785130000000  0.5434420000000 1.0
C      1  0.4358330000000  0.5001770000000  0.4962100000000 1.0
C      1  0.4878520000000  0.5333880000000  0.4234170000000 1.0
C      1  0.4172940000000  0.4928850000000  0.4485410000000 1.0
C      1  0.5459080000000  0.5966900000000  0.4686740000000 1.0
C      1  0.5607080000000  0.5247280000000  0.4451530000000 1.0
C      1  0.5057030000000  0.4154870000000  0.4691120000000 1.0
C      1  0.4516610000000  0.4346720000000  0.4930980000000 1.0
C      1  0.5275940000000  0.4483720000000  0.5604150000000 1.0
C      1  0.5581880000000  0.4254790000000  0.5100040000000 1.0
C      1  0.5611230000000  0.4806850000000  0.4945920000000 1.0
C      1  0.4876960000000  0.5795270000000  0.4779100000000 1.0
C      1  0.4660330000000  0.5781770000000  0.4128390000000 1.0
C      1  0.5445790000000  0.5474010000000  0.4871800000000 1.0
C      1  0.4474280000000  0.5853920000000  0.5262260000000 1.0
C      1  0.5951620000000  0.4406240000000  0.5556340000000 1.0
C      1  0.5406130000000  0.4913580000000  0.4605690000000 1.0
C      1  0.4455090000000  0.4744000000000  0.4440270000000 1.0
C      1  0.5138600000000  0.5202330000000  0.5193280000000 1.0
C      1  0.4815080000000  0.5003360000000  0.4716280000000 1.0
C      1  0.4977940000000  0.5815250000000  0.5034930000000 1.0
C      1  0.4629480000000  0.4637080000000  0.4966310000000 1.0
C      1  0.4299990000000  0.5246170000000  0.4476780000000 1.0
C      1  0.4643350000000  0.4581870000000  0.4636190000000 1.0
C      1  0.5748640000000  0.4463240000000  0.5391880000000 1.0
C      1  0.5246870000000  0.4263360000000  0.4514210000000 1.0
C      1  0.5356430000000  0.5558620000000  0.5899530000000 1.0
C      1  0.5137760000000  0.4782190000000  0.6014900000000 1.0
C      1  0.4353680000000  0.5871980000000  0.5022030000000 1.0
C      1  0.4840600000000  0.4050050000000  0.5009920000000 1.0
C      1  0.5264040000000  0.5121820000000  0.5655010000000 1.0
C      1  0.4868110000000  0.5115590000000  0.4069850000000 1.0
C      1  0.4757900000000  0.4311770000000  0.5586060000000 1.0
C      1  0.4586450000000  0.4727640000000  0.4154810000000 1.0
C      1  0.4780890000000  0.5749000000000  0.5303140000000 1.0
C      1  0.4892210000000  0.5211070000000  0.4974260000000 1.0
C      1  0.4399820000000  0.5512350000000  0.4473690000000 1.0
C      1  0.4748140000000  0.5495610000000  0.5102820000000 1.0
C      1  0.5340160000000  0.4916830000000  0.5343210000000 1.0
C      1  0.4652950000000  0.5036920000000  0.5142220000000 1.0
C      1  0.4610740000000  0.4177530000000  0.5144820000000 1.0
C      1  0.5415010000000  0.4410310000000  0.5353220000000 1.0
END
