TITL C-2847952-8118-83 -0.000651430866560969 125000 -316.782241222181 0 0 64 (C1) n - 1
REM
REM in /home/bkarasulu/work/CARBON/AIRSS/Generating-Clusters/AIREBO/with-SteepDescent/Only-C1/SD-CG-opt/Try1-1.4A-POS3A/HFTN-CG
REM
REM
REM
REM
REM
REM ./C.cell (11c1c37f851c82e70ff6c80c92926a4b)
REM
REM compiler GCC version 9.2.1 20190827 (Red Hat 9.2.1-1)
REM options -cpp -mtune=generic -march=x86-64 -g -O0 -fpre-include=/usr/include/finclude/math-vector-fortran.h
REM seed 1752594208 455673257 510374664 1009392146 -586349953 1260526007 2097411870 -1786381813 -1191825833 -1657687303 2079455017 1825963167 437013532 1883467754 582081841 -187135635 1068991439 1545750923 1481495189 -1674285910 1063175238 2138019427 -131676160 -631580124 -707347065 -652430541 -517131663 -1582156856 -1366771205 454259711 768658241 14146363 -1888008187
REM
CELL 1.54180   50.00000   50.00000   50.00000   90.00000   90.00000   90.00000
LATT -1
SFAC C  
C      1  0.5116140000000  0.4486010000000  0.4417440000000 1.0
C      1  0.4763650000000  0.5493260000000  0.4890620000000 1.0
C      1  0.5535830000000  0.5227260000000  0.4782050000000 1.0
C      1  0.4650920000000  0.5158260000000  0.4272870000000 1.0
C      1  0.4257870000000  0.4973940000000  0.5014840000000 1.0
C      1  0.4636830000000  0.5049740000000  0.4601260000000 1.0
C      1  0.4624490000000  0.4483300000000  0.4682200000000 1.0
C      1  0.4780770000000  0.4856620000000  0.4361100000000 1.0
C      1  0.4589570000000  0.5329170000000  0.4096840000000 1.0
C      1  0.5124070000000  0.5172690000000  0.5714940000000 1.0
C      1  0.4554020000000  0.5297670000000  0.5420040000000 1.0
C      1  0.4875260000000  0.4126720000000  0.4767650000000 1.0
C      1  0.4400410000000  0.4722770000000  0.5151710000000 1.0
C      1  0.5483670000000  0.4789200000000  0.5088650000000 1.0
C      1  0.4971600000000  0.5041330000000  0.4660340000000 1.0
C      1  0.5873480000000  0.5210800000000  0.4819310000000 1.0
C      1  0.5480150000000  0.4345890000000  0.4799600000000 1.0
C      1  0.5391030000000  0.5452160000000  0.4930290000000 1.0
C      1  0.5629160000000  0.5029930000000  0.5369830000000 1.0
C      1  0.5407530000000  0.4499610000000  0.4551860000000 1.0
C      1  0.5219120000000  0.5001210000000  0.5054880000000 1.0
C      1  0.4511940000000  0.5003540000000  0.5581600000000 1.0
C      1  0.5156540000000  0.4516410000000  0.4869130000000 1.0
C      1  0.5312090000000  0.4976830000000  0.4728710000000 1.0
C      1  0.4839220000000  0.4508730000000  0.5165140000000 1.0
C      1  0.4855960000000  0.4313350000000  0.4499600000000 1.0
C      1  0.4580330000000  0.5618900000000  0.5352860000000 1.0
C      1  0.4857970000000  0.5554220000000  0.5538180000000 1.0
C      1  0.5666280000000  0.5048200000000  0.5040130000000 1.0
C      1  0.4679450000000  0.4578210000000  0.4380040000000 1.0
C      1  0.4577270000000  0.5370030000000  0.4695950000000 1.0
C      1  0.4942370000000  0.5289800000000  0.5347120000000 1.0
C      1  0.4888040000000  0.5747350000000  0.5275300000000 1.0
C      1  0.4514870000000  0.5103670000000  0.5182360000000 1.0
C      1  0.4511510000000  0.5485060000000  0.5069730000000 1.0
C      1  0.4304700000000  0.5020880000000  0.4683280000000 1.0
C      1  0.4772120000000  0.4622190000000  0.5472970000000 1.0
C      1  0.5367710000000  0.5724710000000  0.4944560000000 1.0
C      1  0.5113350000000  0.5887920000000  0.5072550000000 1.0
C      1  0.5106830000000  0.4845910000000  0.4341670000000 1.0
C      1  0.4310020000000  0.5290370000000  0.4890570000000 1.0
C      1  0.4521720000000  0.4413580000000  0.5241380000000 1.0
C      1  0.5116440000000  0.6183030000000  0.5035290000000 1.0
C      1  0.4531460000000  0.4760680000000  0.5447700000000 1.0
C      1  0.5329490000000  0.5044100000000  0.4322460000000 1.0
C      1  0.5347700000000  0.5003510000000  0.5558910000000 1.0
C      1  0.5498390000000  0.5518930000000  0.5536970000000 1.0
C      1  0.5477310000000  0.5208240000000  0.4447570000000 1.0
C      1  0.5368220000000  0.5319130000000  0.5434120000000 1.0
C      1  0.5197290000000  0.5310530000000  0.5158740000000 1.0
C      1  0.5251870000000  0.4712350000000  0.5550520000000 1.0
C      1  0.5100160000000  0.4726820000000  0.5181310000000 1.0
C      1  0.5628880000000  0.4530220000000  0.4999140000000 1.0
C      1  0.5004340000000  0.4632430000000  0.5630480000000 1.0
C      1  0.5011470000000  0.5564950000000  0.5030620000000 1.0
C      1  0.5095030000000  0.4724340000000  0.4659130000000 1.0
C      1  0.4633970000000  0.4636200000000  0.4929500000000 1.0
C      1  0.5504230000000  0.4760140000000  0.4550580000000 1.0
C      1  0.5309310000000  0.4309320000000  0.5091340000000 1.0
C      1  0.5364770000000  0.4556980000000  0.5297830000000 1.0
C      1  0.5037730000000  0.5451360000000  0.5769940000000 1.0
C      1  0.4796570000000  0.5168660000000  0.5623110000000 1.0
C      1  0.4655220000000  0.4947650000000  0.4925100000000 1.0
C      1  0.4984310000000  0.4263020000000  0.4998510000000 1.0
END
