TITL C-2848501-3133-149 0.00165723753287173 125000 -959.658403767477 0 0 188 (C1) n - 1
REM
REM in /home/bkarasulu/work/CARBON/AIRSS/Generating-Clusters/AIREBO/with-SteepDescent/Only-C1/SD-CG-opt/Try1-1.4A-POS3A/HFTN-CG
REM
REM
REM
REM
REM
REM ./C.cell (11c1c37f851c82e70ff6c80c92926a4b)
REM
REM compiler GCC version 9.2.1 20190827 (Red Hat 9.2.1-1)
REM options -cpp -mtune=generic -march=x86-64 -g -O0 -fpre-include=/usr/include/finclude/math-vector-fortran.h
REM seed -324435022 -691657728 -1000592151 813028260 550855493 -1320013136 1005024222 1463186312 499676705 1319174959 2111437807 536981146 -494150175 -1065238413 739375183 1705248132 931786521 2066423572 2091085689 -522538798 -1661318932 -1490030039 -926386155 898132313 -2092016120 950105157 567777109 -394457395 -1944905270 1952808327 -191900440 -291400481 -1607128969
REM
CELL 1.54180   50.00000   50.00000   50.00000   90.00000   90.00000   90.00000
LATT -1
SFAC C  
C      1  0.3967800000000  0.4624000000000  0.4848280000000 1.0
C      1  0.5181160000000  0.5038710000000  0.4999430000000 1.0
C      1  0.5196450000000  0.4723440000000  0.4985290000000 1.0
C      1  0.5344490000000  0.5860600000000  0.5755210000000 1.0
C      1  0.5529250000000  0.4461730000000  0.4250090000000 1.0
C      1  0.4717800000000  0.5805990000000  0.5527780000000 1.0
C      1  0.5171320000000  0.3718630000000  0.5259120000000 1.0
C      1  0.4595890000000  0.5400190000000  0.5005890000000 1.0
C      1  0.5402030000000  0.3926560000000  0.4666880000000 1.0
C      1  0.5126010000000  0.6160530000000  0.5295340000000 1.0
C      1  0.4769940000000  0.3961960000000  0.4988560000000 1.0
C      1  0.5596070000000  0.5818790000000  0.4904500000000 1.0
C      1  0.5013740000000  0.4479140000000  0.5841680000000 1.0
C      1  0.4806000000000  0.5776730000000  0.4424530000000 1.0
C      1  0.5985680000000  0.4975390000000  0.4954870000000 1.0
C      1  0.5742760000000  0.5013060000000  0.4095890000000 1.0
C      1  0.4804570000000  0.4000440000000  0.4651860000000 1.0
C      1  0.5051080000000  0.4834910000000  0.5663020000000 1.0
C      1  0.4775940000000  0.5114810000000  0.3926360000000 1.0
C      1  0.5316450000000  0.4729760000000  0.5848120000000 1.0
C      1  0.3779980000000  0.5090610000000  0.5265890000000 1.0
C      1  0.4643440000000  0.4399720000000  0.5362430000000 1.0
C      1  0.5484630000000  0.4762050000000  0.4510400000000 1.0
C      1  0.4481880000000  0.5308000000000  0.5312730000000 1.0
C      1  0.5133800000000  0.5120560000000  0.4677720000000 1.0
C      1  0.4266210000000  0.4715280000000  0.4193980000000 1.0
C      1  0.5581530000000  0.5302760000000  0.4893220000000 1.0
C      1  0.4213880000000  0.4636890000000  0.5571700000000 1.0
C      1  0.5295490000000  0.4771600000000  0.5444310000000 1.0
C      1  0.4809950000000  0.4944020000000  0.4539280000000 1.0
C      1  0.4303550000000  0.5216690000000  0.4213820000000 1.0
C      1  0.5487900000000  0.5680610000000  0.5281680000000 1.0
C      1  0.5414750000000  0.4408470000000  0.5792890000000 1.0
C      1  0.5607850000000  0.4840530000000  0.5329060000000 1.0
C      1  0.4941570000000  0.5104400000000  0.5764640000000 1.0
C      1  0.4531430000000  0.4819760000000  0.4166750000000 1.0
C      1  0.4238040000000  0.5115780000000  0.5297140000000 1.0
C      1  0.5553910000000  0.5894480000000  0.4423920000000 1.0
C      1  0.4563040000000  0.5414240000000  0.5601400000000 1.0
C      1  0.4122320000000  0.4953750000000  0.4281800000000 1.0
C      1  0.4853360000000  0.4041010000000  0.4317220000000 1.0
C      1  0.5901990000000  0.4556120000000  0.4724580000000 1.0
C      1  0.5660780000000  0.4971940000000  0.4880300000000 1.0
C      1  0.4542410000000  0.5719650000000  0.4901750000000 1.0
C      1  0.4386320000000  0.4588990000000  0.4761680000000 1.0
C      1  0.5417870000000  0.6147310000000  0.5282300000000 1.0
C      1  0.4411730000000  0.4170210000000  0.4367150000000 1.0
C      1  0.4592900000000  0.4400580000000  0.5691400000000 1.0
C      1  0.4880460000000  0.5739550000000  0.4933180000000 1.0
C      1  0.4908680000000  0.4908260000000  0.5379390000000 1.0
C      1  0.4004940000000  0.5187030000000  0.4799660000000 1.0
C      1  0.5200380000000  0.4307940000000  0.5337150000000 1.0
C      1  0.5100690000000  0.4296250000000  0.4789460000000 1.0
C      1  0.5848300000000  0.4332310000000  0.5147550000000 1.0
C      1  0.5278920000000  0.5065530000000  0.5305270000000 1.0
C      1  0.5011620000000  0.5338680000000  0.4050880000000 1.0
C      1  0.5224290000000  0.5567990000000  0.4563260000000 1.0
C      1  0.4809500000000  0.4810530000000  0.4024980000000 1.0
C      1  0.5515000000000  0.6023220000000  0.4679760000000 1.0
C      1  0.4904560000000  0.5293820000000  0.4370490000000 1.0
C      1  0.5217860000000  0.5054290000000  0.6047510000000 1.0
C      1  0.5519270000000  0.4701350000000  0.5031560000000 1.0
C      1  0.5781110000000  0.4626310000000  0.4413500000000 1.0
C      1  0.4855340000000  0.4348880000000  0.4442200000000 1.0
C      1  0.5177850000000  0.5606800000000  0.5163060000000 1.0
C      1  0.5066920000000  0.3950650000000  0.5449930000000 1.0
C      1  0.5932070000000  0.5172040000000  0.5559370000000 1.0
C      1  0.4355530000000  0.4226750000000  0.5130740000000 1.0
C      1  0.4886980000000  0.6097670000000  0.4647420000000 1.0
C      1  0.5083970000000  0.4591460000000  0.4727790000000 1.0
C      1  0.4740390000000  0.4769500000000  0.5045540000000 1.0
C      1  0.4500070000000  0.3968690000000  0.5199380000000 1.0
C      1  0.4337770000000  0.4256490000000  0.4814250000000 1.0
C      1  0.5590750000000  0.5703410000000  0.5603010000000 1.0
C      1  0.5190880000000  0.4311470000000  0.4400660000000 1.0
C      1  0.4274340000000  0.5084030000000  0.5825460000000 1.0
C      1  0.5370210000000  0.5664260000000  0.4293450000000 1.0
C      1  0.5000820000000  0.6043660000000  0.5030150000000 1.0
C      1  0.5009430000000  0.4558130000000  0.4008030000000 1.0
C      1  0.4102680000000  0.4443120000000  0.4643630000000 1.0
C      1  0.4342150000000  0.5397290000000  0.4779090000000 1.0
C      1  0.4258570000000  0.5784130000000  0.4726000000000 1.0
C      1  0.5036200000000  0.6023100000000  0.5517050000000 1.0
C      1  0.4906570000000  0.4139220000000  0.5664920000000 1.0
C      1  0.5818420000000  0.5612390000000  0.5292950000000 1.0
C      1  0.3923100000000  0.4858980000000  0.5346160000000 1.0
C      1  0.5760210000000  0.5572630000000  0.4974020000000 1.0
C      1  0.4328610000000  0.5529540000000  0.4264800000000 1.0
C      1  0.5212190000000  0.4207160000000  0.5057540000000 1.0
C      1  0.5143340000000  0.5347090000000  0.5891110000000 1.0
C      1  0.5731830000000  0.5640630000000  0.4457930000000 1.0
C      1  0.4853940000000  0.5495430000000  0.5553420000000 1.0
C      1  0.5581050000000  0.4562570000000  0.4746820000000 1.0
C      1  0.5522950000000  0.4984340000000  0.5927420000000 1.0
C      1  0.5575180000000  0.5175430000000  0.5381490000000 1.0
C      1  0.4497790000000  0.4085810000000  0.4621920000000 1.0
C      1  0.5440250000000  0.4487000000000  0.5403660000000 1.0
C      1  0.5681350000000  0.4060850000000  0.4573350000000 1.0
C      1  0.4922520000000  0.5872540000000  0.4114760000000 1.0
C      1  0.4886840000000  0.5080700000000  0.5111710000000 1.0
C      1  0.5431790000000  0.4923350000000  0.3992760000000 1.0
C      1  0.5138980000000  0.5025960000000  0.4081480000000 1.0
C      1  0.5087360000000  0.5674570000000  0.5818030000000 1.0
C      1  0.5567750000000  0.4112950000000  0.4874440000000 1.0
C      1  0.4622240000000  0.4505430000000  0.4534960000000 1.0
C      1  0.4436460000000  0.4901470000000  0.5122810000000 1.0
C      1  0.5098260000000  0.5310210000000  0.5418750000000 1.0
C      1  0.4874090000000  0.5613180000000  0.3962600000000 1.0
C      1  0.5879530000000  0.4656290000000  0.5417750000000 1.0
C      1  0.4991140000000  0.4862180000000  0.4307830000000 1.0
C      1  0.4508420000000  0.4882410000000  0.5682900000000 1.0
C      1  0.4753460000000  0.5737220000000  0.5853160000000 1.0
C      1  0.5305490000000  0.4648860000000  0.4090690000000 1.0
C      1  0.4907340000000  0.4314770000000  0.4119540000000 1.0
C      1  0.4632220000000  0.5291910000000  0.4166770000000 1.0
C      1  0.6065990000000  0.4760630000000  0.5154430000000 1.0
C      1  0.5047120000000  0.4756700000000  0.6053930000000 1.0
C      1  0.4797280000000  0.4708650000000  0.4726780000000 1.0
C      1  0.4610690000000  0.5180520000000  0.5811160000000 1.0
C      1  0.4240800000000  0.5589480000000  0.4517540000000 1.0
C      1  0.5085670000000  0.5856470000000  0.4614970000000 1.0
C      1  0.5300440000000  0.4150110000000  0.5603510000000 1.0
C      1  0.5512160000000  0.6014210000000  0.5501920000000 1.0
C      1  0.4947160000000  0.4439450000000  0.5510360000000 1.0
C      1  0.5825530000000  0.5491590000000  0.5626510000000 1.0
C      1  0.5481160000000  0.5186190000000  0.4205800000000 1.0
C      1  0.5911050000000  0.4888200000000  0.4294890000000 1.0
C      1  0.5853220000000  0.5307220000000  0.5275330000000 1.0
C      1  0.5731590000000  0.5208670000000  0.4538000000000 1.0
C      1  0.4135420000000  0.4958930000000  0.5568010000000 1.0
C      1  0.4543820000000  0.4498930000000  0.5052830000000 1.0
C      1  0.4618880000000  0.5624650000000  0.4184690000000 1.0
C      1  0.4646550000000  0.5063740000000  0.5430580000000 1.0
C      1  0.5272330000000  0.5789500000000  0.4892010000000 1.0
C      1  0.4489540000000  0.4701550000000  0.5393150000000 1.0
C      1  0.4194760000000  0.4451900000000  0.5289920000000 1.0
C      1  0.5881210000000  0.5477260000000  0.4687060000000 1.0
C      1  0.5330050000000  0.5437840000000  0.4118800000000 1.0
C      1  0.5423560000000  0.5067500000000  0.4507380000000 1.0
C      1  0.4838490000000  0.5299180000000  0.6034140000000 1.0
C      1  0.5208530000000  0.4649710000000  0.4416660000000 1.0
C      1  0.6068320000000  0.4914240000000  0.5486560000000 1.0
C      1  0.5650760000000  0.4842660000000  0.5668170000000 1.0
C      1  0.5355810000000  0.5268200000000  0.5637430000000 1.0
C      1  0.4680890000000  0.5552530000000  0.4639870000000 1.0
C      1  0.4452200000000  0.4646970000000  0.6126840000000 1.0
C      1  0.5134950000000  0.4043240000000  0.4596580000000 1.0
C      1  0.6002930000000  0.4505400000000  0.4988770000000 1.0
C      1  0.4988510000000  0.4631900000000  0.5232960000000 1.0
C      1  0.5035470000000  0.5484980000000  0.4801570000000 1.0
C      1  0.5891260000000  0.4943740000000  0.4629780000000 1.0
C      1  0.5316930000000  0.4250320000000  0.4099020000000 1.0
C      1  0.4767730000000  0.4681060000000  0.5771310000000 1.0
C      1  0.5666970000000  0.5228690000000  0.5764610000000 1.0
C      1  0.4041630000000  0.4955440000000  0.4553210000000 1.0
C      1  0.5496550000000  0.5445840000000  0.4602210000000 1.0
C      1  0.5503530000000  0.4333220000000  0.4547540000000 1.0
C      1  0.4756680000000  0.5718720000000  0.5236260000000 1.0
C      1  0.4679290000000  0.6027140000000  0.5115310000000 1.0
C      1  0.5512350000000  0.4366790000000  0.5093860000000 1.0
C      1  0.4645940000000  0.3988160000000  0.5506160000000 1.0
C      1  0.4840770000000  0.4138060000000  0.5271220000000 1.0
C      1  0.4895580000000  0.5416200000000  0.5166580000000 1.0
C      1  0.4573450000000  0.5087920000000  0.4873000000000 1.0
C      1  0.4321390000000  0.4902290000000  0.4739980000000 1.0
C      1  0.6025560000000  0.5235810000000  0.5062240000000 1.0
C      1  0.5719930000000  0.4519150000000  0.5685030000000 1.0
C      1  0.4558390000000  0.4976600000000  0.4400020000000 1.0
C      1  0.4608760000000  0.6048510000000  0.4478000000000 1.0
C      1  0.4142300000000  0.4730380000000  0.5120130000000 1.0
C      1  0.5286880000000  0.5347090000000  0.4972610000000 1.0
C      1  0.4403280000000  0.5732290000000  0.5421050000000 1.0
C      1  0.4367010000000  0.5177670000000  0.4545630000000 1.0
C      1  0.4097250000000  0.5459400000000  0.4981850000000 1.0
C      1  0.5089360000000  0.3917880000000  0.5052730000000 1.0
C      1  0.4721460000000  0.4694080000000  0.6099670000000 1.0
C      1  0.4431990000000  0.5668280000000  0.5755000000000 1.0
C      1  0.4329100000000  0.4674400000000  0.5883510000000 1.0
C      1  0.4317420000000  0.4483310000000  0.4383070000000 1.0
C      1  0.4817720000000  0.5245910000000  0.4695810000000 1.0
C      1  0.3989160000000  0.5257990000000  0.5190830000000 1.0
C      1  0.5100590000000  0.5704970000000  0.5479540000000 1.0
C      1  0.5156500000000  0.4204080000000  0.5898100000000 1.0
C      1  0.5326500000000  0.6108560000000  0.4955300000000 1.0
C      1  0.5719460000000  0.4297410000000  0.5427250000000 1.0
C      1  0.3944500000000  0.4938500000000  0.4936400000000 1.0
C      1  0.4594720000000  0.6043460000000  0.4811830000000 1.0
C      1  0.4323170000000  0.5652770000000  0.5153090000000 1.0
END
