TITL C-2848499-1157-196 0.0017358070438522 125000 -993.425399143605 0 0 186 (C1) n - 1
REM
REM in /home/bkarasulu/work/CARBON/AIRSS/Generating-Clusters/AIREBO/with-SteepDescent/Only-C1/SD-CG-opt/Try1-1.4A-POS3A/HFTN-CG
REM
REM
REM
REM
REM
REM ./C.cell (11c1c37f851c82e70ff6c80c92926a4b)
REM
REM compiler GCC version 9.2.1 20190827 (Red Hat 9.2.1-1)
REM options -cpp -mtune=generic -march=x86-64 -g -O0 -fpre-include=/usr/include/finclude/math-vector-fortran.h
REM seed 488792686 -1128750339 -49148810 -1293683666 945515132 469951801 -514135885 -924951698 -732454379 546560888 -1996762642 1580057038 -608933652 -2027912182 -1949924329 -1644418809 -227199438 -1893133701 -1087879224 601148686 1116024008 1406920927 1342216517 -144863521 -473569804 -910940130 2146919439 1905961866 318257068 -1150528356 1917057889 387389032 -523142644
REM
CELL 1.54180   50.00000   50.00000   50.00000   90.00000   90.00000   90.00000
LATT -1
SFAC C  
C      1  0.5246970000000  0.5664940000000  0.5056140000000 1.0
C      1  0.5193370000000  0.5767430000000  0.4423980000000 1.0
C      1  0.4625760000000  0.4476330000000  0.5499870000000 1.0
C      1  0.4566460000000  0.5002030000000  0.5409210000000 1.0
C      1  0.6018880000000  0.4836900000000  0.4747920000000 1.0
C      1  0.4927680000000  0.4131640000000  0.4628760000000 1.0
C      1  0.4401640000000  0.4532360000000  0.5742320000000 1.0
C      1  0.4511440000000  0.4798700000000  0.5897260000000 1.0
C      1  0.5788090000000  0.5449880000000  0.5508740000000 1.0
C      1  0.4764210000000  0.6110680000000  0.5089290000000 1.0
C      1  0.4438010000000  0.4631900000000  0.5074840000000 1.0
C      1  0.5519880000000  0.5727830000000  0.5888300000000 1.0
C      1  0.4400400000000  0.5896170000000  0.4609760000000 1.0
C      1  0.4478650000000  0.4198660000000  0.4534140000000 1.0
C      1  0.6028650000000  0.4521970000000  0.4876510000000 1.0
C      1  0.5762960000000  0.4543830000000  0.5097360000000 1.0
C      1  0.5773150000000  0.3939960000000  0.5073980000000 1.0
C      1  0.4787920000000  0.4753920000000  0.4431200000000 1.0
C      1  0.5231930000000  0.4323830000000  0.5323880000000 1.0
C      1  0.5259260000000  0.5384650000000  0.6081260000000 1.0
C      1  0.4563780000000  0.5313640000000  0.5719780000000 1.0
C      1  0.4549520000000  0.5612400000000  0.4723210000000 1.0
C      1  0.4270170000000  0.5377900000000  0.4374100000000 1.0
C      1  0.4762890000000  0.5725950000000  0.5619400000000 1.0
C      1  0.4748800000000  0.5572740000000  0.4381260000000 1.0
C      1  0.4875530000000  0.4251790000000  0.5716030000000 1.0
C      1  0.4586790000000  0.5313850000000  0.4820690000000 1.0
C      1  0.4180850000000  0.5113310000000  0.4391060000000 1.0
C      1  0.4122870000000  0.4667340000000  0.5163450000000 1.0
C      1  0.4105900000000  0.4538880000000  0.5629680000000 1.0
C      1  0.4783480000000  0.5574800000000  0.5923860000000 1.0
C      1  0.5503030000000  0.5264540000000  0.5501860000000 1.0
C      1  0.4548480000000  0.5257730000000  0.3995190000000 1.0
C      1  0.4465510000000  0.5087240000000  0.4669980000000 1.0
C      1  0.4063600000000  0.5599380000000  0.4824150000000 1.0
C      1  0.4404440000000  0.4951510000000  0.5670080000000 1.0
C      1  0.4685990000000  0.4732240000000  0.5285680000000 1.0
C      1  0.6007540000000  0.4730340000000  0.5242330000000 1.0
C      1  0.5683390000000  0.5048200000000  0.4935810000000 1.0
C      1  0.5493100000000  0.5859790000000  0.4808660000000 1.0
C      1  0.5628170000000  0.5258140000000  0.5818390000000 1.0
C      1  0.4410630000000  0.5305590000000  0.5416330000000 1.0
C      1  0.5069200000000  0.5389930000000  0.4099510000000 1.0
C      1  0.5202710000000  0.4623020000000  0.5455670000000 1.0
C      1  0.4436230000000  0.4132640000000  0.5426130000000 1.0
C      1  0.4235690000000  0.4408610000000  0.4444990000000 1.0
C      1  0.5478770000000  0.4357230000000  0.5084380000000 1.0
C      1  0.4655550000000  0.3820690000000  0.4841720000000 1.0
C      1  0.4585330000000  0.5021460000000  0.4375220000000 1.0
C      1  0.4487100000000  0.5447340000000  0.4202510000000 1.0
C      1  0.5339830000000  0.4567930000000  0.4387400000000 1.0
C      1  0.5371070000000  0.5644930000000  0.6115570000000 1.0
C      1  0.5077090000000  0.6153730000000  0.5066510000000 1.0
C      1  0.5627980000000  0.5256860000000  0.5197290000000 1.0
C      1  0.4901380000000  0.3954170000000  0.4918170000000 1.0
C      1  0.4891340000000  0.4525700000000  0.3922630000000 1.0
C      1  0.5290350000000  0.3897500000000  0.4860660000000 1.0
C      1  0.4354590000000  0.4586590000000  0.4214890000000 1.0
C      1  0.4196520000000  0.4320990000000  0.4787170000000 1.0
C      1  0.4735960000000  0.4990020000000  0.6041910000000 1.0
C      1  0.3965600000000  0.4787210000000  0.5627280000000 1.0
C      1  0.5429160000000  0.4089060000000  0.4631050000000 1.0
C      1  0.4796690000000  0.5208750000000  0.5385400000000 1.0
C      1  0.5302320000000  0.4610020000000  0.4940640000000 1.0
C      1  0.4048720000000  0.4757470000000  0.4863230000000 1.0
C      1  0.5758440000000  0.4093400000000  0.4614060000000 1.0
C      1  0.5330790000000  0.6053930000000  0.5492380000000 1.0
C      1  0.4084100000000  0.4432290000000  0.5366870000000 1.0
C      1  0.4254250000000  0.5525440000000  0.4609600000000 1.0
C      1  0.4987210000000  0.5725940000000  0.5253290000000 1.0
C      1  0.4169400000000  0.4097080000000  0.5030260000000 1.0
C      1  0.4881150000000  0.5009050000000  0.4640030000000 1.0
C      1  0.5194240000000  0.4214710000000  0.4494990000000 1.0
C      1  0.5253510000000  0.5960170000000  0.4643760000000 1.0
C      1  0.4599780000000  0.4519800000000  0.4101980000000 1.0
C      1  0.4492980000000  0.4317070000000  0.4954160000000 1.0
C      1  0.4444630000000  0.4013440000000  0.4808480000000 1.0
C      1  0.5008900000000  0.6014090000000  0.4791450000000 1.0
C      1  0.4455840000000  0.5352670000000  0.5084650000000 1.0
C      1  0.4132940000000  0.5016820000000  0.4679570000000 1.0
C      1  0.5392390000000  0.4910770000000  0.6013080000000 1.0
C      1  0.5046840000000  0.5857660000000  0.4165020000000 1.0
C      1  0.5000600000000  0.5556880000000  0.4609490000000 1.0
C      1  0.5481960000000  0.5340920000000  0.4675310000000 1.0
C      1  0.4793670000000  0.4374450000000  0.4806150000000 1.0
C      1  0.4693510000000  0.6107100000000  0.4755890000000 1.0
C      1  0.4674300000000  0.5961020000000  0.5381260000000 1.0
C      1  0.5516880000000  0.4785230000000  0.5640570000000 1.0
C      1  0.4318340000000  0.4890300000000  0.4210540000000 1.0
C      1  0.5000390000000  0.4495360000000  0.5047690000000 1.0
C      1  0.5444040000000  0.4719570000000  0.4651290000000 1.0
C      1  0.5045920000000  0.5390440000000  0.5870260000000 1.0
C      1  0.5998610000000  0.5113170000000  0.4631710000000 1.0
C      1  0.5138390000000  0.4197530000000  0.4958490000000 1.0
C      1  0.4143050000000  0.5442960000000  0.5099950000000 1.0
C      1  0.5900360000000  0.4792730000000  0.5531630000000 1.0
C      1  0.5402530000000  0.4771100000000  0.5223650000000 1.0
C      1  0.3979560000000  0.4909990000000  0.5310490000000 1.0
C      1  0.4929670000000  0.4733240000000  0.5522840000000 1.0
C      1  0.5321710000000  0.5014410000000  0.4237040000000 1.0
C      1  0.4907560000000  0.4777130000000  0.5854450000000 1.0
C      1  0.5899190000000  0.5619060000000  0.4682360000000 1.0
C      1  0.5305480000000  0.5580710000000  0.4758460000000 1.0
C      1  0.4668310000000  0.5726270000000  0.5135240000000 1.0
C      1  0.5606600000000  0.4563040000000  0.5398930000000 1.0
C      1  0.5168940000000  0.5462000000000  0.5575370000000 1.0
C      1  0.5356760000000  0.5740920000000  0.5622770000000 1.0
C      1  0.5800410000000  0.4567220000000  0.4553320000000 1.0
C      1  0.5127440000000  0.4989540000000  0.3958960000000 1.0
C      1  0.5295730000000  0.5981070000000  0.5171930000000 1.0
C      1  0.4140580000000  0.5019010000000  0.5657600000000 1.0
C      1  0.4210950000000  0.5876490000000  0.4827440000000 1.0
C      1  0.5702250000000  0.4742310000000  0.4827950000000 1.0
C      1  0.4999140000000  0.5672870000000  0.3996430000000 1.0
C      1  0.5920610000000  0.4318570000000  0.4655670000000 1.0
C      1  0.5181910000000  0.4702470000000  0.3936000000000 1.0
C      1  0.5211620000000  0.4889820000000  0.5752750000000 1.0
C      1  0.5582710000000  0.5827970000000  0.5196400000000 1.0
C      1  0.5227540000000  0.3952530000000  0.5176790000000 1.0
C      1  0.5408340000000  0.5392770000000  0.4146110000000 1.0
C      1  0.5010040000000  0.4496060000000  0.4428960000000 1.0
C      1  0.3949090000000  0.5192260000000  0.5122870000000 1.0
C      1  0.4952080000000  0.4828580000000  0.5097040000000 1.0
C      1  0.4908220000000  0.5291660000000  0.4801740000000 1.0
C      1  0.5722360000000  0.5225890000000  0.4463940000000 1.0
C      1  0.4897770000000  0.4388720000000  0.5322810000000 1.0
C      1  0.5072760000000  0.5136070000000  0.5563800000000 1.0
C      1  0.4459050000000  0.5588890000000  0.5840060000000 1.0
C      1  0.4730060000000  0.5315430000000  0.6142370000000 1.0
C      1  0.5520870000000  0.4612690000000  0.5927660000000 1.0
C      1  0.5753530000000  0.5025660000000  0.5684650000000 1.0
C      1  0.5862060000000  0.5445190000000  0.5036970000000 1.0
C      1  0.5011770000000  0.4472800000000  0.5814840000000 1.0
C      1  0.5681380000000  0.4942730000000  0.5316230000000 1.0
C      1  0.4830690000000  0.5089450000000  0.3994440000000 1.0
C      1  0.4507130000000  0.4831840000000  0.4831310000000 1.0
C      1  0.5545050000000  0.4097410000000  0.4952270000000 1.0
C      1  0.5744060000000  0.5554150000000  0.5830580000000 1.0
C      1  0.5198380000000  0.5089870000000  0.4548170000000 1.0
C      1  0.5068920000000  0.4663870000000  0.4698740000000 1.0
C      1  0.4647640000000  0.4185120000000  0.5226710000000 1.0
C      1  0.5551930000000  0.4946910000000  0.4437950000000 1.0
C      1  0.5957240000000  0.5045810000000  0.5146250000000 1.0
C      1  0.5189030000000  0.5369280000000  0.4404900000000 1.0
C      1  0.5735140000000  0.4706210000000  0.4330300000000 1.0
C      1  0.5666510000000  0.5178250000000  0.4131800000000 1.0
C      1  0.5075060000000  0.4859380000000  0.4330720000000 1.0
C      1  0.5451790000000  0.5183070000000  0.6043640000000 1.0
C      1  0.4909450000000  0.3998110000000  0.5247530000000 1.0
C      1  0.4719890000000  0.4058900000000  0.4437690000000 1.0
C      1  0.5758600000000  0.5752700000000  0.4947200000000 1.0
C      1  0.5657060000000  0.4882890000000  0.4060210000000 1.0
C      1  0.5095030000000  0.5138880000000  0.5049760000000 1.0
C      1  0.5839640000000  0.4625450000000  0.5810070000000 1.0
C      1  0.4188630000000  0.4181230000000  0.5301770000000 1.0
C      1  0.5262210000000  0.4305120000000  0.4186110000000 1.0
C      1  0.4089200000000  0.5225950000000  0.5430570000000 1.0
C      1  0.5287640000000  0.5072300000000  0.5322000000000 1.0
C      1  0.5732580000000  0.5565760000000  0.4461860000000 1.0
C      1  0.4802500000000  0.4772080000000  0.4829920000000 1.0
C      1  0.6040370000000  0.5361870000000  0.4777150000000 1.0
C      1  0.4817390000000  0.5168070000000  0.5786820000000 1.0
C      1  0.6000350000000  0.5340270000000  0.5310890000000 1.0
C      1  0.4375380000000  0.5823140000000  0.5388170000000 1.0
C      1  0.4820910000000  0.5252280000000  0.4287100000000 1.0
C      1  0.4595230000000  0.4520690000000  0.4581740000000 1.0
C      1  0.4687600000000  0.5501110000000  0.5389340000000 1.0
C      1  0.4344330000000  0.5606710000000  0.5563360000000 1.0
C      1  0.4783040000000  0.4791630000000  0.4093110000000 1.0
C      1  0.5364550000000  0.5109250000000  0.4844210000000 1.0
C      1  0.4344380000000  0.5072960000000  0.3950280000000 1.0
C      1  0.4834660000000  0.5744910000000  0.4839210000000 1.0
C      1  0.5123530000000  0.4307760000000  0.3954240000000 1.0
C      1  0.5478080000000  0.5637550000000  0.4338740000000 1.0
C      1  0.5368690000000  0.4150620000000  0.5658060000000 1.0
C      1  0.4326730000000  0.5729400000000  0.5090880000000 1.0
C      1  0.5431680000000  0.4650340000000  0.4076140000000 1.0
C      1  0.5075610000000  0.4091980000000  0.5517650000000 1.0
C      1  0.5315730000000  0.4455710000000  0.5733770000000 1.0
C      1  0.5105580000000  0.5418250000000  0.5243590000000 1.0
C      1  0.4705110000000  0.5892720000000  0.4491640000000 1.0
C      1  0.5051700000000  0.5861330000000  0.5532650000000 1.0
C      1  0.4549700000000  0.4226050000000  0.5713690000000 1.0
C      1  0.3883160000000  0.5118380000000  0.4855700000000 1.0
C      1  0.4294240000000  0.4623680000000  0.4701800000000 1.0
C      1  0.5598390000000  0.5685410000000  0.5415300000000 1.0
END
