TITL C-2847954-6904-210 0.00022558091286907 125000 -838.798334308544 0 0 154 (C1) n - 1
REM
REM in /home/bkarasulu/work/CARBON/AIRSS/Generating-Clusters/AIREBO/with-SteepDescent/Only-C1/SD-CG-opt/Try1-1.4A-POS3A/HFTN-CG
REM
REM
REM
REM
REM
REM ./C.cell (11c1c37f851c82e70ff6c80c92926a4b)
REM
REM compiler GCC version 9.2.1 20190827 (Red Hat 9.2.1-1)
REM options -cpp -mtune=generic -march=x86-64 -g -O0 -fpre-include=/usr/include/finclude/math-vector-fortran.h
REM seed 515256538 333976333 229097181 -127253706 1051437214 -1137597476 1039333465 -1218845025 -94777627 -370530735 -1943955540 -47629081 -22475876 1771376339 -2013714565 -1175835007 499159679 1207414682 985986825 -1845187840 -769673763 513763009 238604179 1726821546 -1351443680 1564867460 -1615937580 2067874785 1629624145 -1621102526 682537417 -1426232643 1337976986
REM
CELL 1.54180   50.00000   50.00000   50.00000   90.00000   90.00000   90.00000
LATT -1
SFAC C  
C      1  0.5074990000000  0.4188890000000  0.5605470000000 1.0
C      1  0.3996450000000  0.4888390000000  0.5169410000000 1.0
C      1  0.4402100000000  0.4679070000000  0.5978730000000 1.0
C      1  0.4165870000000  0.5269240000000  0.5054980000000 1.0
C      1  0.4532610000000  0.5128900000000  0.4756900000000 1.0
C      1  0.5074630000000  0.4845220000000  0.4737430000000 1.0
C      1  0.5326040000000  0.5239340000000  0.4174740000000 1.0
C      1  0.4137800000000  0.4461380000000  0.4958930000000 1.0
C      1  0.4489590000000  0.4469500000000  0.4093060000000 1.0
C      1  0.5266250000000  0.3840980000000  0.4840860000000 1.0
C      1  0.4228290000000  0.5234810000000  0.4445190000000 1.0
C      1  0.4839540000000  0.5212530000000  0.6147960000000 1.0
C      1  0.4305570000000  0.4859680000000  0.5206970000000 1.0
C      1  0.5416130000000  0.4277480000000  0.5424070000000 1.0
C      1  0.4687600000000  0.4930260000000  0.4213050000000 1.0
C      1  0.4717500000000  0.5312460000000  0.5481370000000 1.0
C      1  0.4600620000000  0.4943850000000  0.5945750000000 1.0
C      1  0.5857810000000  0.4789320000000  0.4291990000000 1.0
C      1  0.4528380000000  0.5173310000000  0.5712800000000 1.0
C      1  0.4955340000000  0.4526850000000  0.4748450000000 1.0
C      1  0.5978300000000  0.5169740000000  0.5138310000000 1.0
C      1  0.4453550000000  0.4721340000000  0.4740570000000 1.0
C      1  0.5177020000000  0.4125790000000  0.4886100000000 1.0
C      1  0.5597540000000  0.4954850000000  0.4240330000000 1.0
C      1  0.4725840000000  0.5591010000000  0.5346320000000 1.0
C      1  0.5193470000000  0.5842100000000  0.4212780000000 1.0
C      1  0.4746880000000  0.5425390000000  0.4474620000000 1.0
C      1  0.5211180000000  0.6032120000000  0.4917180000000 1.0
C      1  0.5242630000000  0.5389910000000  0.4468020000000 1.0
C      1  0.5315880000000  0.5622690000000  0.4230910000000 1.0
C      1  0.5581180000000  0.5930450000000  0.4810080000000 1.0
C      1  0.5523210000000  0.5384620000000  0.4846390000000 1.0
C      1  0.5157600000000  0.5139890000000  0.5259870000000 1.0
C      1  0.5912870000000  0.5165570000000  0.4839600000000 1.0
C      1  0.5874600000000  0.4225030000000  0.5054740000000 1.0
C      1  0.4188830000000  0.5234720000000  0.5349430000000 1.0
C      1  0.5588920000000  0.5105840000000  0.5590250000000 1.0
C      1  0.5954680000000  0.4830910000000  0.4584360000000 1.0
C      1  0.4890220000000  0.4785970000000  0.5387740000000 1.0
C      1  0.4801440000000  0.4642740000000  0.4354710000000 1.0
C      1  0.5354310000000  0.4875880000000  0.4456110000000 1.0
C      1  0.4489620000000  0.4313910000000  0.4369330000000 1.0
C      1  0.5010310000000  0.4635900000000  0.5916390000000 1.0
C      1  0.4791070000000  0.5424190000000  0.4078120000000 1.0
C      1  0.4501640000000  0.5104620000000  0.5320520000000 1.0
C      1  0.4896430000000  0.4165780000000  0.5073990000000 1.0
C      1  0.5881800000000  0.5416240000000  0.5269850000000 1.0
C      1  0.5198830000000  0.5161250000000  0.4716840000000 1.0
C      1  0.5990540000000  0.4778140000000  0.5743810000000 1.0
C      1  0.4432300000000  0.5402750000000  0.4931910000000 1.0
C      1  0.4998570000000  0.5163010000000  0.4969000000000 1.0
C      1  0.5240850000000  0.4960440000000  0.5927260000000 1.0
C      1  0.5253750000000  0.4568760000000  0.4041940000000 1.0
C      1  0.5026570000000  0.4959260000000  0.4420660000000 1.0
C      1  0.5286030000000  0.5887050000000  0.4645390000000 1.0
C      1  0.4473690000000  0.4744720000000  0.4042040000000 1.0
C      1  0.4316770000000  0.5413860000000  0.5740790000000 1.0
C      1  0.4394090000000  0.4237960000000  0.4958040000000 1.0
C      1  0.4736670000000  0.4857360000000  0.4772610000000 1.0
C      1  0.5459920000000  0.5613320000000  0.4602860000000 1.0
C      1  0.5586850000000  0.5166460000000  0.5067400000000 1.0
C      1  0.5620600000000  0.4253150000000  0.5203370000000 1.0
C      1  0.5109620000000  0.5458010000000  0.5211850000000 1.0
C      1  0.5139120000000  0.4122620000000  0.5308520000000 1.0
C      1  0.4631600000000  0.4891320000000  0.5551220000000 1.0
C      1  0.3920880000000  0.5300430000000  0.4857010000000 1.0
C      1  0.5451320000000  0.5205990000000  0.5324410000000 1.0
C      1  0.4483220000000  0.5619240000000  0.4457160000000 1.0
C      1  0.4862230000000  0.4504070000000  0.5074670000000 1.0
C      1  0.5269130000000  0.5004450000000  0.5617230000000 1.0
C      1  0.5285930000000  0.4829520000000  0.4988050000000 1.0
C      1  0.5513910000000  0.5135610000000  0.4614870000000 1.0
C      1  0.4632960000000  0.4056280000000  0.4251000000000 1.0
C      1  0.3991790000000  0.4981170000000  0.4842340000000 1.0
C      1  0.5588530000000  0.4861150000000  0.4958730000000 1.0
C      1  0.4999510000000  0.5008920000000  0.4102790000000 1.0
C      1  0.4997580000000  0.5868360000000  0.4466040000000 1.0
C      1  0.3907840000000  0.4663510000000  0.4929810000000 1.0
C      1  0.4912150000000  0.5420620000000  0.6022190000000 1.0
C      1  0.5081210000000  0.5584170000000  0.5526700000000 1.0
C      1  0.4578320000000  0.5231990000000  0.4100640000000 1.0
C      1  0.4649640000000  0.4475250000000  0.4608780000000 1.0
C      1  0.4001230000000  0.5013710000000  0.5467540000000 1.0
C      1  0.4397690000000  0.4627860000000  0.5046610000000 1.0
C      1  0.5937020000000  0.5569140000000  0.4621320000000 1.0
C      1  0.5342340000000  0.3600500000000  0.4802450000000 1.0
C      1  0.5721080000000  0.4685460000000  0.4779140000000 1.0
C      1  0.4078210000000  0.4215830000000  0.5188550000000 1.0
C      1  0.4259710000000  0.4948130000000  0.5904140000000 1.0
C      1  0.4688160000000  0.5124020000000  0.5059970000000 1.0
C      1  0.4047670000000  0.4952870000000  0.5724520000000 1.0
C      1  0.5699510000000  0.5784110000000  0.5015050000000 1.0
C      1  0.5381390000000  0.4341770000000  0.5005330000000 1.0
C      1  0.5398320000000  0.4766240000000  0.4071640000000 1.0
C      1  0.5541160000000  0.4449650000000  0.4724400000000 1.0
C      1  0.4402310000000  0.4162710000000  0.5265330000000 1.0
C      1  0.5652510000000  0.5269740000000  0.4265710000000 1.0
C      1  0.4969200000000  0.4477260000000  0.5457240000000 1.0
C      1  0.4690050000000  0.4085450000000  0.5333320000000 1.0
C      1  0.5101330000000  0.5393090000000  0.5778470000000 1.0
C      1  0.4856360000000  0.6143610000000  0.4514470000000 1.0
C      1  0.5446910000000  0.5742100000000  0.5556490000000 1.0
C      1  0.4588110000000  0.4569440000000  0.5533090000000 1.0
C      1  0.4572220000000  0.4456810000000  0.5246080000000 1.0
C      1  0.5166140000000  0.5850460000000  0.5108760000000 1.0
C      1  0.5357870000000  0.5585590000000  0.5065540000000 1.0
C      1  0.5437520000000  0.4526800000000  0.5592870000000 1.0
C      1  0.5305390000000  0.4643350000000  0.5818140000000 1.0
C      1  0.4820840000000  0.4455630000000  0.5753370000000 1.0
C      1  0.5547380000000  0.4754650000000  0.5406020000000 1.0
C      1  0.4251040000000  0.5501180000000  0.4550520000000 1.0
C      1  0.4092670000000  0.5551390000000  0.4784430000000 1.0
C      1  0.5222790000000  0.4811850000000  0.5321700000000 1.0
C      1  0.4763060000000  0.5697870000000  0.4278280000000 1.0
C      1  0.5527380000000  0.5489410000000  0.5683950000000 1.0
C      1  0.5182070000000  0.4501000000000  0.5189990000000 1.0
C      1  0.5835190000000  0.5143160000000  0.4523310000000 1.0
C      1  0.6086950000000  0.4405090000000  0.4991890000000 1.0
C      1  0.5836650000000  0.5483190000000  0.4934600000000 1.0
C      1  0.4389540000000  0.5921220000000  0.5450940000000 1.0
C      1  0.4653050000000  0.5850380000000  0.5528970000000 1.0
C      1  0.5183660000000  0.5886710000000  0.5635140000000 1.0
C      1  0.5782940000000  0.4860900000000  0.5621510000000 1.0
C      1  0.4237500000000  0.5713150000000  0.5326830000000 1.0
C      1  0.4958790000000  0.5492350000000  0.4908500000000 1.0
C      1  0.4684880000000  0.5550010000000  0.5043360000000 1.0
C      1  0.4425250000000  0.4481760000000  0.5795960000000 1.0
C      1  0.4997140000000  0.5194600000000  0.5542500000000 1.0
C      1  0.6032640000000  0.4596220000000  0.4812310000000 1.0
C      1  0.5044470000000  0.5290920000000  0.4032670000000 1.0
C      1  0.4987310000000  0.5561710000000  0.4612720000000 1.0
C      1  0.4817970000000  0.4826330000000  0.5085110000000 1.0
C      1  0.4915070000000  0.4929500000000  0.6020250000000 1.0
C      1  0.4653120000000  0.4229590000000  0.4844260000000 1.0
C      1  0.5693530000000  0.4177060000000  0.4817570000000 1.0
C      1  0.4987430000000  0.4452810000000  0.4180010000000 1.0
C      1  0.4751360000000  0.4291730000000  0.4071100000000 1.0
C      1  0.4735050000000  0.5130880000000  0.4483610000000 1.0
C      1  0.4244550000000  0.4976650000000  0.4658090000000 1.0
C      1  0.5092610000000  0.4278710000000  0.4638450000000 1.0
C      1  0.4199950000000  0.5489480000000  0.5498660000000 1.0
C      1  0.5538210000000  0.5766180000000  0.5281980000000 1.0
C      1  0.4300520000000  0.5225540000000  0.4171450000000 1.0
C      1  0.5379010000000  0.5274890000000  0.5883960000000 1.0
C      1  0.5686340000000  0.4554110000000  0.4251900000000 1.0
C      1  0.4884770000000  0.5924120000000  0.5679650000000 1.0
C      1  0.4769260000000  0.4159350000000  0.5594690000000 1.0
C      1  0.4238250000000  0.5659530000000  0.5042160000000 1.0
C      1  0.5755810000000  0.5382420000000  0.5512440000000 1.0
C      1  0.4975190000000  0.5818550000000  0.5304340000000 1.0
C      1  0.5210970000000  0.4355900000000  0.4377690000000 1.0
C      1  0.5718860000000  0.5525200000000  0.4449230000000 1.0
C      1  0.5436520000000  0.4546050000000  0.4446760000000 1.0
C      1  0.5766400000000  0.4926600000000  0.5228330000000 1.0
END
