TITL C-2848505-4874-315 -0.000257961359333585 125000 -58.9927551874548 0 0 13 (C1) n - 1
REM
REM in /home/bkarasulu/work/CARBON/AIRSS/Generating-Clusters/AIREBO/with-SteepDescent/Only-C1/SD-CG-opt/Try1-1.4A-POS3A/HFTN-CG
REM
REM
REM
REM
REM
REM ./C.cell (11c1c37f851c82e70ff6c80c92926a4b)
REM
REM compiler GCC version 9.2.1 20190827 (Red Hat 9.2.1-1)
REM options -cpp -mtune=generic -march=x86-64 -g -O0 -fpre-include=/usr/include/finclude/math-vector-fortran.h
REM seed -1281893647 553615307 989116861 864398196 -1290662321 225667093 574167829 607199402 379480775 1840207262 -1258215344 -1751104825 239083169 480859610 1214295973 -857269883 -178287415 -1652877444 2037580429 -625800269 -648674920 617309209 -651563168 1777993545 -2098134213 -772750664 2103726765 -23171506 1742060351 -1646170307 1019921837 -1791286181 82690064
REM
CELL 1.54180   50.00000   50.00000   50.00000   90.00000   90.00000   90.00000
LATT -1
SFAC C  
C      1  0.5046230000000  0.4521810000000  0.5151910000000 1.0
C      1  0.5304640000000  0.5155870000000  0.4748740000000 1.0
C      1  0.5016850000000  0.5025400000000  0.5130310000000 1.0
C      1  0.4727570000000  0.4811610000000  0.4778000000000 1.0
C      1  0.5261760000000  0.5159670000000  0.5020060000000 1.0
C      1  0.4991710000000  0.4698190000000  0.4656970000000 1.0
C      1  0.4592040000000  0.5042120000000  0.4850110000000 1.0
C      1  0.4978530000000  0.4739430000000  0.4995740000000 1.0
C      1  0.4351670000000  0.5122030000000  0.4762730000000 1.0
C      1  0.4750330000000  0.5179690000000  0.5042700000000 1.0
C      1  0.5395390000000  0.5395130000000  0.5206580000000 1.0
C      1  0.5028690000000  0.5001120000000  0.5413790000000 1.0
C      1  0.5554600000000  0.5147930000000  0.5242360000000 1.0
END
