TITL C-2847944-5688-48 0.00314227424312218 125000 -530.157777418323 0 0 96 (C1) n - 1
REM
REM in /home/bkarasulu/work/CARBON/AIRSS/Generating-Clusters/AIREBO/with-SteepDescent/Only-C1/SD-CG-opt/Try1-1.4A-POS3A/HFTN-CG
REM
REM
REM
REM
REM
REM ./C.cell (11c1c37f851c82e70ff6c80c92926a4b)
REM
REM compiler GCC version 9.2.1 20190827 (Red Hat 9.2.1-1)
REM options -cpp -mtune=generic -march=x86-64 -g -O0 -fpre-include=/usr/include/finclude/math-vector-fortran.h
REM seed -495106966 -1814092583 -1749242826 1384246726 284819739 1272751406 541557905 -1272810174 -1875512396 -2026588468 643373066 -69019178 272419700 -1226582577 246222239 -1376230691 -886662472 -1676134182 823049746 -373447785 -1957493430 -489623129 49426238 -53019059 169051711 -1245106878 -1647150629 -1841106636 -1800745573 301716358 -1483219701 -1250309541 -541543967
REM
CELL 1.54180   50.00000   50.00000   50.00000   90.00000   90.00000   90.00000
LATT -1
SFAC C  
C      1  0.4623440000000  0.5308460000000  0.5287170000000 1.0
C      1  0.5448870000000  0.5538560000000  0.4565230000000 1.0
C      1  0.4292750000000  0.4618250000000  0.5004500000000 1.0
C      1  0.4867500000000  0.4588510000000  0.5081580000000 1.0
C      1  0.5209590000000  0.5918710000000  0.5176880000000 1.0
C      1  0.4427110000000  0.3823510000000  0.4923960000000 1.0
C      1  0.4624570000000  0.5269910000000  0.5620970000000 1.0
C      1  0.4378750000000  0.4501960000000  0.5504830000000 1.0
C      1  0.4768580000000  0.4175220000000  0.5548320000000 1.0
C      1  0.5565480000000  0.4742970000000  0.5852560000000 1.0
C      1  0.4364020000000  0.5005220000000  0.4625620000000 1.0
C      1  0.4912890000000  0.4480410000000  0.4377550000000 1.0
C      1  0.4901010000000  0.5716040000000  0.4452600000000 1.0
C      1  0.4496860000000  0.4490830000000  0.5186140000000 1.0
C      1  0.5482500000000  0.4983400000000  0.4977830000000 1.0
C      1  0.5156420000000  0.5245830000000  0.4663630000000 1.0
C      1  0.4883510000000  0.4722540000000  0.4502040000000 1.0
C      1  0.4923790000000  0.5968160000000  0.5192680000000 1.0
C      1  0.4985340000000  0.5907940000000  0.4727700000000 1.0
C      1  0.4794820000000  0.5091330000000  0.5745150000000 1.0
C      1  0.4912450000000  0.4961050000000  0.4330840000000 1.0
C      1  0.4722450000000  0.4284170000000  0.5037560000000 1.0
C      1  0.4226530000000  0.4809470000000  0.4762630000000 1.0
C      1  0.5161430000000  0.4357960000000  0.4428490000000 1.0
C      1  0.5123070000000  0.4962730000000  0.5330660000000 1.0
C      1  0.5158240000000  0.4499080000000  0.5448830000000 1.0
C      1  0.5176150000000  0.5617150000000  0.5539890000000 1.0
C      1  0.4626150000000  0.5765150000000  0.4633430000000 1.0
C      1  0.4512350000000  0.4203930000000  0.5438080000000 1.0
C      1  0.5401990000000  0.4983270000000  0.4296300000000 1.0
C      1  0.5956810000000  0.4981800000000  0.4889070000000 1.0
C      1  0.5167290000000  0.5061920000000  0.4917330000000 1.0
C      1  0.5173900000000  0.4986550000000  0.4116130000000 1.0
C      1  0.4379810000000  0.5548290000000  0.4543610000000 1.0
C      1  0.5516670000000  0.5375810000000  0.5352450000000 1.0
C      1  0.5524470000000  0.4416620000000  0.5103550000000 1.0
C      1  0.4816310000000  0.5470360000000  0.4291770000000 1.0
C      1  0.4977780000000  0.4712260000000  0.4809990000000 1.0
C      1  0.4622110000000  0.5063420000000  0.4724390000000 1.0
C      1  0.4839880000000  0.4981140000000  0.4898640000000 1.0
C      1  0.4141820000000  0.4705080000000  0.5513870000000 1.0
C      1  0.5245260000000  0.4289260000000  0.5241930000000 1.0
C      1  0.5186810000000  0.4675800000000  0.5159490000000 1.0
C      1  0.5148830000000  0.5461110000000  0.4916090000000 1.0
C      1  0.5681250000000  0.5008980000000  0.4494730000000 1.0
C      1  0.4506810000000  0.4878180000000  0.5539410000000 1.0
C      1  0.5420380000000  0.5226900000000  0.4503930000000 1.0
C      1  0.4892580000000  0.4719300000000  0.5854640000000 1.0
C      1  0.4529630000000  0.5503830000000  0.4254060000000 1.0
C      1  0.5520140000000  0.4684860000000  0.4328770000000 1.0
C      1  0.4943520000000  0.5546330000000  0.5396860000000 1.0
C      1  0.4765860000000  0.5757360000000  0.5327890000000 1.0
C      1  0.5332270000000  0.4943820000000  0.5598020000000 1.0
C      1  0.4459610000000  0.5379520000000  0.4924150000000 1.0
C      1  0.5659480000000  0.5579550000000  0.5134670000000 1.0
C      1  0.4902270000000  0.5094670000000  0.5996730000000 1.0
C      1  0.5332870000000  0.5185020000000  0.5188340000000 1.0
C      1  0.5292830000000  0.4640920000000  0.4834130000000 1.0
C      1  0.5616140000000  0.4577610000000  0.4840970000000 1.0
C      1  0.4993900000000  0.5392990000000  0.5163340000000 1.0
C      1  0.5166480000000  0.4823540000000  0.5864260000000 1.0
C      1  0.5206050000000  0.4344810000000  0.4717460000000 1.0
C      1  0.4648590000000  0.5368570000000  0.4648790000000 1.0
C      1  0.4890340000000  0.4973370000000  0.3928980000000 1.0
C      1  0.4702850000000  0.4732790000000  0.5314960000000 1.0
C      1  0.5923820000000  0.4713350000000  0.4819240000000 1.0
C      1  0.4894020000000  0.4423400000000  0.5585550000000 1.0
C      1  0.4636050000000  0.4606480000000  0.5685890000000 1.0
C      1  0.5582110000000  0.5149080000000  0.5544260000000 1.0
C      1  0.4729120000000  0.5832240000000  0.4939110000000 1.0
C      1  0.4210100000000  0.5205230000000  0.4934570000000 1.0
C      1  0.4559280000000  0.4038280000000  0.4963070000000 1.0
C      1  0.5640020000000  0.5435980000000  0.4827050000000 1.0
C      1  0.4368930000000  0.5145810000000  0.5443490000000 1.0
C      1  0.5669910000000  0.4850520000000  0.5407250000000 1.0
C      1  0.4136220000000  0.4914470000000  0.5070210000000 1.0
C      1  0.5027710000000  0.4235850000000  0.4985250000000 1.0
C      1  0.4908300000000  0.5228100000000  0.4501470000000 1.0
C      1  0.5518410000000  0.4745740000000  0.5188770000000 1.0
C      1  0.4574140000000  0.5590990000000  0.5122070000000 1.0
C      1  0.4864600000000  0.5113710000000  0.5172640000000 1.0
C      1  0.4902220000000  0.4867480000000  0.5548700000000 1.0
C      1  0.5687520000000  0.4956860000000  0.5792100000000 1.0
C      1  0.5365770000000  0.4608510000000  0.5643520000000 1.0
C      1  0.5381510000000  0.4457510000000  0.4283880000000 1.0
C      1  0.4218870000000  0.5278300000000  0.4622100000000 1.0
C      1  0.4951100000000  0.5247280000000  0.4108080000000 1.0
C      1  0.4152570000000  0.4941520000000  0.5366060000000 1.0
C      1  0.5272630000000  0.5935100000000  0.4882480000000 1.0
C      1  0.5741070000000  0.4688400000000  0.4549070000000 1.0
C      1  0.5411980000000  0.5699140000000  0.5340160000000 1.0
C      1  0.5406130000000  0.5658930000000  0.4943200000000 1.0
C      1  0.5360500000000  0.4158730000000  0.4952160000000 1.0
C      1  0.5164110000000  0.5643300000000  0.4629240000000 1.0
C      1  0.4762880000000  0.4856880000000  0.3743360000000 1.0
C      1  0.5688180000000  0.5138760000000  0.4808970000000 1.0
END
