TITL C-2847957-7266-253 8.21665721538625e-06 125000 -1051.45797084722 0 0 199 (C1) n - 1
REM
REM in /home/bkarasulu/work/CARBON/AIRSS/Generating-Clusters/AIREBO/with-SteepDescent/Only-C1/SD-CG-opt/Try1-1.4A-POS3A/HFTN-CG
REM
REM
REM
REM
REM
REM ./C.cell (11c1c37f851c82e70ff6c80c92926a4b)
REM
REM compiler GCC version 9.2.1 20190827 (Red Hat 9.2.1-1)
REM options -cpp -mtune=generic -march=x86-64 -g -O0 -fpre-include=/usr/include/finclude/math-vector-fortran.h
REM seed -1485234696 105161289 -1025110167 831261221 -490671135 -516860768 -1695395921 1882730235 363121354 1554876846 -579715389 1326407150 -1320744115 948629460 -522097744 -494824753 1681601082 227216861 528795756 506822465 371545899 -1861200693 1452938368 1805409675 -1598896260 1938392292 -2009284971 864746152 -560683275 2128929704 875706764 1409754392 -1009171487
REM
CELL 1.54180   50.00000   50.00000   50.00000   90.00000   90.00000   90.00000
LATT -1
SFAC C  
C      1  0.5002390000000  0.4057480000000  0.4561160000000 1.0
C      1  0.4544690000000  0.4499110000000  0.5120120000000 1.0
C      1  0.4818320000000  0.5746400000000  0.5189720000000 1.0
C      1  0.5583730000000  0.5677750000000  0.5351130000000 1.0
C      1  0.4528200000000  0.5922890000000  0.5206600000000 1.0
C      1  0.4693370000000  0.4641290000000  0.4652660000000 1.0
C      1  0.5298510000000  0.4565290000000  0.5188700000000 1.0
C      1  0.5797050000000  0.4828430000000  0.5569140000000 1.0
C      1  0.5074280000000  0.5132910000000  0.5305030000000 1.0
C      1  0.4078790000000  0.5039400000000  0.4111090000000 1.0
C      1  0.5669640000000  0.4377630000000  0.4231030000000 1.0
C      1  0.5350170000000  0.4905160000000  0.4639260000000 1.0
C      1  0.5743370000000  0.4027110000000  0.5312470000000 1.0
C      1  0.4991120000000  0.5294020000000  0.6182980000000 1.0
C      1  0.3821150000000  0.4912620000000  0.4773380000000 1.0
C      1  0.5586500000000  0.5393520000000  0.4023890000000 1.0
C      1  0.4742810000000  0.5775620000000  0.4531970000000 1.0
C      1  0.4050390000000  0.5537570000000  0.5247920000000 1.0
C      1  0.4880270000000  0.5356160000000  0.4366410000000 1.0
C      1  0.4463070000000  0.5401530000000  0.4178300000000 1.0
C      1  0.4963590000000  0.5039410000000  0.5759680000000 1.0
C      1  0.4792770000000  0.5294490000000  0.5906750000000 1.0
C      1  0.4340360000000  0.4416330000000  0.4388130000000 1.0
C      1  0.4456020000000  0.5554150000000  0.5664090000000 1.0
C      1  0.5395490000000  0.5234910000000  0.4589780000000 1.0
C      1  0.5416860000000  0.5462680000000  0.5817340000000 1.0
C      1  0.5696690000000  0.4932550000000  0.4923110000000 1.0
C      1  0.5897610000000  0.5424880000000  0.5191730000000 1.0
C      1  0.4603490000000  0.4221530000000  0.5307540000000 1.0
C      1  0.5629020000000  0.4668690000000  0.3817910000000 1.0
C      1  0.4259000000000  0.4872270000000  0.5108530000000 1.0
C      1  0.5160400000000  0.4543770000000  0.4699790000000 1.0
C      1  0.5094540000000  0.5829150000000  0.5658980000000 1.0
C      1  0.4025190000000  0.5178830000000  0.4368080000000 1.0
C      1  0.4626760000000  0.5067760000000  0.6098390000000 1.0
C      1  0.4227290000000  0.4154860000000  0.5191410000000 1.0
C      1  0.5283780000000  0.5549310000000  0.5447180000000 1.0
C      1  0.4736900000000  0.3952070000000  0.4396400000000 1.0
C      1  0.4941590000000  0.5974730000000  0.5409460000000 1.0
C      1  0.4865890000000  0.5615030000000  0.5791560000000 1.0
C      1  0.5858130000000  0.5693190000000  0.4487470000000 1.0
C      1  0.4078960000000  0.4518260000000  0.4589230000000 1.0
C      1  0.4576300000000  0.5297730000000  0.5210080000000 1.0
C      1  0.5668340000000  0.4815400000000  0.4611230000000 1.0
C      1  0.4489050000000  0.4969800000000  0.5652730000000 1.0
C      1  0.5125820000000  0.4371920000000  0.4968560000000 1.0
C      1  0.4447040000000  0.6071160000000  0.4139820000000 1.0
C      1  0.6078580000000  0.5252260000000  0.5006900000000 1.0
C      1  0.5328720000000  0.5891880000000  0.5420460000000 1.0
C      1  0.5059560000000  0.5892420000000  0.4572600000000 1.0
C      1  0.4888150000000  0.6059720000000  0.4814100000000 1.0
C      1  0.4797460000000  0.4430090000000  0.4900180000000 1.0
C      1  0.5914910000000  0.5367050000000  0.4484510000000 1.0
C      1  0.4743110000000  0.5060000000000  0.4271040000000 1.0
C      1  0.4317720000000  0.4760330000000  0.4589980000000 1.0
C      1  0.4471560000000  0.5277910000000  0.5795880000000 1.0
C      1  0.5335930000000  0.5244360000000  0.5583500000000 1.0
C      1  0.5831370000000  0.5686720000000  0.5035780000000 1.0
C      1  0.5358640000000  0.4082010000000  0.5863990000000 1.0
C      1  0.4869700000000  0.4502240000000  0.5741090000000 1.0
C      1  0.5891820000000  0.4584260000000  0.4666970000000 1.0
C      1  0.5339630000000  0.5199210000000  0.4270560000000 1.0
C      1  0.5168380000000  0.4126080000000  0.5427360000000 1.0
C      1  0.5269560000000  0.4378310000000  0.3981840000000 1.0
C      1  0.5072400000000  0.5040970000000  0.4188390000000 1.0
C      1  0.5007300000000  0.4480780000000  0.5344830000000 1.0
C      1  0.5485010000000  0.4482910000000  0.4725240000000 1.0
C      1  0.5614600000000  0.5325170000000  0.4828970000000 1.0
C      1  0.4547440000000  0.4148750000000  0.4758690000000 1.0
C      1  0.5885600000000  0.5156460000000  0.4750290000000 1.0
C      1  0.5159610000000  0.5783650000000  0.4266140000000 1.0
C      1  0.5619680000000  0.5920970000000  0.4586820000000 1.0
C      1  0.5548940000000  0.4505930000000  0.5822760000000 1.0
C      1  0.4753920000000  0.4552970000000  0.6056760000000 1.0
C      1  0.5401530000000  0.4327870000000  0.4434360000000 1.0
C      1  0.5091910000000  0.4590470000000  0.6057220000000 1.0
C      1  0.5091490000000  0.5543910000000  0.5193350000000 1.0
C      1  0.4304360000000  0.5860580000000  0.4802520000000 1.0
C      1  0.4810850000000  0.5269930000000  0.5404420000000 1.0
C      1  0.5866100000000  0.4391540000000  0.4936390000000 1.0
C      1  0.4852270000000  0.4103190000000  0.4823550000000 1.0
C      1  0.5613540000000  0.4167050000000  0.4724310000000 1.0
C      1  0.4022400000000  0.5154350000000  0.4684680000000 1.0
C      1  0.4206210000000  0.4641180000000  0.5602590000000 1.0
C      1  0.5347310000000  0.4848360000000  0.5370720000000 1.0
C      1  0.6085570000000  0.4934420000000  0.5014610000000 1.0
C      1  0.5106400000000  0.5183510000000  0.3910080000000 1.0
C      1  0.3982960000000  0.4586940000000  0.5121920000000 1.0
C      1  0.5791910000000  0.4327990000000  0.4512170000000 1.0
C      1  0.4304320000000  0.5335030000000  0.5022700000000 1.0
C      1  0.5301810000000  0.4094730000000  0.4959800000000 1.0
C      1  0.5719530000000  0.5138960000000  0.5179250000000 1.0
C      1  0.5888600000000  0.5416060000000  0.5730010000000 1.0
C      1  0.5192770000000  0.5206980000000  0.4848880000000 1.0
C      1  0.4741740000000  0.4337860000000  0.3996640000000 1.0
C      1  0.4933490000000  0.4285840000000  0.4339880000000 1.0
C      1  0.4579460000000  0.4325190000000  0.5729930000000 1.0
C      1  0.4868550000000  0.3910000000000  0.5052990000000 1.0
C      1  0.5613360000000  0.4986080000000  0.5704540000000 1.0
C      1  0.5071160000000  0.5705430000000  0.6047180000000 1.0
C      1  0.5204910000000  0.6007510000000  0.4926390000000 1.0
C      1  0.5373090000000  0.5736960000000  0.5788160000000 1.0
C      1  0.4863840000000  0.4202620000000  0.5477750000000 1.0
C      1  0.5446900000000  0.5564600000000  0.4534750000000 1.0
C      1  0.5909280000000  0.4256650000000  0.5244170000000 1.0
C      1  0.4597070000000  0.5819320000000  0.5813970000000 1.0
C      1  0.5569610000000  0.4260580000000  0.5042540000000 1.0
C      1  0.3827830000000  0.4726730000000  0.5373420000000 1.0
C      1  0.5541150000000  0.4932050000000  0.3860150000000 1.0
C      1  0.4658710000000  0.5553270000000  0.4317180000000 1.0
C      1  0.4584930000000  0.5150110000000  0.3983880000000 1.0
C      1  0.4392060000000  0.4565900000000  0.5793840000000 1.0
C      1  0.5572230000000  0.4652810000000  0.5006850000000 1.0
C      1  0.4497520000000  0.5581460000000  0.4782350000000 1.0
C      1  0.4751300000000  0.4976430000000  0.4660890000000 1.0
C      1  0.4060190000000  0.5263000000000  0.5449010000000 1.0
C      1  0.5565380000000  0.5022200000000  0.4165680000000 1.0
C      1  0.4630630000000  0.3934240000000  0.5188390000000 1.0
C      1  0.5895950000000  0.4862790000000  0.5269190000000 1.0
C      1  0.5472260000000  0.5500500000000  0.5083140000000 1.0
C      1  0.5326290000000  0.4581330000000  0.4246480000000 1.0
C      1  0.4791590000000  0.4071030000000  0.5752550000000 1.0
C      1  0.4610360000000  0.4966290000000  0.4970140000000 1.0
C      1  0.5118990000000  0.4805530000000  0.4867440000000 1.0
C      1  0.4716830000000  0.4577780000000  0.5469020000000 1.0
C      1  0.5568290000000  0.4430020000000  0.3968030000000 1.0
C      1  0.5246560000000  0.5691370000000  0.4962970000000 1.0
C      1  0.6057210000000  0.4871340000000  0.4679930000000 1.0
C      1  0.4844350000000  0.5383760000000  0.5023300000000 1.0
C      1  0.4936250000000  0.5056750000000  0.5005710000000 1.0
C      1  0.5430630000000  0.5583380000000  0.4206930000000 1.0
C      1  0.5349540000000  0.4299990000000  0.5656620000000 1.0
C      1  0.4768050000000  0.4969960000000  0.5502820000000 1.0
C      1  0.5549940000000  0.4774300000000  0.4321180000000 1.0
C      1  0.3963270000000  0.5476820000000  0.4733640000000 1.0
C      1  0.5400400000000  0.4627630000000  0.6041280000000 1.0
C      1  0.4341180000000  0.4257760000000  0.5495090000000 1.0
C      1  0.5365070000000  0.4963410000000  0.6021380000000 1.0
C      1  0.5401920000000  0.5213180000000  0.3856910000000 1.0
C      1  0.4595720000000  0.6014180000000  0.4889020000000 1.0
C      1  0.4467190000000  0.4401200000000  0.4677280000000 1.0
C      1  0.4850370000000  0.5202800000000  0.3797830000000 1.0
C      1  0.4422730000000  0.5643260000000  0.5108250000000 1.0
C      1  0.5124760000000  0.5448540000000  0.4220260000000 1.0
C      1  0.5806490000000  0.5216300000000  0.4215220000000 1.0
C      1  0.5446500000000  0.5286040000000  0.6102680000000 1.0
C      1  0.5033120000000  0.4801190000000  0.5372920000000 1.0
C      1  0.4730180000000  0.4613300000000  0.4004690000000 1.0
C      1  0.4474120000000  0.5040820000000  0.4478210000000 1.0
C      1  0.5090260000000  0.3873920000000  0.5214310000000 1.0
C      1  0.4305440000000  0.5255330000000  0.4359890000000 1.0
C      1  0.5278340000000  0.4927740000000  0.5694280000000 1.0
C      1  0.4805520000000  0.5556680000000  0.5471650000000 1.0
C      1  0.4997560000000  0.5370020000000  0.4654560000000 1.0
C      1  0.5321510000000  0.4958820000000  0.5050080000000 1.0
C      1  0.5679160000000  0.5642030000000  0.4772040000000 1.0
C      1  0.4254100000000  0.4986530000000  0.5407380000000 1.0
C      1  0.5040870000000  0.4592080000000  0.4405480000000 1.0
C      1  0.5300950000000  0.4075720000000  0.4626160000000 1.0
C      1  0.4358710000000  0.5492770000000  0.5384060000000 1.0
C      1  0.5845410000000  0.5522610000000  0.5486540000000 1.0
C      1  0.3905350000000  0.4648590000000  0.4804540000000 1.0
C      1  0.5189220000000  0.4599400000000  0.5676900000000 1.0
C      1  0.4692230000000  0.5304420000000  0.4729640000000 1.0
C      1  0.5487970000000  0.4354350000000  0.5358920000000 1.0
C      1  0.4332900000000  0.4939140000000  0.4072940000000 1.0
C      1  0.5764450000000  0.4554450000000  0.5640420000000 1.0
C      1  0.5176590000000  0.5610540000000  0.4683380000000 1.0
C      1  0.5029590000000  0.4248550000000  0.4019160000000 1.0
C      1  0.5759710000000  0.5922820000000  0.5194290000000 1.0
C      1  0.4737770000000  0.4724390000000  0.4325790000000 1.0
C      1  0.5414380000000  0.3963990000000  0.5253000000000 1.0
C      1  0.5751030000000  0.4555360000000  0.5281590000000 1.0
C      1  0.4006650000000  0.4892520000000  0.5600920000000 1.0
C      1  0.5397690000000  0.5223070000000  0.5249760000000 1.0
C      1  0.4589730000000  0.5946790000000  0.4311030000000 1.0
C      1  0.5043260000000  0.4920520000000  0.4493640000000 1.0
C      1  0.5190670000000  0.5487500000000  0.6156930000000 1.0
C      1  0.4590230000000  0.4224260000000  0.4260310000000 1.0
C      1  0.4071590000000  0.5645320000000  0.4925610000000 1.0
C      1  0.4661600000000  0.4799600000000  0.5228220000000 1.0
C      1  0.4154830000000  0.5161360000000  0.5751570000000 1.0
C      1  0.5612670000000  0.6158640000000  0.5165850000000 1.0
C      1  0.5666040000000  0.5240100000000  0.5851110000000 1.0
C      1  0.3975330000000  0.5260860000000  0.5068220000000 1.0
C      1  0.4314980000000  0.4612210000000  0.4896260000000 1.0
C      1  0.6048090000000  0.5062740000000  0.4398810000000 1.0
C      1  0.5100820000000  0.5044790000000  0.6220770000000 1.0
C      1  0.4403530000000  0.4713400000000  0.4264300000000 1.0
C      1  0.4314690000000  0.5076420000000  0.4842310000000 1.0
C      1  0.4141770000000  0.4334620000000  0.4989350000000 1.0
C      1  0.5342710000000  0.6100860000000  0.5189050000000 1.0
C      1  0.4978470000000  0.4867100000000  0.6023860000000 1.0
C      1  0.4453290000000  0.5865950000000  0.5512030000000 1.0
C      1  0.4264050000000  0.4533200000000  0.5311280000000 1.0
C      1  0.3770840000000  0.5110430000000  0.4991010000000 1.0
C      1  0.4548220000000  0.4800000000000  0.5942890000000 1.0
C      1  0.5364950000000  0.6041190000000  0.4628270000000 1.0
C      1  0.4797950000000  0.5673720000000  0.4851870000000 1.0
END
