TITL C-2848504-8560-38 0.00083456145446657 125000 -893.879031503588 0 0 173 (C1) n - 1
REM
REM in /home/bkarasulu/work/CARBON/AIRSS/Generating-Clusters/AIREBO/with-SteepDescent/Only-C1/SD-CG-opt/Try1-1.4A-POS3A/HFTN-CG
REM
REM
REM
REM
REM
REM ./C.cell (11c1c37f851c82e70ff6c80c92926a4b)
REM
REM compiler GCC version 9.2.1 20190827 (Red Hat 9.2.1-1)
REM options -cpp -mtune=generic -march=x86-64 -g -O0 -fpre-include=/usr/include/finclude/math-vector-fortran.h
REM seed -360516553 2019098691 1317620000 -1122938456 -1295828307 1106436684 -1938773482 -1217589846 -1372439928 -935172264 -1866921054 -385743497 -51795043 1164195235 1413210801 155410259 231082263 -152407024 443304920 894803252 -1154726947 1461880713 1122198340 -1511721923 -1620521584 2142362940 1759720498 -1174962220 -2002598431 -1669788050 415982222 -1754115222 -803776786
REM
CELL 1.54180   50.00000   50.00000   50.00000   90.00000   90.00000   90.00000
LATT -1
SFAC C  
C      1  0.4037000000000  0.5178170000000  0.4649360000000 1.0
C      1  0.4814150000000  0.5644850000000  0.4920030000000 1.0
C      1  0.5188220000000  0.5866430000000  0.5662630000000 1.0
C      1  0.4513420000000  0.3995110000000  0.5064060000000 1.0
C      1  0.4384130000000  0.5334010000000  0.4771270000000 1.0
C      1  0.4299440000000  0.4326690000000  0.4754310000000 1.0
C      1  0.5628370000000  0.4850390000000  0.4482390000000 1.0
C      1  0.5621710000000  0.4771270000000  0.4995210000000 1.0
C      1  0.4768420000000  0.5141050000000  0.5054220000000 1.0
C      1  0.4371200000000  0.4985020000000  0.4101560000000 1.0
C      1  0.5066640000000  0.5189230000000  0.3979330000000 1.0
C      1  0.5293190000000  0.4689330000000  0.5028090000000 1.0
C      1  0.4531530000000  0.6105560000000  0.4584260000000 1.0
C      1  0.4813550000000  0.4611240000000  0.4512240000000 1.0
C      1  0.4985280000000  0.4901070000000  0.5298490000000 1.0
C      1  0.5486340000000  0.4872480000000  0.4200610000000 1.0
C      1  0.4945930000000  0.5747100000000  0.4200480000000 1.0
C      1  0.3922640000000  0.4947210000000  0.4779110000000 1.0
C      1  0.4993540000000  0.5318210000000  0.4685950000000 1.0
C      1  0.4428870000000  0.3852310000000  0.4580690000000 1.0
C      1  0.5554460000000  0.3856020000000  0.4679870000000 1.0
C      1  0.4811880000000  0.5391990000000  0.4407990000000 1.0
C      1  0.5722640000000  0.4129030000000  0.5038030000000 1.0
C      1  0.4486470000000  0.4491000000000  0.5260640000000 1.0
C      1  0.5313060000000  0.4200380000000  0.5515970000000 1.0
C      1  0.4842510000000  0.4934520000000  0.3956970000000 1.0
C      1  0.5997800000000  0.4606640000000  0.5335750000000 1.0
C      1  0.5888130000000  0.4699690000000  0.4416610000000 1.0
C      1  0.5530930000000  0.4383390000000  0.4447060000000 1.0
C      1  0.4899570000000  0.4035640000000  0.4612120000000 1.0
C      1  0.5433250000000  0.4552310000000  0.4099130000000 1.0
C      1  0.5071250000000  0.5416740000000  0.5224950000000 1.0
C      1  0.5494160000000  0.5325610000000  0.5429240000000 1.0
C      1  0.5552110000000  0.5090560000000  0.5614070000000 1.0
C      1  0.5168080000000  0.5108500000000  0.5507580000000 1.0
C      1  0.3930280000000  0.5204540000000  0.5264990000000 1.0
C      1  0.4472730000000  0.4846890000000  0.5932550000000 1.0
C      1  0.4923630000000  0.6186590000000  0.5153630000000 1.0
C      1  0.4451480000000  0.5420210000000  0.4113230000000 1.0
C      1  0.4132090000000  0.4777530000000  0.4986590000000 1.0
C      1  0.5544120000000  0.3946380000000  0.4938960000000 1.0
C      1  0.5806670000000  0.4858150000000  0.5267310000000 1.0
C      1  0.5312510000000  0.4234510000000  0.5189150000000 1.0
C      1  0.5008370000000  0.3872960000000  0.5244400000000 1.0
C      1  0.5827280000000  0.4433560000000  0.4396500000000 1.0
C      1  0.4182070000000  0.5685380000000  0.5154690000000 1.0
C      1  0.5512070000000  0.5614930000000  0.4250890000000 1.0
C      1  0.5102840000000  0.4745370000000  0.6176450000000 1.0
C      1  0.5861090000000  0.5761200000000  0.5006500000000 1.0
C      1  0.4761240000000  0.5692500000000  0.5755500000000 1.0
C      1  0.5099980000000  0.5070800000000  0.5027120000000 1.0
C      1  0.5265250000000  0.5510980000000  0.5486100000000 1.0
C      1  0.5537630000000  0.4788440000000  0.5463440000000 1.0
C      1  0.4690760000000  0.5829990000000  0.5267080000000 1.0
C      1  0.4667650000000  0.5449100000000  0.5156910000000 1.0
C      1  0.4449000000000  0.5716080000000  0.5711010000000 1.0
C      1  0.5051630000000  0.5128240000000  0.6078050000000 1.0
C      1  0.5234320000000  0.3958090000000  0.5045550000000 1.0
C      1  0.5171340000000  0.4721740000000  0.4011590000000 1.0
C      1  0.5925590000000  0.5096480000000  0.5478860000000 1.0
C      1  0.4434410000000  0.6029190000000  0.5167880000000 1.0
C      1  0.4849820000000  0.4967660000000  0.4352800000000 1.0
C      1  0.4257800000000  0.5645250000000  0.4825410000000 1.0
C      1  0.5053380000000  0.4440680000000  0.4147050000000 1.0
C      1  0.5696740000000  0.5836770000000  0.5541990000000 1.0
C      1  0.6123730000000  0.4828840000000  0.4372340000000 1.0
C      1  0.5648420000000  0.5000700000000  0.4744410000000 1.0
C      1  0.5363670000000  0.4026740000000  0.4476450000000 1.0
C      1  0.4739090000000  0.3976890000000  0.5226820000000 1.0
C      1  0.4290870000000  0.4764980000000  0.4509610000000 1.0
C      1  0.5347510000000  0.5180640000000  0.5958550000000 1.0
C      1  0.4867270000000  0.5253190000000  0.5442570000000 1.0
C      1  0.4457660000000  0.4320560000000  0.5523410000000 1.0
C      1  0.5651450000000  0.5341230000000  0.4157340000000 1.0
C      1  0.4768730000000  0.4835960000000  0.4908650000000 1.0
C      1  0.4415620000000  0.4616690000000  0.4888700000000 1.0
C      1  0.5484790000000  0.5298380000000  0.4714160000000 1.0
C      1  0.4206010000000  0.4366900000000  0.5630340000000 1.0
C      1  0.5001590000000  0.5748280000000  0.5253910000000 1.0
C      1  0.4248970000000  0.4792950000000  0.4205300000000 1.0
C      1  0.5229130000000  0.5659090000000  0.4333040000000 1.0
C      1  0.5475180000000  0.5220110000000  0.5128410000000 1.0
C      1  0.5462280000000  0.4423350000000  0.5625050000000 1.0
C      1  0.4824480000000  0.4346070000000  0.5105180000000 1.0
C      1  0.6165460000000  0.4768350000000  0.4994620000000 1.0
C      1  0.5719860000000  0.5931050000000  0.5135560000000 1.0
C      1  0.5676500000000  0.4620320000000  0.5724390000000 1.0
C      1  0.5009400000000  0.4600650000000  0.4860350000000 1.0
C      1  0.4716210000000  0.5828130000000  0.4651750000000 1.0
C      1  0.4672290000000  0.5202610000000  0.3969530000000 1.0
C      1  0.5167320000000  0.4985780000000  0.4232480000000 1.0
C      1  0.5074410000000  0.4417290000000  0.5281040000000 1.0
C      1  0.5205430000000  0.5745930000000  0.4618960000000 1.0
C      1  0.4383010000000  0.5404180000000  0.5352540000000 1.0
C      1  0.5128820000000  0.5030470000000  0.4627930000000 1.0
C      1  0.6009750000000  0.5057950000000  0.5081290000000 1.0
C      1  0.6213500000000  0.5208190000000  0.5224740000000 1.0
C      1  0.5389780000000  0.4649080000000  0.4516470000000 1.0
C      1  0.4817760000000  0.4994780000000  0.5658200000000 1.0
C      1  0.4044810000000  0.4953840000000  0.5263980000000 1.0
C      1  0.5642730000000  0.5039620000000  0.5995630000000 1.0
C      1  0.5264110000000  0.6190160000000  0.5161320000000 1.0
C      1  0.5037850000000  0.5667060000000  0.5795640000000 1.0
C      1  0.5327710000000  0.4253820000000  0.4223550000000 1.0
C      1  0.4429720000000  0.4918010000000  0.5602830000000 1.0
C      1  0.4583930000000  0.5165770000000  0.4295980000000 1.0
C      1  0.4326050000000  0.4280240000000  0.5084400000000 1.0
C      1  0.5320790000000  0.4943640000000  0.5252310000000 1.0
C      1  0.4079590000000  0.4555820000000  0.5461500000000 1.0
C      1  0.5521070000000  0.5822840000000  0.4806380000000 1.0
C      1  0.4747890000000  0.4233500000000  0.5417080000000 1.0
C      1  0.4419420000000  0.5637410000000  0.4289550000000 1.0
C      1  0.4384010000000  0.5800930000000  0.5402770000000 1.0
C      1  0.5033170000000  0.6159850000000  0.4837270000000 1.0
C      1  0.4085300000000  0.5427260000000  0.5255520000000 1.0
C      1  0.4122870000000  0.4551340000000  0.4626870000000 1.0
C      1  0.5165460000000  0.3930560000000  0.4735550000000 1.0
C      1  0.5837200000000  0.5113520000000  0.5773140000000 1.0
C      1  0.5384110000000  0.5881980000000  0.5112040000000 1.0
C      1  0.4966960000000  0.4262920000000  0.4392030000000 1.0
C      1  0.5946930000000  0.5048280000000  0.4747390000000 1.0
C      1  0.4142010000000  0.4830090000000  0.5497610000000 1.0
C      1  0.4826390000000  0.5247170000000  0.5872450000000 1.0
C      1  0.4095340000000  0.4498980000000  0.5178370000000 1.0
C      1  0.4551280000000  0.5146200000000  0.5389410000000 1.0
C      1  0.5448700000000  0.4411220000000  0.4975350000000 1.0
C      1  0.5118540000000  0.4743390000000  0.4584260000000 1.0
C      1  0.4726770000000  0.6034560000000  0.4921760000000 1.0
C      1  0.5267820000000  0.4700720000000  0.5654270000000 1.0
C      1  0.4690120000000  0.5285160000000  0.4770900000000 1.0
C      1  0.5132950000000  0.5343540000000  0.5750970000000 1.0
C      1  0.5120660000000  0.3917360000000  0.5503290000000 1.0
C      1  0.4705940000000  0.4456550000000  0.4806180000000 1.0
C      1  0.5768250000000  0.4462740000000  0.4990520000000 1.0
C      1  0.4726740000000  0.5561370000000  0.5472400000000 1.0
C      1  0.4566230000000  0.4546370000000  0.4075870000000 1.0
C      1  0.3883840000000  0.4660610000000  0.4696000000000 1.0
C      1  0.4868120000000  0.4862610000000  0.5967420000000 1.0
C      1  0.5028020000000  0.4159160000000  0.5689830000000 1.0
C      1  0.4402250000000  0.5952310000000  0.4858850000000 1.0
C      1  0.4406530000000  0.4030310000000  0.4785840000000 1.0
C      1  0.5766280000000  0.5285260000000  0.5012480000000 1.0
C      1  0.4677640000000  0.4591110000000  0.5911710000000 1.0
C      1  0.5090430000000  0.6010940000000  0.5392230000000 1.0
C      1  0.5642820000000  0.5090940000000  0.4042420000000 1.0
C      1  0.5255510000000  0.6029880000000  0.4759100000000 1.0
C      1  0.4771790000000  0.4667010000000  0.5203730000000 1.0
C      1  0.5006110000000  0.4572770000000  0.5528840000000 1.0
C      1  0.5376480000000  0.4273240000000  0.4710440000000 1.0
C      1  0.5299130000000  0.4844300000000  0.5944530000000 1.0
C      1  0.5305080000000  0.5221560000000  0.4435820000000 1.0
C      1  0.5682280000000  0.5543810000000  0.4842420000000 1.0
C      1  0.5149050000000  0.5695940000000  0.4950670000000 1.0
C      1  0.4216190000000  0.5652430000000  0.4474010000000 1.0
C      1  0.5611080000000  0.4742010000000  0.5970060000000 1.0
C      1  0.4578210000000  0.4797700000000  0.4651200000000 1.0
C      1  0.4800930000000  0.4391460000000  0.5713940000000 1.0
C      1  0.5228300000000  0.5366020000000  0.4927500000000 1.0
C      1  0.5083100000000  0.5375610000000  0.4253300000000 1.0
C      1  0.4343080000000  0.5100620000000  0.4527380000000 1.0
C      1  0.5074820000000  0.4316950000000  0.4697170000000 1.0
C      1  0.4481900000000  0.4980400000000  0.5142170000000 1.0
C      1  0.4699360000000  0.5681750000000  0.4397140000000 1.0
C      1  0.4706120000000  0.4733410000000  0.5530660000000 1.0
C      1  0.5668410000000  0.5431460000000  0.4460730000000 1.0
C      1  0.5415820000000  0.5784900000000  0.5436600000000 1.0
C      1  0.4019200000000  0.5460680000000  0.4668160000000 1.0
C      1  0.4305420000000  0.5062630000000  0.4921200000000 1.0
C      1  0.5802340000000  0.5316830000000  0.5332440000000 1.0
C      1  0.6061910000000  0.4546050000000  0.4945990000000 1.0
C      1  0.4499180000000  0.5174990000000  0.5814680000000 1.0
C      1  0.4811830000000  0.4677990000000  0.4178660000000 1.0
C      1  0.4392460000000  0.5425380000000  0.5671790000000 1.0
END
