TITL C-2847948-6138-256 -5.76913231780162 125000 -1004.44928816751 0 0 182 (C1) n - 1
REM
REM in /home/bkarasulu/work/CARBON/AIRSS/Generating-Clusters/AIREBO/with-SteepDescent/Only-C1/SD-CG-opt/Try1-1.4A-POS3A/HFTN-CG
REM
REM
REM
REM
REM
REM ./C.cell (11c1c37f851c82e70ff6c80c92926a4b)
REM
REM compiler GCC version 9.2.1 20190827 (Red Hat 9.2.1-1)
REM options -cpp -mtune=generic -march=x86-64 -g -O0 -fpre-include=/usr/include/finclude/math-vector-fortran.h
REM seed 2095704386 -1697469631 -1532990904 -926477928 1593542995 -1301794258 1711045935 1778874882 -276455695 1843962195 -948832313 -644785118 -2005399162 -186435019 1567683334 692117717 1364213427 392478184 -1779189145 -1801569768 -702760250 -1796183381 1811907183 -1086058724 -376218970 1808216303 446119009 -401811731 -1685957776 -568761737 -1136108635 261423380 7045335
REM
CELL 1.54180   50.00000   50.00000   50.00000   90.00000   90.00000   90.00000
LATT -1
SFAC C  
C      1  0.5187390000000  0.5503350000000  0.4251830000000 1.0
C      1  0.4948050000000  0.5060730000000  0.5414280000000 1.0
C      1  0.5664040000000  0.4982000000000  0.5348080000000 1.0
C      1  0.5157670000000  0.4879150000000  0.4591070000000 1.0
C      1  0.4293360000000  0.5638410000000  0.5606940000000 1.0
C      1  0.4012570000000  0.5344340000000  0.4713090000000 1.0
C      1  0.4520600000000  0.4145820000000  0.4958520000000 1.0
C      1  0.5393900000000  0.4730160000000  0.5962050000000 1.0
C      1  0.4453510000000  0.5792830000000  0.4350150000000 1.0
C      1  0.4893720000000  0.5327030000000  0.5873210000000 1.0
C      1  0.5272020000000  0.5599280000000  0.4919510000000 1.0
C      1  0.5657230000000  0.4836910000000  0.4127820000000 1.0
C      1  0.4806140000000  0.6108280000000  0.4969940000000 1.0
C      1  0.4249330000000  0.4500690000000  0.4528270000000 1.0
C      1  0.5000190000000  0.3675590000000  0.5191270000000 1.0
C      1  0.4176740000000  0.4157380000000  0.5004250000000 1.0
C      1  0.4179390000000  0.5469040000000  0.5348540000000 1.0
C      1  0.6012660000000  0.4395460000000  0.5315990000000 1.0
C      1  0.4695060000000  0.4050170000000  0.5549730000000 1.0
C      1  0.5729790000000  0.4534930000000  0.4593070000000 1.0
C      1  0.5886700000000  0.5305710000000  0.4267460000000 1.0
C      1  0.5830060000000  0.5257920000000  0.5581790000000 1.0
C      1  0.4636720000000  0.4885530000000  0.5815270000000 1.0
C      1  0.5582980000000  0.4767090000000  0.5704510000000 1.0
C      1  0.5878270000000  0.4768610000000  0.5205460000000 1.0
C      1  0.4474100000000  0.5097190000000  0.5602870000000 1.0
C      1  0.4903470000000  0.5679630000000  0.4607590000000 1.0
C      1  0.4823800000000  0.4121840000000  0.4555930000000 1.0
C      1  0.5455280000000  0.5338560000000  0.5038090000000 1.0
C      1  0.5345610000000  0.4888980000000  0.4086030000000 1.0
C      1  0.6119440000000  0.4922880000000  0.4786490000000 1.0
C      1  0.4749980000000  0.4274360000000  0.4089500000000 1.0
C      1  0.5489480000000  0.4825090000000  0.4953450000000 1.0
C      1  0.4127390000000  0.4907130000000  0.5654910000000 1.0
C      1  0.4434140000000  0.5247280000000  0.5308550000000 1.0
C      1  0.5044690000000  0.5316180000000  0.4002500000000 1.0
C      1  0.5645620000000  0.5318630000000  0.5302580000000 1.0
C      1  0.4914920000000  0.5035000000000  0.5731430000000 1.0
C      1  0.5350840000000  0.5597180000000  0.6145050000000 1.0
C      1  0.5189630000000  0.5370140000000  0.5979740000000 1.0
C      1  0.5978050000000  0.5199380000000  0.5031660000000 1.0
C      1  0.3949450000000  0.5051500000000  0.5489770000000 1.0
C      1  0.4959820000000  0.5162940000000  0.6231850000000 1.0
C      1  0.5473650000000  0.3984340000000  0.4964990000000 1.0
C      1  0.4006470000000  0.5188670000000  0.4473940000000 1.0
C      1  0.5056630000000  0.5382720000000  0.5430090000000 1.0
C      1  0.5424970000000  0.5695270000000  0.5207830000000 1.0
C      1  0.6025110000000  0.4988420000000  0.5645020000000 1.0
C      1  0.4598210000000  0.5826440000000  0.4641470000000 1.0
C      1  0.5566730000000  0.6061830000000  0.5156080000000 1.0
C      1  0.4768500000000  0.5400500000000  0.4028390000000 1.0
C      1  0.5195660000000  0.4911480000000  0.5297850000000 1.0
C      1  0.5075750000000  0.5957970000000  0.4582330000000 1.0
C      1  0.6004090000000  0.4164260000000  0.5176680000000 1.0
C      1  0.5223910000000  0.3903840000000  0.5148430000000 1.0
C      1  0.5355080000000  0.5965490000000  0.5398050000000 1.0
C      1  0.5457010000000  0.5514770000000  0.5832720000000 1.0
C      1  0.4560310000000  0.6013070000000  0.4867040000000 1.0
C      1  0.4638690000000  0.5735390000000  0.5226920000000 1.0
C      1  0.4581970000000  0.5510130000000  0.4765770000000 1.0
C      1  0.4517150000000  0.4453160000000  0.4236320000000 1.0
C      1  0.4736330000000  0.5664580000000  0.4311580000000 1.0
C      1  0.5013690000000  0.6143110000000  0.4780910000000 1.0
C      1  0.5205110000000  0.5523420000000  0.4591040000000 1.0
C      1  0.4372570000000  0.4950070000000  0.3882310000000 1.0
C      1  0.5042320000000  0.5500300000000  0.5131990000000 1.0
C      1  0.4693330000000  0.5191410000000  0.4722430000000 1.0
C      1  0.4594720000000  0.4774620000000  0.3982710000000 1.0
C      1  0.4822800000000  0.5800750000000  0.5775290000000 1.0
C      1  0.5757370000000  0.4495310000000  0.5468600000000 1.0
C      1  0.4753550000000  0.5230420000000  0.5192850000000 1.0
C      1  0.4991710000000  0.5095950000000  0.4429600000000 1.0
C      1  0.5311510000000  0.4126060000000  0.4311700000000 1.0
C      1  0.5879790000000  0.5465360000000  0.4971280000000 1.0
C      1  0.5069400000000  0.4700680000000  0.5945030000000 1.0
C      1  0.4654200000000  0.4163870000000  0.5270740000000 1.0
C      1  0.5168310000000  0.4715590000000  0.5024350000000 1.0
C      1  0.5782620000000  0.5745270000000  0.5512580000000 1.0
C      1  0.5779400000000  0.4041930000000  0.5102120000000 1.0
C      1  0.4138820000000  0.5348330000000  0.4247780000000 1.0
C      1  0.5885840000000  0.4728440000000  0.5669760000000 1.0
C      1  0.4991950000000  0.5133920000000  0.4982210000000 1.0
C      1  0.5430480000000  0.4803390000000  0.5445370000000 1.0
C      1  0.5016260000000  0.4400890000000  0.4582410000000 1.0
C      1  0.4383690000000  0.5889240000000  0.5097140000000 1.0
C      1  0.5543000000000  0.4081980000000  0.5306060000000 1.0
C      1  0.5498730000000  0.5733560000000  0.5598820000000 1.0
C      1  0.5678810000000  0.5428390000000  0.4720220000000 1.0
C      1  0.5835160000000  0.5714000000000  0.4730180000000 1.0
C      1  0.4417140000000  0.4681860000000  0.4744710000000 1.0
C      1  0.4902420000000  0.3978830000000  0.5130170000000 1.0
C      1  0.5370830000000  0.5458420000000  0.5446240000000 1.0
C      1  0.4019980000000  0.4413620000000  0.5143700000000 1.0
C      1  0.5625540000000  0.5264430000000  0.5804040000000 1.0
C      1  0.4340900000000  0.4710110000000  0.4200030000000 1.0
C      1  0.4742730000000  0.5520060000000  0.5036110000000 1.0
C      1  0.4271800000000  0.5284840000000  0.5010360000000 1.0
C      1  0.5919010000000  0.5057340000000  0.4373060000000 1.0
C      1  0.4268260000000  0.4770260000000  0.4992190000000 1.0
C      1  0.5184930000000  0.4210510000000  0.4808040000000 1.0
C      1  0.4850760000000  0.4193970000000  0.4881110000000 1.0
C      1  0.4555010000000  0.6146060000000  0.5502450000000 1.0
C      1  0.5399110000000  0.3832540000000  0.4379840000000 1.0
C      1  0.5082510000000  0.6050530000000  0.5421370000000 1.0
C      1  0.6150470000000  0.4984170000000  0.4496320000000 1.0
C      1  0.5232480000000  0.4175500000000  0.5334510000000 1.0
C      1  0.5366610000000  0.4597510000000  0.4251700000000 1.0
C      1  0.5352100000000  0.4378120000000  0.5014500000000 1.0
C      1  0.5435640000000  0.4985910000000  0.4658640000000 1.0
C      1  0.5391260000000  0.4048170000000  0.4641080000000 1.0
C      1  0.4172180000000  0.4440760000000  0.5416360000000 1.0
C      1  0.5792040000000  0.4959280000000  0.4871340000000 1.0
C      1  0.5691410000000  0.5813200000000  0.5018400000000 1.0
C      1  0.6039180000000  0.4652000000000  0.4937890000000 1.0
C      1  0.4969850000000  0.4561340000000  0.5546190000000 1.0
C      1  0.4694700000000  0.5352110000000  0.4357800000000 1.0
C      1  0.4248950000000  0.5551210000000  0.4716290000000 1.0
C      1  0.3973800000000  0.5158970000000  0.4977200000000 1.0
C      1  0.4278940000000  0.4945270000000  0.5287520000000 1.0
C      1  0.5521760000000  0.5033170000000  0.5875060000000 1.0
C      1  0.4314810000000  0.4687310000000  0.5506150000000 1.0
C      1  0.4360720000000  0.4202020000000  0.4400270000000 1.0
C      1  0.4661110000000  0.5043700000000  0.4417510000000 1.0
C      1  0.5259350000000  0.4527210000000  0.5722610000000 1.0
C      1  0.4488320000000  0.5096760000000  0.4926280000000 1.0
C      1  0.4833220000000  0.5983140000000  0.5234670000000 1.0
C      1  0.5135020000000  0.5031670000000  0.5988770000000 1.0
C      1  0.4737180000000  0.4517690000000  0.4474610000000 1.0
C      1  0.4556670000000  0.5541920000000  0.5459050000000 1.0
C      1  0.4764580000000  0.4462840000000  0.5257930000000 1.0
C      1  0.4822620000000  0.6029510000000  0.5599890000000 1.0
C      1  0.5461980000000  0.4337040000000  0.5526470000000 1.0
C      1  0.4551680000000  0.4877960000000  0.5131150000000 1.0
C      1  0.5487580000000  0.5397960000000  0.4316000000000 1.0
C      1  0.5573640000000  0.4619250000000  0.5210730000000 1.0
C      1  0.4320860000000  0.4206860000000  0.5299000000000 1.0
C      1  0.3976310000000  0.4921730000000  0.4541510000000 1.0
C      1  0.4505490000000  0.5070260000000  0.6068780000000 1.0
C      1  0.4824430000000  0.5523470000000  0.5635840000000 1.0
C      1  0.4662740000000  0.4480720000000  0.6149860000000 1.0
C      1  0.5419880000000  0.5289480000000  0.4712780000000 1.0
C      1  0.4896370000000  0.4516910000000  0.4977200000000 1.0
C      1  0.4532070000000  0.4789640000000  0.4448720000000 1.0
C      1  0.6212350000000  0.4965120000000  0.5111250000000 1.0
C      1  0.5161450000000  0.4485790000000  0.5274900000000 1.0
C      1  0.4366720000000  0.6078960000000  0.5350000000000 1.0
C      1  0.4776090000000  0.5818570000000  0.6033270000000 1.0
C      1  0.4233760000000  0.5614130000000  0.4405320000000 1.0
C      1  0.4880140000000  0.4736550000000  0.3969500000000 1.0
C      1  0.4735950000000  0.4664750000000  0.4768940000000 1.0
C      1  0.4057240000000  0.4690740000000  0.4361630000000 1.0
C      1  0.5948120000000  0.4460520000000  0.4749190000000 1.0
C      1  0.4756090000000  0.4797870000000  0.5315590000000 1.0
C      1  0.4282980000000  0.5065460000000  0.5856340000000 1.0
C      1  0.4643230000000  0.4647030000000  0.5588790000000 1.0
C      1  0.5467610000000  0.4554950000000  0.4748040000000 1.0
C      1  0.6061000000000  0.5146250000000  0.5355970000000 1.0
C      1  0.6196280000000  0.4650610000000  0.5239430000000 1.0
C      1  0.4454930000000  0.5377710000000  0.4133680000000 1.0
C      1  0.4304710000000  0.4230650000000  0.4718640000000 1.0
C      1  0.3980800000000  0.4644360000000  0.4989600000000 1.0
C      1  0.5012540000000  0.5285790000000  0.4690180000000 1.0
C      1  0.3928270000000  0.4887790000000  0.4820240000000 1.0
C      1  0.4782550000000  0.4658070000000  0.6003960000000 1.0
C      1  0.4973780000000  0.4439680000000  0.4031010000000 1.0
C      1  0.5279360000000  0.5133340000000  0.4266420000000 1.0
C      1  0.5059680000000  0.4977490000000  0.3975890000000 1.0
C      1  0.5156740000000  0.5826380000000  0.4335240000000 1.0
C      1  0.3830800000000  0.4559070000000  0.4209490000000 1.0
C      1  0.4260730000000  0.5165760000000  0.3988120000000 1.0
C      1  0.5244000000000  0.4597890000000  0.4537300000000 1.0
C      1  0.5297390000000  0.5088870000000  0.5049330000000 1.0
C      1  0.4701100000000  0.5258690000000  0.6134700000000 1.0
C      1  0.4662920000000  0.4098730000000  0.4333470000000 1.0
C      1  0.5812590000000  0.5611410000000  0.5257550000000 1.0
C      1  0.5221700000000  0.4350770000000  0.4158500000000 1.0
C      1  0.5667220000000  0.4878910000000  0.4465070000000 1.0
C      1  0.4233850000000  0.5620600000000  0.5049030000000 1.0
C      1  0.5684280000000  0.4548060000000  0.4292250000000 1.0
C      1  0.5761540000000  0.5550270000000  0.4434110000000 1.0
C      1  0.3970680000000  0.5235890000000  0.5291660000000 1.0
C      1  0.4894740000000  0.4912510000000  0.4769290000000 1.0
END
