TITL C-2848498-1409-578 0.00168744612551897 125000 -293.890198035749 0 0 55 (C1) n - 1
REM
REM in /home/bkarasulu/work/CARBON/AIRSS/Generating-Clusters/AIREBO/with-SteepDescent/Only-C1/SD-CG-opt/Try1-1.4A-POS3A/HFTN-CG
REM
REM
REM
REM
REM
REM ./C.cell (11c1c37f851c82e70ff6c80c92926a4b)
REM
REM compiler GCC version 9.2.1 20190827 (Red Hat 9.2.1-1)
REM options -cpp -mtune=generic -march=x86-64 -g -O0 -fpre-include=/usr/include/finclude/math-vector-fortran.h
REM seed 1312719526 1591207927 -1190539611 582627855 919233947 1161176542 -1961634547 -1754838575 -1264414151 181410878 -379442294 -839476933 1827346548 1741020333 1392027916 1901527177 -743747594 1691232095 -600562565 739113019 1038122545 -238596375 95135319 -1990452061 728646178 558248315 -1385991970 2144623037 -903232549 -905968630 679551711 -1165981041 -28373723
REM
CELL 1.54180   50.00000   50.00000   50.00000   90.00000   90.00000   90.00000
LATT -1
SFAC C  
C      1  0.5166830000000  0.4697640000000  0.5476920000000 1.0
C      1  0.4843940000000  0.5878510000000  0.5145510000000 1.0
C      1  0.5287520000000  0.4273760000000  0.4777070000000 1.0
C      1  0.4998130000000  0.5599200000000  0.5027960000000 1.0
C      1  0.4695910000000  0.5462560000000  0.4641960000000 1.0
C      1  0.5134190000000  0.5223380000000  0.4745770000000 1.0
C      1  0.4603340000000  0.5262150000000  0.5463090000000 1.0
C      1  0.4947780000000  0.4832320000000  0.5360440000000 1.0
C      1  0.4433590000000  0.5260880000000  0.4562810000000 1.0
C      1  0.4845620000000  0.4366320000000  0.5305820000000 1.0
C      1  0.4873610000000  0.5366420000000  0.4863440000000 1.0
C      1  0.5612110000000  0.5213790000000  0.4510430000000 1.0
C      1  0.4363680000000  0.5403090000000  0.5407340000000 1.0
C      1  0.4720020000000  0.4569350000000  0.4728530000000 1.0
C      1  0.5378160000000  0.5332760000000  0.4563870000000 1.0
C      1  0.4249860000000  0.4981360000000  0.5173110000000 1.0
C      1  0.4201850000000  0.5703630000000  0.4815490000000 1.0
C      1  0.4890590000000  0.5126930000000  0.5340960000000 1.0
C      1  0.5834000000000  0.4552890000000  0.5462860000000 1.0
C      1  0.4954850000000  0.4771830000000  0.4790810000000 1.0
C      1  0.5062620000000  0.4957810000000  0.4630450000000 1.0
C      1  0.5185870000000  0.4686220000000  0.5747370000000 1.0
C      1  0.5367460000000  0.5302890000000  0.4965760000000 1.0
C      1  0.5133480000000  0.5317530000000  0.5405760000000 1.0
C      1  0.5066110000000  0.4272680000000  0.5241120000000 1.0
C      1  0.5371130000000  0.4578270000000  0.5324670000000 1.0
C      1  0.4894610000000  0.4445390000000  0.4506060000000 1.0
C      1  0.5629750000000  0.4687650000000  0.5350850000000 1.0
C      1  0.5801990000000  0.5141200000000  0.4782080000000 1.0
C      1  0.4554760000000  0.4941810000000  0.5229130000000 1.0
C      1  0.4794880000000  0.5165940000000  0.5725840000000 1.0
C      1  0.4147640000000  0.5225130000000  0.5261580000000 1.0
C      1  0.4376170000000  0.5532150000000  0.4711110000000 1.0
C      1  0.5060570000000  0.5256150000000  0.5689780000000 1.0
C      1  0.5523270000000  0.4468360000000  0.4831570000000 1.0
C      1  0.4728280000000  0.5184920000000  0.5065900000000 1.0
C      1  0.5219250000000  0.5456600000000  0.5180890000000 1.0
C      1  0.4619720000000  0.4935990000000  0.5562970000000 1.0
C      1  0.5650040000000  0.5440950000000  0.4836550000000 1.0
C      1  0.5738460000000  0.4994020000000  0.4325360000000 1.0
C      1  0.4092150000000  0.5542290000000  0.5293750000000 1.0
C      1  0.5784350000000  0.4868520000000  0.4605690000000 1.0
C      1  0.5707750000000  0.4629380000000  0.4719180000000 1.0
C      1  0.5654520000000  0.4942490000000  0.5243460000000 1.0
C      1  0.4820300000000  0.5606750000000  0.4438600000000 1.0
C      1  0.5083850000000  0.4260590000000  0.4596340000000 1.0
C      1  0.4388630000000  0.4545980000000  0.4665970000000 1.0
C      1  0.4540190000000  0.4613040000000  0.5003120000000 1.0
C      1  0.5331210000000  0.4372220000000  0.5095310000000 1.0
C      1  0.5072140000000  0.4876340000000  0.4361150000000 1.0
C      1  0.4716770000000  0.4643980000000  0.5254960000000 1.0
C      1  0.5032390000000  0.5917950000000  0.4911770000000 1.0
C      1  0.4233830000000  0.4569390000000  0.4926070000000 1.0
C      1  0.4960450000000  0.4628180000000  0.4298780000000 1.0
C      1  0.5619830000000  0.5112490000000  0.5046860000000 1.0
END
