TITL C-2848505-4874-453 0.00147556022492448 125000 -970.982172791686 0 0 181 (C1) n - 1
REM
REM in /home/bkarasulu/work/CARBON/AIRSS/Generating-Clusters/AIREBO/with-SteepDescent/Only-C1/SD-CG-opt/Try1-1.4A-POS3A/HFTN-CG
REM
REM
REM
REM
REM
REM ./C.cell (11c1c37f851c82e70ff6c80c92926a4b)
REM
REM compiler GCC version 9.2.1 20190827 (Red Hat 9.2.1-1)
REM options -cpp -mtune=generic -march=x86-64 -g -O0 -fpre-include=/usr/include/finclude/math-vector-fortran.h
REM seed -1668150994 -157442031 1219053891 -588409631 -1175902065 -1894878472 -2044489029 1078470469 1627583077 236534796 -2033019856 -748703172 -367886508 1290348297 182387455 -1424485109 -1977657120 -1420753587 611046361 1462253670 839148581 -1155509492 -2067323510 -2137550862 -1506613562 -1191434741 -1159011204 -354273335 647770477 1001087193 -282244108 -566631989 1188278290
REM
CELL 1.54180   50.00000   50.00000   50.00000   90.00000   90.00000   90.00000
LATT -1
SFAC C  
C      1  0.5631360000000  0.4560410000000  0.4209650000000 1.0
C      1  0.5933060000000  0.5435600000000  0.5411750000000 1.0
C      1  0.5044230000000  0.5718100000000  0.4790200000000 1.0
C      1  0.4675240000000  0.4360150000000  0.4523010000000 1.0
C      1  0.4966660000000  0.6042380000000  0.4523870000000 1.0
C      1  0.4291840000000  0.4359370000000  0.4419190000000 1.0
C      1  0.5413510000000  0.5915790000000  0.5054750000000 1.0
C      1  0.5440550000000  0.4606190000000  0.5929320000000 1.0
C      1  0.5935120000000  0.4598370000000  0.5360140000000 1.0
C      1  0.5855300000000  0.4702270000000  0.5046340000000 1.0
C      1  0.4354630000000  0.5784950000000  0.4989120000000 1.0
C      1  0.4573880000000  0.4689500000000  0.5763500000000 1.0
C      1  0.4355170000000  0.4880700000000  0.5471890000000 1.0
C      1  0.4726240000000  0.4245100000000  0.5575550000000 1.0
C      1  0.4461960000000  0.5378240000000  0.4199020000000 1.0
C      1  0.4444130000000  0.5914130000000  0.4696890000000 1.0
C      1  0.4126900000000  0.4259050000000  0.4941230000000 1.0
C      1  0.4779010000000  0.5538320000000  0.5778250000000 1.0
C      1  0.4579970000000  0.4176320000000  0.5140780000000 1.0
C      1  0.4943770000000  0.5512330000000  0.5497370000000 1.0
C      1  0.5297080000000  0.4466800000000  0.4797770000000 1.0
C      1  0.6049000000000  0.5454920000000  0.4568530000000 1.0
C      1  0.4674590000000  0.5176280000000  0.4026960000000 1.0
C      1  0.4657790000000  0.5199990000000  0.5274840000000 1.0
C      1  0.4196050000000  0.5069930000000  0.4908830000000 1.0
C      1  0.5462690000000  0.4280030000000  0.4594550000000 1.0
C      1  0.4606480000000  0.5327840000000  0.5574210000000 1.0
C      1  0.5095710000000  0.4599770000000  0.4098210000000 1.0
C      1  0.4572230000000  0.5773800000000  0.5646340000000 1.0
C      1  0.5228770000000  0.5182810000000  0.3900720000000 1.0
C      1  0.4790000000000  0.5042710000000  0.4384320000000 1.0
C      1  0.5185720000000  0.5556630000000  0.4526050000000 1.0
C      1  0.4915260000000  0.5402230000000  0.6019330000000 1.0
C      1  0.4154680000000  0.5607640000000  0.4778770000000 1.0
C      1  0.5558620000000  0.5588230000000  0.5880350000000 1.0
C      1  0.4059700000000  0.4274410000000  0.4653400000000 1.0
C      1  0.5681210000000  0.5337450000000  0.4914380000000 1.0
C      1  0.5079980000000  0.4376560000000  0.5742280000000 1.0
C      1  0.4996550000000  0.4537300000000  0.6028590000000 1.0
C      1  0.3925150000000  0.4946720000000  0.5175900000000 1.0
C      1  0.5588060000000  0.4802980000000  0.4520120000000 1.0
C      1  0.4114900000000  0.4445680000000  0.5152670000000 1.0
C      1  0.5528600000000  0.5847280000000  0.4292760000000 1.0
C      1  0.4457060000000  0.4141870000000  0.4628280000000 1.0
C      1  0.5888640000000  0.5591410000000  0.5110640000000 1.0
C      1  0.4653650000000  0.6031620000000  0.5446910000000 1.0
C      1  0.5667020000000  0.4220320000000  0.5069110000000 1.0
C      1  0.4655190000000  0.4855830000000  0.4711130000000 1.0
C      1  0.5539140000000  0.5900340000000  0.5353580000000 1.0
C      1  0.5865530000000  0.4783990000000  0.4716170000000 1.0
C      1  0.5149870000000  0.4957120000000  0.4636100000000 1.0
C      1  0.5605280000000  0.5065530000000  0.5056620000000 1.0
C      1  0.4650550000000  0.4722190000000  0.5433740000000 1.0
C      1  0.4386130000000  0.5227850000000  0.5129620000000 1.0
C      1  0.4737850000000  0.3987000000000  0.4646660000000 1.0
C      1  0.5676430000000  0.4434970000000  0.5296810000000 1.0
C      1  0.5401390000000  0.5052510000000  0.4075350000000 1.0
C      1  0.4917190000000  0.4813640000000  0.3958540000000 1.0
C      1  0.4166120000000  0.5085470000000  0.5309780000000 1.0
C      1  0.4987820000000  0.4192090000000  0.5399590000000 1.0
C      1  0.4860160000000  0.4030760000000  0.5145030000000 1.0
C      1  0.5032500000000  0.5271890000000  0.4420270000000 1.0
C      1  0.5308770000000  0.5102520000000  0.4899270000000 1.0
C      1  0.5034590000000  0.5001660000000  0.3797740000000 1.0
C      1  0.5526310000000  0.5735010000000  0.5651410000000 1.0
C      1  0.4490520000000  0.4575550000000  0.4690530000000 1.0
C      1  0.5419400000000  0.4093900000000  0.5065900000000 1.0
C      1  0.5251340000000  0.5021860000000  0.4343590000000 1.0
C      1  0.4259180000000  0.4791490000000  0.5843150000000 1.0
C      1  0.4844390000000  0.5500990000000  0.4959290000000 1.0
C      1  0.5230550000000  0.5811650000000  0.5393730000000 1.0
C      1  0.5452760000000  0.5445860000000  0.4705470000000 1.0
C      1  0.4821140000000  0.4197740000000  0.4285010000000 1.0
C      1  0.4871600000000  0.5401460000000  0.4150130000000 1.0
C      1  0.5280820000000  0.4026200000000  0.5433130000000 1.0
C      1  0.5310210000000  0.3838220000000  0.5177140000000 1.0
C      1  0.4509740000000  0.5352130000000  0.4532210000000 1.0
C      1  0.5114890000000  0.3864650000000  0.4693340000000 1.0
C      1  0.5227310000000  0.5488860000000  0.5354930000000 1.0
C      1  0.5068570000000  0.3790510000000  0.5023980000000 1.0
C      1  0.5574320000000  0.4185610000000  0.5460570000000 1.0
C      1  0.4343850000000  0.5339140000000  0.5870420000000 1.0
C      1  0.5418140000000  0.4120620000000  0.4296500000000 1.0
C      1  0.4533370000000  0.5510830000000  0.5060470000000 1.0
C      1  0.5574780000000  0.4571820000000  0.4905190000000 1.0
C      1  0.5268430000000  0.5356870000000  0.5666800000000 1.0
C      1  0.5185710000000  0.4355370000000  0.4317000000000 1.0
C      1  0.5605860000000  0.4921460000000  0.5340510000000 1.0
C      1  0.5403260000000  0.3945830000000  0.4574300000000 1.0
C      1  0.4036290000000  0.5364720000000  0.4851950000000 1.0
C      1  0.4890990000000  0.4331070000000  0.4051510000000 1.0
C      1  0.4601910000000  0.4917030000000  0.6009750000000 1.0
C      1  0.4232600000000  0.4387500000000  0.5413030000000 1.0
C      1  0.4467890000000  0.4223190000000  0.5430150000000 1.0
C      1  0.4122700000000  0.5796290000000  0.5219460000000 1.0
C      1  0.5033010000000  0.5798420000000  0.4341790000000 1.0
C      1  0.4786090000000  0.5682290000000  0.4231610000000 1.0
C      1  0.5232450000000  0.4422390000000  0.5336430000000 1.0
C      1  0.5856300000000  0.5417900000000  0.4380810000000 1.0
C      1  0.5729950000000  0.4667910000000  0.5622210000000 1.0
C      1  0.5026660000000  0.5133770000000  0.5752640000000 1.0
C      1  0.5910110000000  0.5014440000000  0.4942720000000 1.0
C      1  0.4960920000000  0.4841330000000  0.5387970000000 1.0
C      1  0.4145200000000  0.5577460000000  0.5405250000000 1.0
C      1  0.4076390000000  0.5328320000000  0.5504380000000 1.0
C      1  0.5365030000000  0.5210810000000  0.6145720000000 1.0
C      1  0.5592600000000  0.5236320000000  0.5468300000000 1.0
C      1  0.5697520000000  0.4480860000000  0.4523390000000 1.0
C      1  0.4899750000000  0.5061720000000  0.6044390000000 1.0
C      1  0.4893120000000  0.4518150000000  0.5066940000000 1.0
C      1  0.4514210000000  0.5768410000000  0.4385600000000 1.0
C      1  0.4228000000000  0.4598220000000  0.5587290000000 1.0
C      1  0.5682290000000  0.5582780000000  0.4261670000000 1.0
C      1  0.5564700000000  0.5271010000000  0.5805390000000 1.0
C      1  0.5946430000000  0.4919010000000  0.5387630000000 1.0
C      1  0.4184510000000  0.5120780000000  0.4512720000000 1.0
C      1  0.4788870000000  0.5689500000000  0.5304470000000 1.0
C      1  0.5664290000000  0.5054600000000  0.4109180000000 1.0
C      1  0.4447130000000  0.5073890000000  0.4679550000000 1.0
C      1  0.4210340000000  0.5088580000000  0.5705050000000 1.0
C      1  0.4939010000000  0.4113620000000  0.4840490000000 1.0
C      1  0.5342130000000  0.4213630000000  0.5707630000000 1.0
C      1  0.5965390000000  0.4927100000000  0.4473620000000 1.0
C      1  0.6098740000000  0.5326680000000  0.5148130000000 1.0
C      1  0.4158920000000  0.4760890000000  0.5048670000000 1.0
C      1  0.5998230000000  0.5322540000000  0.4836960000000 1.0
C      1  0.5513620000000  0.5117680000000  0.4627940000000 1.0
C      1  0.5154880000000  0.5427590000000  0.4019110000000 1.0
C      1  0.4896150000000  0.5884730000000  0.5047380000000 1.0
C      1  0.4722570000000  0.4737810000000  0.4410820000000 1.0
C      1  0.5339210000000  0.4850410000000  0.5539370000000 1.0
C      1  0.4128880000000  0.4739560000000  0.4258260000000 1.0
C      1  0.5151450000000  0.4300150000000  0.5029510000000 1.0
C      1  0.5437840000000  0.4658840000000  0.5203990000000 1.0
C      1  0.5365170000000  0.4709130000000  0.4275360000000 1.0
C      1  0.6166850000000  0.5056040000000  0.5244830000000 1.0
C      1  0.5124570000000  0.6082940000000  0.4989680000000 1.0
C      1  0.4949140000000  0.5190420000000  0.4739730000000 1.0
C      1  0.4462950000000  0.5645030000000  0.5364930000000 1.0
C      1  0.5595180000000  0.5651960000000  0.4947630000000 1.0
C      1  0.5436780000000  0.4928820000000  0.6014240000000 1.0
C      1  0.4583700000000  0.5987480000000  0.5140870000000 1.0
C      1  0.4760140000000  0.5456780000000  0.4644560000000 1.0
C      1  0.4201720000000  0.4635040000000  0.4573570000000 1.0
C      1  0.5421780000000  0.4526030000000  0.5599360000000 1.0
C      1  0.5215140000000  0.5385920000000  0.5995730000000 1.0
C      1  0.4954310000000  0.4529230000000  0.4464060000000 1.0
C      1  0.5638810000000  0.5577690000000  0.5393360000000 1.0
C      1  0.5341810000000  0.5873530000000  0.4735530000000 1.0
C      1  0.5187390000000  0.4872910000000  0.5119250000000 1.0
C      1  0.5077890000000  0.4711210000000  0.5680180000000 1.0
C      1  0.4753160000000  0.4450640000000  0.5812690000000 1.0
C      1  0.4287770000000  0.5583710000000  0.4530810000000 1.0
C      1  0.4951710000000  0.5176780000000  0.5442990000000 1.0
C      1  0.5087820000000  0.6193020000000  0.4734470000000 1.0
C      1  0.4975970000000  0.5936840000000  0.5434890000000 1.0
C      1  0.4432790000000  0.4623300000000  0.4990850000000 1.0
C      1  0.4596460000000  0.5124930000000  0.5795520000000 1.0
C      1  0.5055280000000  0.4058680000000  0.4420500000000 1.0
C      1  0.5492900000000  0.5974160000000  0.4537220000000 1.0
C      1  0.4917330000000  0.4806540000000  0.4923240000000 1.0
C      1  0.3920820000000  0.5070790000000  0.4708520000000 1.0
C      1  0.4619130000000  0.4509260000000  0.5197760000000 1.0
C      1  0.5892800000000  0.5162050000000  0.5609680000000 1.0
C      1  0.5130700000000  0.5345050000000  0.5060180000000 1.0
C      1  0.5792750000000  0.4329510000000  0.4811650000000 1.0
C      1  0.5104010000000  0.4659570000000  0.4684180000000 1.0
C      1  0.5344500000000  0.5568190000000  0.4225440000000 1.0
C      1  0.5677720000000  0.4951740000000  0.5774520000000 1.0
C      1  0.5756230000000  0.5140380000000  0.4388660000000 1.0
C      1  0.4607910000000  0.4838970000000  0.4043400000000 1.0
C      1  0.4754680000000  0.5796200000000  0.4624430000000 1.0
C      1  0.4394510000000  0.5602320000000  0.5866090000000 1.0
C      1  0.3932260000000  0.4815050000000  0.4525180000000 1.0
C      1  0.4377870000000  0.4129880000000  0.4921810000000 1.0
C      1  0.5256620000000  0.5108360000000  0.5354580000000 1.0
C      1  0.4473470000000  0.5050210000000  0.4273430000000 1.0
C      1  0.3669790000000  0.4949260000000  0.5199180000000 1.0
C      1  0.5118230000000  0.4831630000000  0.5991180000000 1.0
C      1  0.4878010000000  0.5117460000000  0.5055210000000 1.0
C      1  0.4449520000000  0.4625960000000  0.4260730000000 1.0
END
