TITL C-2848507-1641-457 0.000549978505610121 125000 -982.73778194703 0 0 181 (C1) n - 1
REM
REM in /home/bkarasulu/work/CARBON/AIRSS/Generating-Clusters/AIREBO/with-SteepDescent/Only-C1/SD-CG-opt/Try1-1.4A-POS3A/HFTN-CG
REM
REM
REM
REM
REM
REM ./C.cell (11c1c37f851c82e70ff6c80c92926a4b)
REM
REM compiler GCC version 9.2.1 20190827 (Red Hat 9.2.1-1)
REM options -cpp -mtune=generic -march=x86-64 -g -O0 -fpre-include=/usr/include/finclude/math-vector-fortran.h
REM seed -279883194 -358277186 107810890 177203690 1358739351 -2087582826 -2063366460 1415236982 -45329341 -102831194 -559590417 2109729896 -1770150801 -2086964740 1818749295 592818437 -719165026 -1214340501 -1345466428 -88868921 540956081 -221004224 -747265885 1927120082 -132659420 1426132081 754628415 2081001311 500305216 525526846 162579671 -1293746241 -204635563
REM
CELL 1.54180   50.00000   50.00000   50.00000   90.00000   90.00000   90.00000
LATT -1
SFAC C  
C      1  0.4778330000000  0.5391960000000  0.5622280000000 1.0
C      1  0.4437800000000  0.5180790000000  0.4189820000000 1.0
C      1  0.5916270000000  0.5054270000000  0.4455200000000 1.0
C      1  0.5459080000000  0.5488620000000  0.4592320000000 1.0
C      1  0.5834470000000  0.5196630000000  0.4814980000000 1.0
C      1  0.4679830000000  0.4931180000000  0.5046320000000 1.0
C      1  0.5360180000000  0.4127250000000  0.5413950000000 1.0
C      1  0.5227030000000  0.4403750000000  0.5771450000000 1.0
C      1  0.4731010000000  0.4021490000000  0.4582530000000 1.0
C      1  0.4477170000000  0.4119210000000  0.4378480000000 1.0
C      1  0.4378550000000  0.5028110000000  0.5006850000000 1.0
C      1  0.5001730000000  0.4234600000000  0.4119800000000 1.0
C      1  0.5811110000000  0.5589970000000  0.5151540000000 1.0
C      1  0.4008390000000  0.4920150000000  0.5466190000000 1.0
C      1  0.4667150000000  0.4802390000000  0.5904040000000 1.0
C      1  0.5287420000000  0.5817370000000  0.4261720000000 1.0
C      1  0.5021300000000  0.5683660000000  0.4849500000000 1.0
C      1  0.4997190000000  0.5026390000000  0.4410350000000 1.0
C      1  0.4527300000000  0.5101680000000  0.4486730000000 1.0
C      1  0.4804220000000  0.5941640000000  0.5586430000000 1.0
C      1  0.4392290000000  0.4417460000000  0.5290530000000 1.0
C      1  0.4158220000000  0.5436230000000  0.4692290000000 1.0
C      1  0.4827570000000  0.5237280000000  0.5056860000000 1.0
C      1  0.4776680000000  0.5091650000000  0.5762600000000 1.0
C      1  0.5610850000000  0.5429400000000  0.4845770000000 1.0
C      1  0.4026370000000  0.5122180000000  0.5288280000000 1.0
C      1  0.4608390000000  0.4073110000000  0.5201400000000 1.0
C      1  0.5201280000000  0.5625220000000  0.5419650000000 1.0
C      1  0.3954140000000  0.4433420000000  0.4943350000000 1.0
C      1  0.5286630000000  0.5045360000000  0.6120480000000 1.0
C      1  0.3986400000000  0.5025780000000  0.4760390000000 1.0
C      1  0.5101710000000  0.4549540000000  0.6052700000000 1.0
C      1  0.5653830000000  0.4516020000000  0.4940960000000 1.0
C      1  0.4734310000000  0.4298030000000  0.4246170000000 1.0
C      1  0.5157690000000  0.4843270000000  0.4850260000000 1.0
C      1  0.4317790000000  0.4950620000000  0.4090530000000 1.0
C      1  0.4655910000000  0.3920600000000  0.4901230000000 1.0
C      1  0.4627730000000  0.5514490000000  0.4567970000000 1.0
C      1  0.5181020000000  0.4452660000000  0.4771830000000 1.0
C      1  0.5707330000000  0.5878910000000  0.4548230000000 1.0
C      1  0.6351910000000  0.4388870000000  0.4969530000000 1.0
C      1  0.4311930000000  0.5042820000000  0.5840400000000 1.0
C      1  0.4244300000000  0.5799470000000  0.5006040000000 1.0
C      1  0.3944340000000  0.5381680000000  0.4471190000000 1.0
C      1  0.5721050000000  0.5736900000000  0.4856840000000 1.0
C      1  0.5890110000000  0.4746880000000  0.4419720000000 1.0
C      1  0.5102150000000  0.5210770000000  0.4170140000000 1.0
C      1  0.5306110000000  0.6069650000000  0.4692650000000 1.0
C      1  0.4840860000000  0.5038760000000  0.5447090000000 1.0
C      1  0.4670820000000  0.5682140000000  0.4049800000000 1.0
C      1  0.5351710000000  0.4614290000000  0.4973360000000 1.0
C      1  0.5559750000000  0.5976240000000  0.5337320000000 1.0
C      1  0.5511020000000  0.5301740000000  0.4320050000000 1.0
C      1  0.5340080000000  0.4190080000000  0.4658940000000 1.0
C      1  0.4710520000000  0.5605620000000  0.4884350000000 1.0
C      1  0.4365690000000  0.5960880000000  0.5380290000000 1.0
C      1  0.5386130000000  0.4567940000000  0.4450270000000 1.0
C      1  0.4982350000000  0.5565290000000  0.5971760000000 1.0
C      1  0.5661130000000  0.4093120000000  0.5295320000000 1.0
C      1  0.5337530000000  0.3890900000000  0.5179650000000 1.0
C      1  0.5188480000000  0.4666510000000  0.5260060000000 1.0
C      1  0.5476480000000  0.5158440000000  0.5282680000000 1.0
C      1  0.5216450000000  0.4348850000000  0.5239210000000 1.0
C      1  0.5150030000000  0.5154070000000  0.4988190000000 1.0
C      1  0.6017560000000  0.4603910000000  0.4243330000000 1.0
C      1  0.4764170000000  0.4532620000000  0.4478120000000 1.0
C      1  0.4441200000000  0.4271460000000  0.4984280000000 1.0
C      1  0.4992640000000  0.5970240000000  0.4699740000000 1.0
C      1  0.5164020000000  0.3917680000000  0.4682820000000 1.0
C      1  0.4769220000000  0.4591820000000  0.6110280000000 1.0
C      1  0.4496570000000  0.5653020000000  0.5318720000000 1.0
C      1  0.4051960000000  0.5582460000000  0.5460050000000 1.0
C      1  0.5738590000000  0.5351140000000  0.5382440000000 1.0
C      1  0.6088430000000  0.4423460000000  0.4907170000000 1.0
C      1  0.5514630000000  0.5037190000000  0.4106380000000 1.0
C      1  0.4461860000000  0.5202080000000  0.6007850000000 1.0
C      1  0.4731430000000  0.6079990000000  0.4852990000000 1.0
C      1  0.4305990000000  0.5130110000000  0.4709510000000 1.0
C      1  0.5107740000000  0.4136240000000  0.5598640000000 1.0
C      1  0.5466510000000  0.5090450000000  0.4582810000000 1.0
C      1  0.5478540000000  0.5603540000000  0.5605290000000 1.0
C      1  0.5540710000000  0.4821430000000  0.6092840000000 1.0
C      1  0.5251460000000  0.5375850000000  0.6057800000000 1.0
C      1  0.4692250000000  0.5232590000000  0.4744000000000 1.0
C      1  0.4566980000000  0.4234230000000  0.5502220000000 1.0
C      1  0.5079510000000  0.4420900000000  0.4464490000000 1.0
C      1  0.5460320000000  0.4590000000000  0.5677060000000 1.0
C      1  0.5787270000000  0.4331590000000  0.4557810000000 1.0
C      1  0.4960750000000  0.4699270000000  0.5781930000000 1.0
C      1  0.4686390000000  0.5399450000000  0.5299640000000 1.0
C      1  0.5680450000000  0.5743150000000  0.5423740000000 1.0
C      1  0.5146700000000  0.4943150000000  0.5737330000000 1.0
C      1  0.5011430000000  0.5952510000000  0.4361330000000 1.0
C      1  0.5055320000000  0.5373340000000  0.5481910000000 1.0
C      1  0.4095320000000  0.5531230000000  0.5150620000000 1.0
C      1  0.5973390000000  0.5320590000000  0.5062800000000 1.0
C      1  0.4034660000000  0.4719190000000  0.4823570000000 1.0
C      1  0.6027860000000  0.4924670000000  0.4749120000000 1.0
C      1  0.5634310000000  0.4922110000000  0.4800380000000 1.0
C      1  0.4517500000000  0.5143860000000  0.5440820000000 1.0
C      1  0.4438700000000  0.5647160000000  0.5805780000000 1.0
C      1  0.3835010000000  0.5151460000000  0.4517190000000 1.0
C      1  0.5386800000000  0.5390460000000  0.5048730000000 1.0
C      1  0.4956810000000  0.4225650000000  0.5886520000000 1.0
C      1  0.5215650000000  0.5672510000000  0.5116120000000 1.0
C      1  0.4298650000000  0.5622140000000  0.5575620000000 1.0
C      1  0.4128160000000  0.4622630000000  0.5353170000000 1.0
C      1  0.4980300000000  0.5017150000000  0.6024520000000 1.0
C      1  0.4824740000000  0.4402780000000  0.5247810000000 1.0
C      1  0.5808320000000  0.5177770000000  0.4210850000000 1.0
C      1  0.5547910000000  0.5934160000000  0.4361600000000 1.0
C      1  0.5934250000000  0.4877640000000  0.5206100000000 1.0
C      1  0.5617930000000  0.4890160000000  0.5139900000000 1.0
C      1  0.4670500000000  0.6008560000000  0.5360210000000 1.0
C      1  0.5371720000000  0.5087350000000  0.3830780000000 1.0
C      1  0.4893080000000  0.4787230000000  0.5268680000000 1.0
C      1  0.5444640000000  0.4781800000000  0.5412890000000 1.0
C      1  0.4958230000000  0.3971110000000  0.4907640000000 1.0
C      1  0.5383250000000  0.5935390000000  0.5123570000000 1.0
C      1  0.4575300000000  0.5857950000000  0.5058970000000 1.0
C      1  0.5135860000000  0.5267490000000  0.5756960000000 1.0
C      1  0.4735310000000  0.5143420000000  0.6157010000000 1.0
C      1  0.5115700000000  0.4434070000000  0.3980630000000 1.0
C      1  0.5185210000000  0.5711550000000  0.5748140000000 1.0
C      1  0.4749690000000  0.5683570000000  0.5759860000000 1.0
C      1  0.4318540000000  0.5279460000000  0.5200140000000 1.0
C      1  0.4235580000000  0.4634810000000  0.5675540000000 1.0
C      1  0.4451520000000  0.5782370000000  0.4587730000000 1.0
C      1  0.4797910000000  0.5908320000000  0.4193810000000 1.0
C      1  0.4616620000000  0.4317070000000  0.4696240000000 1.0
C      1  0.4488980000000  0.4854510000000  0.5619370000000 1.0
C      1  0.5290410000000  0.5493720000000  0.4157030000000 1.0
C      1  0.5436360000000  0.5060550000000  0.5602550000000 1.0
C      1  0.5121610000000  0.4960840000000  0.3838690000000 1.0
C      1  0.5164030000000  0.5196530000000  0.4653340000000 1.0
C      1  0.5669570000000  0.4182370000000  0.4989000000000 1.0
C      1  0.5461410000000  0.5341010000000  0.5791370000000 1.0
C      1  0.4047430000000  0.4983200000000  0.5740270000000 1.0
C      1  0.6064170000000  0.5117920000000  0.5224230000000 1.0
C      1  0.4343860000000  0.4599920000000  0.4769430000000 1.0
C      1  0.4410860000000  0.5448990000000  0.4920140000000 1.0
C      1  0.5489240000000  0.5973800000000  0.4868360000000 1.0
C      1  0.5943390000000  0.4695710000000  0.4946850000000 1.0
C      1  0.4798370000000  0.4425670000000  0.5661760000000 1.0
C      1  0.4315140000000  0.4367910000000  0.4547420000000 1.0
C      1  0.4773050000000  0.5529360000000  0.4318200000000 1.0
C      1  0.4862010000000  0.4471460000000  0.4873860000000 1.0
C      1  0.4433930000000  0.4725710000000  0.4199510000000 1.0
C      1  0.4873790000000  0.4121650000000  0.5408400000000 1.0
C      1  0.6610270000000  0.4363280000000  0.5005310000000 1.0
C      1  0.4877900000000  0.5165010000000  0.3953840000000 1.0
C      1  0.4642130000000  0.5345020000000  0.4033430000000 1.0
C      1  0.4429120000000  0.4434270000000  0.4241420000000 1.0
C      1  0.4200380000000  0.4804110000000  0.5081580000000 1.0
C      1  0.5907270000000  0.4242210000000  0.4797050000000 1.0
C      1  0.5140280000000  0.5122740000000  0.5319260000000 1.0
C      1  0.5163260000000  0.4710520000000  0.3987260000000 1.0
C      1  0.6213540000000  0.5149620000000  0.4591920000000 1.0
C      1  0.5574590000000  0.4188070000000  0.4462630000000 1.0
C      1  0.5931820000000  0.5297670000000  0.5555730000000 1.0
C      1  0.5405420000000  0.3990750000000  0.4915410000000 1.0
C      1  0.5050340000000  0.5556310000000  0.4361450000000 1.0
C      1  0.4221240000000  0.5741030000000  0.4726570000000 1.0
C      1  0.4653550000000  0.6329130000000  0.4835260000000 1.0
C      1  0.4135970000000  0.4234770000000  0.4890540000000 1.0
C      1  0.4696130000000  0.5441990000000  0.6071740000000 1.0
C      1  0.5671610000000  0.4634440000000  0.4622670000000 1.0
C      1  0.4710520000000  0.4846580000000  0.4356210000000 1.0
C      1  0.4784100000000  0.4862120000000  0.4024590000000 1.0
C      1  0.5149670000000  0.5507750000000  0.4637140000000 1.0
C      1  0.4584370000000  0.4667800000000  0.4879620000000 1.0
C      1  0.5025810000000  0.4096150000000  0.4430430000000 1.0
C      1  0.3886950000000  0.4460940000000  0.5212120000000 1.0
C      1  0.5347510000000  0.4803040000000  0.4221770000000 1.0
C      1  0.5633210000000  0.4674050000000  0.5873780000000 1.0
C      1  0.4644220000000  0.4619130000000  0.5428360000000 1.0
C      1  0.5201480000000  0.4819590000000  0.4531490000000 1.0
C      1  0.3969350000000  0.5248370000000  0.5009890000000 1.0
C      1  0.5274920000000  0.4721630000000  0.6226400000000 1.0
C      1  0.4874070000000  0.4952860000000  0.4781160000000 1.0
C      1  0.5003290000000  0.4224260000000  0.5044830000000 1.0
END
