TITL C-2847948-6138-157 -0.00146200456592741 125000 -790.471880285063 0 0 144 (C1) n - 1
REM
REM in /home/bkarasulu/work/CARBON/AIRSS/Generating-Clusters/AIREBO/with-SteepDescent/Only-C1/SD-CG-opt/Try1-1.4A-POS3A/HFTN-CG
REM
REM
REM
REM
REM
REM ./C.cell (11c1c37f851c82e70ff6c80c92926a4b)
REM
REM compiler GCC version 9.2.1 20190827 (Red Hat 9.2.1-1)
REM options -cpp -mtune=generic -march=x86-64 -g -O0 -fpre-include=/usr/include/finclude/math-vector-fortran.h
REM seed 1314509480 -920160261 621391467 2140987029 1033085040 1561892361 1528200184 957988631 1618271284 275361742 1209696685 1211888458 699435920 1013063507 110798039 -1826033734 826153191 1266515290 1092913 669815704 1228063311 282024692 -278051099 -546231793 -827118980 1271619354 -451501094 -1308316857 83147505 -468603077 -1196389383 -361819751 1619936755
REM
CELL 1.54180   50.00000   50.00000   50.00000   90.00000   90.00000   90.00000
LATT -1
SFAC C  
C      1  0.4785780000000  0.5997720000000  0.5172320000000 1.0
C      1  0.4738390000000  0.4593460000000  0.4988940000000 1.0
C      1  0.4379880000000  0.4385780000000  0.4695460000000 1.0
C      1  0.5140970000000  0.5547260000000  0.4151180000000 1.0
C      1  0.4769930000000  0.5317520000000  0.5436920000000 1.0
C      1  0.4977650000000  0.5069220000000  0.5846120000000 1.0
C      1  0.4697490000000  0.4864190000000  0.4587370000000 1.0
C      1  0.5558320000000  0.4809060000000  0.4399730000000 1.0
C      1  0.4967560000000  0.5296320000000  0.4729290000000 1.0
C      1  0.4344230000000  0.5218610000000  0.4513630000000 1.0
C      1  0.5396770000000  0.4176650000000  0.5200090000000 1.0
C      1  0.4367310000000  0.5721690000000  0.4731130000000 1.0
C      1  0.5667510000000  0.5479740000000  0.5045520000000 1.0
C      1  0.5604490000000  0.5771050000000  0.4881370000000 1.0
C      1  0.5639840000000  0.4890570000000  0.4792630000000 1.0
C      1  0.4730270000000  0.5799040000000  0.4331760000000 1.0
C      1  0.4626150000000  0.4173650000000  0.4712070000000 1.0
C      1  0.4580840000000  0.4000390000000  0.4996380000000 1.0
C      1  0.5212540000000  0.3998840000000  0.4976270000000 1.0
C      1  0.5961010000000  0.4511760000000  0.4887000000000 1.0
C      1  0.4187180000000  0.4362120000000  0.5156720000000 1.0
C      1  0.4258500000000  0.4890920000000  0.5603170000000 1.0
C      1  0.4398680000000  0.4699330000000  0.5446770000000 1.0
C      1  0.4123870000000  0.5282550000000  0.5177900000000 1.0
C      1  0.5250600000000  0.5079320000000  0.4176880000000 1.0
C      1  0.5131770000000  0.4420050000000  0.4730280000000 1.0
C      1  0.4940610000000  0.4011290000000  0.5440130000000 1.0
C      1  0.5318090000000  0.4843640000000  0.5362420000000 1.0
C      1  0.5037610000000  0.5869620000000  0.4890180000000 1.0
C      1  0.4377350000000  0.5302830000000  0.5486020000000 1.0
C      1  0.5164380000000  0.4178700000000  0.4492990000000 1.0
C      1  0.5235710000000  0.4489270000000  0.4350530000000 1.0
C      1  0.4752820000000  0.4877490000000  0.4080130000000 1.0
C      1  0.5641180000000  0.5328770000000  0.4322450000000 1.0
C      1  0.5038250000000  0.5579750000000  0.4459590000000 1.0
C      1  0.5606740000000  0.5035450000000  0.5819670000000 1.0
C      1  0.5499470000000  0.5101410000000  0.5250090000000 1.0
C      1  0.4267950000000  0.5439290000000  0.4302400000000 1.0
C      1  0.4974500000000  0.4702990000000  0.6055260000000 1.0
C      1  0.5674610000000  0.5694720000000  0.5425580000000 1.0
C      1  0.4730030000000  0.4836260000000  0.5859940000000 1.0
C      1  0.5203450000000  0.4669560000000  0.5869190000000 1.0
C      1  0.5510560000000  0.5224960000000  0.5569150000000 1.0
C      1  0.5622930000000  0.5193010000000  0.4879040000000 1.0
C      1  0.5212970000000  0.4217400000000  0.5458550000000 1.0
C      1  0.4495200000000  0.4996950000000  0.4822380000000 1.0
C      1  0.4899920000000  0.3979550000000  0.4964600000000 1.0
C      1  0.5339920000000  0.5769790000000  0.5475100000000 1.0
C      1  0.4795980000000  0.4527270000000  0.5394750000000 1.0
C      1  0.5020860000000  0.5048920000000  0.4502120000000 1.0
C      1  0.5337340000000  0.4393410000000  0.5721830000000 1.0
C      1  0.5292970000000  0.4977620000000  0.5794740000000 1.0
C      1  0.5642860000000  0.4453890000000  0.5698070000000 1.0
C      1  0.4972180000000  0.4785850000000  0.4291430000000 1.0
C      1  0.5046900000000  0.4285810000000  0.4992450000000 1.0
C      1  0.5583560000000  0.4690790000000  0.5282550000000 1.0
C      1  0.4635480000000  0.5120710000000  0.4372810000000 1.0
C      1  0.5480750000000  0.6080190000000  0.4886950000000 1.0
C      1  0.5221700000000  0.6123020000000  0.4950850000000 1.0
C      1  0.5980600000000  0.5514600000000  0.4888860000000 1.0
C      1  0.4981350000000  0.6183950000000  0.5129560000000 1.0
C      1  0.5805940000000  0.4930520000000  0.5629180000000 1.0
C      1  0.5101700000000  0.4475150000000  0.5269490000000 1.0
C      1  0.4458590000000  0.4906000000000  0.4177200000000 1.0
C      1  0.5737330000000  0.4660690000000  0.5546960000000 1.0
C      1  0.4600800000000  0.5931430000000  0.4617840000000 1.0
C      1  0.5332460000000  0.5138590000000  0.4731210000000 1.0
C      1  0.4934880000000  0.5852570000000  0.4596420000000 1.0
C      1  0.4546870000000  0.5964650000000  0.5625120000000 1.0
C      1  0.5337380000000  0.5441730000000  0.5121300000000 1.0
C      1  0.4370400000000  0.4525870000000  0.4416880000000 1.0
C      1  0.5428300000000  0.5572060000000  0.4308900000000 1.0
C      1  0.5276540000000  0.4838940000000  0.4580480000000 1.0
C      1  0.5739540000000  0.5070130000000  0.4520840000000 1.0
C      1  0.5025240000000  0.4321260000000  0.5795590000000 1.0
C      1  0.4759250000000  0.5408500000000  0.4490240000000 1.0
C      1  0.4890580000000  0.5349560000000  0.5034240000000 1.0
C      1  0.5256070000000  0.5461230000000  0.4655620000000 1.0
C      1  0.5753580000000  0.4574970000000  0.4346350000000 1.0
C      1  0.4892170000000  0.5753350000000  0.4103590000000 1.0
C      1  0.5433730000000  0.4446000000000  0.4611550000000 1.0
C      1  0.4685860000000  0.5832210000000  0.5422670000000 1.0
C      1  0.4833840000000  0.4215440000000  0.4564520000000 1.0
C      1  0.5510820000000  0.5511640000000  0.5642880000000 1.0
C      1  0.4262390000000  0.4770130000000  0.4326750000000 1.0
C      1  0.5485110000000  0.5808530000000  0.5179110000000 1.0
C      1  0.4857110000000  0.4564660000000  0.5699600000000 1.0
C      1  0.4950360000000  0.4069490000000  0.5731770000000 1.0
C      1  0.4170470000000  0.4951230000000  0.4556150000000 1.0
C      1  0.5381100000000  0.5185310000000  0.4397790000000 1.0
C      1  0.4547010000000  0.5546270000000  0.5319970000000 1.0
C      1  0.4493900000000  0.5589580000000  0.4444550000000 1.0
C      1  0.4915240000000  0.4455330000000  0.4349550000000 1.0
C      1  0.5777180000000  0.4923600000000  0.5166390000000 1.0
C      1  0.5393780000000  0.4701630000000  0.4932780000000 1.0
C      1  0.4430350000000  0.4991640000000  0.5817580000000 1.0
C      1  0.5165060000000  0.5722030000000  0.5123730000000 1.0
C      1  0.5547430000000  0.5585860000000  0.4627140000000 1.0
C      1  0.5079130000000  0.5261790000000  0.4054470000000 1.0
C      1  0.5062730000000  0.4693330000000  0.5011410000000 1.0
C      1  0.4484020000000  0.4658230000000  0.4852580000000 1.0
C      1  0.4353270000000  0.4426560000000  0.5375500000000 1.0
C      1  0.4169850000000  0.4885920000000  0.5160140000000 1.0
C      1  0.5795110000000  0.5376260000000  0.4681170000000 1.0
C      1  0.4807630000000  0.5348450000000  0.5773420000000 1.0
C      1  0.4704220000000  0.4065930000000  0.5298930000000 1.0
C      1  0.4067680000000  0.5062740000000  0.5421080000000 1.0
C      1  0.4981740000000  0.4702630000000  0.4681250000000 1.0
C      1  0.5798010000000  0.5391300000000  0.5346860000000 1.0
C      1  0.5599090000000  0.3954350000000  0.5048620000000 1.0
C      1  0.5043240000000  0.5532790000000  0.5629850000000 1.0
C      1  0.4421020000000  0.5392990000000  0.4784090000000 1.0
C      1  0.4633360000000  0.5537970000000  0.4991220000000 1.0
C      1  0.5199640000000  0.5127490000000  0.5507450000000 1.0
C      1  0.4815120000000  0.5179000000000  0.4079910000000 1.0
C      1  0.5865340000000  0.5124750000000  0.5406140000000 1.0
C      1  0.4780150000000  0.5008230000000  0.5570700000000 1.0
C      1  0.4165950000000  0.4777500000000  0.4837060000000 1.0
C      1  0.5687420000000  0.4336560000000  0.4786680000000 1.0
C      1  0.4934310000000  0.4963830000000  0.5126760000000 1.0
C      1  0.3923700000000  0.5078940000000  0.4740900000000 1.0
C      1  0.4039710000000  0.4584790000000  0.5073520000000 1.0
C      1  0.5223310000000  0.5128590000000  0.5053170000000 1.0
C      1  0.5069660000000  0.5381130000000  0.5321990000000 1.0
C      1  0.4602480000000  0.4312170000000  0.5361740000000 1.0
C      1  0.5601850000000  0.4031630000000  0.4778300000000 1.0
C      1  0.4191260000000  0.5725740000000  0.4995310000000 1.0
C      1  0.5295540000000  0.4766920000000  0.4188050000000 1.0
C      1  0.5535670000000  0.4438370000000  0.5073540000000 1.0
C      1  0.5133340000000  0.4683080000000  0.5536740000000 1.0
C      1  0.4313600000000  0.4206680000000  0.4955810000000 1.0
C      1  0.4658180000000  0.5121680000000  0.5051330000000 1.0
C      1  0.4703760000000  0.5827210000000  0.4918520000000 1.0
C      1  0.4228070000000  0.5549630000000  0.5202120000000 1.0
C      1  0.4437310000000  0.5057680000000  0.5274170000000 1.0
C      1  0.4653910000000  0.4594050000000  0.4438120000000 1.0
C      1  0.5001430000000  0.5785890000000  0.5446000000000 1.0
C      1  0.5402780000000  0.3985950000000  0.4590730000000 1.0
C      1  0.4686720000000  0.4831800000000  0.5323310000000 1.0
C      1  0.5909520000000  0.4777570000000  0.4926220000000 1.0
C      1  0.5269660000000  0.5564190000000  0.5808730000000 1.0
C      1  0.4210090000000  0.5171430000000  0.4887420000000 1.0
C      1  0.4491280000000  0.5259690000000  0.5746170000000 1.0
C      1  0.5846480000000  0.4393260000000  0.4491570000000 1.0
END
