TITL C-2848508-1660-562 -0.000639883810849581 125000 -714.64397913099 0 0 132 (C1) n - 1
REM
REM in /home/bkarasulu/work/CARBON/AIRSS/Generating-Clusters/AIREBO/with-SteepDescent/Only-C1/SD-CG-opt/Try1-1.4A-POS3A/HFTN-CG
REM
REM
REM
REM
REM
REM ./C.cell (11c1c37f851c82e70ff6c80c92926a4b)
REM
REM compiler GCC version 9.2.1 20190827 (Red Hat 9.2.1-1)
REM options -cpp -mtune=generic -march=x86-64 -g -O0 -fpre-include=/usr/include/finclude/math-vector-fortran.h
REM seed -205888388 215143307 -256531248 -1520206866 -2026044893 245966513 -1100310523 -288006547 -726090494 -1618567411 1897347549 -3893509 -525913764 -628266982 -1513860752 707651645 1344188149 -1544073390 730045001 -595602383 -2133303338 -33821374 1046224475 -1608176176 1066916999 -1784027288 -360928417 -819301846 -1884877139 936959816 -242014035 -1559815688 525224392
REM
CELL 1.54180   50.00000   50.00000   50.00000   90.00000   90.00000   90.00000
LATT -1
SFAC C  
C      1  0.4633890000000  0.4948040000000  0.5328630000000 1.0
C      1  0.5543660000000  0.4293590000000  0.4474720000000 1.0
C      1  0.5718280000000  0.4563820000000  0.5688550000000 1.0
C      1  0.4765480000000  0.4784200000000  0.5536540000000 1.0
C      1  0.4564290000000  0.4835570000000  0.4760400000000 1.0
C      1  0.4505310000000  0.5526090000000  0.4399410000000 1.0
C      1  0.4844670000000  0.5554490000000  0.5751760000000 1.0
C      1  0.4343400000000  0.4631640000000  0.5723280000000 1.0
C      1  0.5219650000000  0.4754800000000  0.3914200000000 1.0
C      1  0.4279960000000  0.4312340000000  0.4757560000000 1.0
C      1  0.4902060000000  0.5219820000000  0.5543310000000 1.0
C      1  0.4437490000000  0.5021940000000  0.4993650000000 1.0
C      1  0.4813760000000  0.4546840000000  0.5348530000000 1.0
C      1  0.4749220000000  0.4600870000000  0.5026880000000 1.0
C      1  0.5534170000000  0.5862380000000  0.4712080000000 1.0
C      1  0.4698610000000  0.4091470000000  0.4930670000000 1.0
C      1  0.4635550000000  0.4149550000000  0.4600060000000 1.0
C      1  0.5371320000000  0.4375090000000  0.4271070000000 1.0
C      1  0.5794290000000  0.5605850000000  0.5236350000000 1.0
C      1  0.4405820000000  0.4308000000000  0.5331450000000 1.0
C      1  0.5098230000000  0.4688830000000  0.5316700000000 1.0
C      1  0.4342360000000  0.5522190000000  0.4691100000000 1.0
C      1  0.4852780000000  0.4797310000000  0.5925550000000 1.0
C      1  0.4435150000000  0.4515970000000  0.5064070000000 1.0
C      1  0.5278900000000  0.4201210000000  0.5268870000000 1.0
C      1  0.5817030000000  0.4752320000000  0.5422060000000 1.0
C      1  0.5523330000000  0.4307250000000  0.4807630000000 1.0
C      1  0.4082910000000  0.5503300000000  0.4911630000000 1.0
C      1  0.4676400000000  0.5700890000000  0.5512280000000 1.0
C      1  0.4946170000000  0.4711540000000  0.3960950000000 1.0
C      1  0.4704180000000  0.4275490000000  0.5403090000000 1.0
C      1  0.4631310000000  0.5150280000000  0.4065860000000 1.0
C      1  0.5023130000000  0.4210920000000  0.5492720000000 1.0
C      1  0.4774460000000  0.5706830000000  0.4305000000000 1.0
C      1  0.5243520000000  0.5224480000000  0.4071910000000 1.0
C      1  0.5490690000000  0.5741310000000  0.5331460000000 1.0
C      1  0.5084480000000  0.4997630000000  0.5175740000000 1.0
C      1  0.5891170000000  0.4804190000000  0.5093430000000 1.0
C      1  0.5206800000000  0.4326320000000  0.4858360000000 1.0
C      1  0.4370010000000  0.5772130000000  0.4902600000000 1.0
C      1  0.4798530000000  0.5693290000000  0.5072400000000 1.0
C      1  0.5199740000000  0.4613250000000  0.5012290000000 1.0
C      1  0.4289630000000  0.4720100000000  0.4504650000000 1.0
C      1  0.4800180000000  0.5079630000000  0.4739780000000 1.0
C      1  0.4317580000000  0.4844930000000  0.5258170000000 1.0
C      1  0.5621160000000  0.5370260000000  0.5400780000000 1.0
C      1  0.5343120000000  0.4776460000000  0.4496840000000 1.0
C      1  0.5855010000000  0.5307280000000  0.5084680000000 1.0
C      1  0.4211770000000  0.5140850000000  0.4814800000000 1.0
C      1  0.4405380000000  0.4190840000000  0.5010430000000 1.0
C      1  0.4295540000000  0.4584610000000  0.5458730000000 1.0
C      1  0.4022910000000  0.5206260000000  0.4469150000000 1.0
C      1  0.4873370000000  0.4049890000000  0.5228310000000 1.0
C      1  0.5145910000000  0.5426880000000  0.5658570000000 1.0
C      1  0.4279970000000  0.5623080000000  0.5161730000000 1.0
C      1  0.6048070000000  0.4561800000000  0.4538440000000 1.0
C      1  0.4901540000000  0.4112430000000  0.4423180000000 1.0
C      1  0.5280450000000  0.5113960000000  0.5650700000000 1.0
C      1  0.4784210000000  0.4589210000000  0.4688790000000 1.0
C      1  0.4155610000000  0.5112560000000  0.5379660000000 1.0
C      1  0.5508730000000  0.4331580000000  0.5119030000000 1.0
C      1  0.5861010000000  0.5074480000000  0.5521670000000 1.0
C      1  0.4325690000000  0.5229480000000  0.5650810000000 1.0
C      1  0.5085560000000  0.5239570000000  0.4834060000000 1.0
C      1  0.5097770000000  0.4293730000000  0.4255090000000 1.0
C      1  0.4987930000000  0.4322150000000  0.4635340000000 1.0
C      1  0.5323820000000  0.4491460000000  0.5434060000000 1.0
C      1  0.4616100000000  0.4574710000000  0.4248190000000 1.0
C      1  0.5090700000000  0.5768970000000  0.5656080000000 1.0
C      1  0.5935060000000  0.5077430000000  0.5222730000000 1.0
C      1  0.4130860000000  0.5254500000000  0.5125260000000 1.0
C      1  0.5066700000000  0.5321410000000  0.3873380000000 1.0
C      1  0.4164570000000  0.4834240000000  0.4756150000000 1.0
C      1  0.5189440000000  0.5896950000000  0.5356870000000 1.0
C      1  0.5044380000000  0.4916660000000  0.5564190000000 1.0
C      1  0.5024670000000  0.4762390000000  0.4421080000000 1.0
C      1  0.5136640000000  0.5273580000000  0.4347790000000 1.0
C      1  0.4620040000000  0.5275140000000  0.5087040000000 1.0
C      1  0.5060720000000  0.5565770000000  0.4423140000000 1.0
C      1  0.5385010000000  0.4987740000000  0.4037440000000 1.0
C      1  0.5187320000000  0.5769970000000  0.5041370000000 1.0
C      1  0.4739000000000  0.4885470000000  0.4169980000000 1.0
C      1  0.5546320000000  0.4936150000000  0.4674710000000 1.0
C      1  0.4930870000000  0.4543130000000  0.4232320000000 1.0
C      1  0.5329660000000  0.5058820000000  0.4987190000000 1.0
C      1  0.5544790000000  0.4826610000000  0.5732010000000 1.0
C      1  0.4502180000000  0.5223390000000  0.4658150000000 1.0
C      1  0.4610660000000  0.5888390000000  0.4932220000000 1.0
C      1  0.5420950000000  0.4887090000000  0.5440890000000 1.0
C      1  0.4906890000000  0.5129300000000  0.5871220000000 1.0
C      1  0.4859150000000  0.5822490000000  0.5336330000000 1.0
C      1  0.6095180000000  0.4843450000000  0.4595640000000 1.0
C      1  0.4592130000000  0.4733360000000  0.5790570000000 1.0
C      1  0.5127560000000  0.5304720000000  0.5226260000000 1.0
C      1  0.4857050000000  0.5427470000000  0.5277480000000 1.0
C      1  0.5308360000000  0.5163270000000  0.4588710000000 1.0
C      1  0.4906880000000  0.5046290000000  0.4418330000000 1.0
C      1  0.4929030000000  0.4312290000000  0.5027330000000 1.0
C      1  0.4619930000000  0.5304540000000  0.5803860000000 1.0
C      1  0.5459020000000  0.5548750000000  0.5606210000000 1.0
C      1  0.4463130000000  0.5264150000000  0.4254880000000 1.0
C      1  0.5266120000000  0.5474470000000  0.5001310000000 1.0
C      1  0.4999320000000  0.4538020000000  0.5928370000000 1.0
C      1  0.4776100000000  0.5546410000000  0.4604770000000 1.0
C      1  0.5147650000000  0.4345770000000  0.5761710000000 1.0
C      1  0.5583190000000  0.5735840000000  0.5003650000000 1.0
C      1  0.5827390000000  0.4780920000000  0.4786780000000 1.0
C      1  0.4469800000000  0.5558040000000  0.5364380000000 1.0
C      1  0.4821640000000  0.4932610000000  0.5045920000000 1.0
C      1  0.5746780000000  0.5295550000000  0.5707810000000 1.0
C      1  0.4794860000000  0.5269680000000  0.3871600000000 1.0
C      1  0.5106880000000  0.4690190000000  0.4726040000000 1.0
C      1  0.3968740000000  0.5395330000000  0.4625430000000 1.0
C      1  0.5390750000000  0.4682220000000  0.4193940000000 1.0
C      1  0.4185130000000  0.4684690000000  0.4989110000000 1.0
C      1  0.4530160000000  0.5241770000000  0.5403450000000 1.0
C      1  0.5236020000000  0.5915110000000  0.4809850000000 1.0
C      1  0.5269020000000  0.5756010000000  0.4530720000000 1.0
C      1  0.5551570000000  0.4648820000000  0.5236500000000 1.0
C      1  0.4306490000000  0.5053450000000  0.4437910000000 1.0
C      1  0.4823920000000  0.5451600000000  0.4880860000000 1.0
C      1  0.5415950000000  0.4993720000000  0.5938460000000 1.0
C      1  0.5196650000000  0.5229940000000  0.6018070000000 1.0
C      1  0.6252520000000  0.5051950000000  0.4537080000000 1.0
C      1  0.5426030000000  0.5177850000000  0.5285130000000 1.0
C      1  0.5467030000000  0.4785330000000  0.4954560000000 1.0
C      1  0.5229390000000  0.6183020000000  0.5371010000000 1.0
C      1  0.4503670000000  0.4458690000000  0.4547360000000 1.0
C      1  0.5768800000000  0.4467770000000  0.4661420000000 1.0
C      1  0.5468910000000  0.5376920000000  0.5888940000000 1.0
C      1  0.5584490000000  0.5404690000000  0.4968270000000 1.0
C      1  0.5430010000000  0.4448200000000  0.5722340000000 1.0
END
