TITL C-2848501-3133-548 -0.00198338835406623 125000 -177.979149352405 0 0 33 (C1) n - 1
REM
REM in /home/bkarasulu/work/CARBON/AIRSS/Generating-Clusters/AIREBO/with-SteepDescent/Only-C1/SD-CG-opt/Try1-1.4A-POS3A/HFTN-CG
REM
REM
REM
REM
REM
REM ./C.cell (11c1c37f851c82e70ff6c80c92926a4b)
REM
REM compiler GCC version 9.2.1 20190827 (Red Hat 9.2.1-1)
REM options -cpp -mtune=generic -march=x86-64 -g -O0 -fpre-include=/usr/include/finclude/math-vector-fortran.h
REM seed 1804981296 -1806509909 -786486467 -424081454 1061961943 766022356 2118021891 1301592308 -59468636 -1825119192 -821612924 -1099919445 -735689516 568512278 -538812441 1330172187 1211878686 -1179863360 -1601120323 -135434019 152959355 597147754 122821534 374574349 852338593 88524585 -1390845815 -94401973 -1385796283 -1339163586 -1178845619 -612571502 276772119
REM
CELL 1.54180   50.00000   50.00000   50.00000   90.00000   90.00000   90.00000
LATT -1
SFAC C  
C      1  0.5343770000000  0.4454810000000  0.5421510000000 1.0
C      1  0.4603090000000  0.4970860000000  0.5361810000000 1.0
C      1  0.5076350000000  0.4540560000000  0.4678150000000 1.0
C      1  0.5400250000000  0.4589480000000  0.4732700000000 1.0
C      1  0.4655440000000  0.4900930000000  0.4722460000000 1.0
C      1  0.5334210000000  0.4936240000000  0.5334140000000 1.0
C      1  0.4699820000000  0.5450620000000  0.5283950000000 1.0
C      1  0.5327030000000  0.4811680000000  0.4530110000000 1.0
C      1  0.4816570000000  0.5085780000000  0.5840630000000 1.0
C      1  0.4700420000000  0.5032890000000  0.5611680000000 1.0
C      1  0.4480220000000  0.4704580000000  0.4791840000000 1.0
C      1  0.5010260000000  0.4182250000000  0.5183660000000 1.0
C      1  0.5402460000000  0.5076780000000  0.4583910000000 1.0
C      1  0.4798130000000  0.5662940000000  0.5385820000000 1.0
C      1  0.4809260000000  0.4928410000000  0.4481330000000 1.0
C      1  0.4513370000000  0.4719870000000  0.5296470000000 1.0
C      1  0.5183170000000  0.4393290000000  0.5199190000000 1.0
C      1  0.5054580000000  0.5097110000000  0.4959760000000 1.0
C      1  0.4750380000000  0.5131020000000  0.4911870000000 1.0
C      1  0.5142350000000  0.5649110000000  0.4449450000000 1.0
C      1  0.4581100000000  0.5193650000000  0.5156920000000 1.0
C      1  0.4308930000000  0.5237370000000  0.5084530000000 1.0
C      1  0.5371960000000  0.4716160000000  0.5505770000000 1.0
C      1  0.5027940000000  0.4752660000000  0.4453950000000 1.0
C      1  0.5045860000000  0.5425050000000  0.4577100000000 1.0
C      1  0.5235290000000  0.5269470000000  0.4764740000000 1.0
C      1  0.5189070000000  0.4606940000000  0.4992150000000 1.0
C      1  0.5410320000000  0.5453600000000  0.4943780000000 1.0
C      1  0.5174200000000  0.4887510000000  0.5107720000000 1.0
C      1  0.4839010000000  0.5206650000000  0.4425300000000 1.0
C      1  0.5445090000000  0.5191340000000  0.5358560000000 1.0
C      1  0.5527530000000  0.5377020000000  0.5176730000000 1.0
C      1  0.4742560000000  0.5363350000000  0.4692350000000 1.0
END
