TITL C-2848496-4490-216 -0.00103776997729559 125000 -553.523264435106 0 0 107 (C1) n - 1
REM
REM in /home/bkarasulu/work/CARBON/AIRSS/Generating-Clusters/AIREBO/with-SteepDescent/Only-C1/SD-CG-opt/Try1-1.4A-POS3A/HFTN-CG
REM
REM
REM
REM
REM
REM ./C.cell (11c1c37f851c82e70ff6c80c92926a4b)
REM
REM compiler GCC version 9.2.1 20190827 (Red Hat 9.2.1-1)
REM options -cpp -mtune=generic -march=x86-64 -g -O0 -fpre-include=/usr/include/finclude/math-vector-fortran.h
REM seed 1394770607 1424820702 -1422977842 76325626 526125450 -588040387 603101035 1024420563 229602367 -1849845030 1543503723 -1714846420 1162286068 1017890117 861577668 883421647 1449801979 1327405780 -1532136716 -2145036953 916521879 2018154344 386753378 -661556371 1119334944 1971857455 1564709564 -1262308256 815792096 1242627454 -177415582 -207775994 383535134
REM
CELL 1.54180   50.00000   50.00000   50.00000   90.00000   90.00000   90.00000
LATT -1
SFAC C  
C      1  0.5594610000000  0.5809170000000  0.4501620000000 1.0
C      1  0.4920600000000  0.5303280000000  0.5396960000000 1.0
C      1  0.5915150000000  0.4920110000000  0.5405700000000 1.0
C      1  0.4550850000000  0.5324350000000  0.4562720000000 1.0
C      1  0.4797760000000  0.4443460000000  0.5171520000000 1.0
C      1  0.5281790000000  0.4619430000000  0.4256720000000 1.0
C      1  0.4899300000000  0.4239980000000  0.4618270000000 1.0
C      1  0.4660470000000  0.4768010000000  0.5359170000000 1.0
C      1  0.5620350000000  0.4372800000000  0.5362690000000 1.0
C      1  0.4853270000000  0.4134460000000  0.5097210000000 1.0
C      1  0.4880280000000  0.4488590000000  0.5824380000000 1.0
C      1  0.5495820000000  0.4675880000000  0.5271340000000 1.0
C      1  0.5249860000000  0.4717490000000  0.5040300000000 1.0
C      1  0.5148840000000  0.5755880000000  0.4711260000000 1.0
C      1  0.4554180000000  0.5507490000000  0.5721610000000 1.0
C      1  0.5786580000000  0.5193300000000  0.5266710000000 1.0
C      1  0.4921200000000  0.4444160000000  0.4854550000000 1.0
C      1  0.4291410000000  0.5213760000000  0.5335820000000 1.0
C      1  0.5691840000000  0.5519520000000  0.4900640000000 1.0
C      1  0.5470500000000  0.4159130000000  0.5217110000000 1.0
C      1  0.4796610000000  0.5702230000000  0.4886820000000 1.0
C      1  0.4975520000000  0.5250230000000  0.4898330000000 1.0
C      1  0.5286750000000  0.5114800000000  0.4657650000000 1.0
C      1  0.4582130000000  0.5361260000000  0.4233800000000 1.0
C      1  0.4614760000000  0.4691680000000  0.4758130000000 1.0
C      1  0.4749220000000  0.5078770000000  0.5085410000000 1.0
C      1  0.5084360000000  0.5206450000000  0.5955580000000 1.0
C      1  0.5649510000000  0.5252080000000  0.5724350000000 1.0
C      1  0.4425720000000  0.4719100000000  0.4359920000000 1.0
C      1  0.5041690000000  0.5764060000000  0.5801540000000 1.0
C      1  0.5477890000000  0.4960270000000  0.4971680000000 1.0
C      1  0.5330840000000  0.5800260000000  0.4451310000000 1.0
C      1  0.5216240000000  0.4796060000000  0.5696350000000 1.0
C      1  0.4127340000000  0.5172810000000  0.5040410000000 1.0
C      1  0.6182670000000  0.4935700000000  0.5483920000000 1.0
C      1  0.5299590000000  0.5427380000000  0.5113330000000 1.0
C      1  0.4406550000000  0.4474110000000  0.4916010000000 1.0
C      1  0.4273940000000  0.5303740000000  0.4383020000000 1.0
C      1  0.4167120000000  0.4843070000000  0.5258300000000 1.0
C      1  0.5412690000000  0.4710120000000  0.4741830000000 1.0
C      1  0.5118260000000  0.4431910000000  0.5399840000000 1.0
C      1  0.4602500000000  0.4989760000000  0.4594880000000 1.0
C      1  0.4974260000000  0.4972910000000  0.5797690000000 1.0
C      1  0.4179050000000  0.4705030000000  0.4812540000000 1.0
C      1  0.4872860000000  0.5510410000000  0.5649970000000 1.0
C      1  0.4927020000000  0.4734990000000  0.4716120000000 1.0
C      1  0.5472790000000  0.5169980000000  0.5179390000000 1.0
C      1  0.4790040000000  0.4491660000000  0.5508000000000 1.0
C      1  0.5410660000000  0.4904150000000  0.5489250000000 1.0
C      1  0.5132020000000  0.5190660000000  0.6212330000000 1.0
C      1  0.5390820000000  0.4241750000000  0.4614740000000 1.0
C      1  0.5295650000000  0.5710640000000  0.5206130000000 1.0
C      1  0.4610440000000  0.4201790000000  0.4922300000000 1.0
C      1  0.5004900000000  0.4542490000000  0.4259000000000 1.0
C      1  0.4649870000000  0.4914940000000  0.4264450000000 1.0
C      1  0.5196350000000  0.5465140000000  0.4820030000000 1.0
C      1  0.5457250000000  0.4469300000000  0.4426030000000 1.0
C      1  0.4772350000000  0.5785620000000  0.5220630000000 1.0
C      1  0.4545020000000  0.5349430000000  0.5060590000000 1.0
C      1  0.4250810000000  0.4658210000000  0.5516350000000 1.0
C      1  0.5147620000000  0.4524290000000  0.5679190000000 1.0
C      1  0.4751850000000  0.5614080000000  0.4385200000000 1.0
C      1  0.4786400000000  0.5131710000000  0.4110100000000 1.0
C      1  0.5071160000000  0.5101150000000  0.4151080000000 1.0
C      1  0.4353270000000  0.4328790000000  0.4613180000000 1.0
C      1  0.5100670000000  0.4939350000000  0.4841830000000 1.0
C      1  0.4787470000000  0.4354310000000  0.4377430000000 1.0
C      1  0.5833610000000  0.4639340000000  0.5284990000000 1.0
C      1  0.4568540000000  0.5644310000000  0.4676500000000 1.0
C      1  0.4274920000000  0.4898590000000  0.4591670000000 1.0
C      1  0.4508000000000  0.4451360000000  0.4404390000000 1.0
C      1  0.4331650000000  0.5479720000000  0.4856710000000 1.0
C      1  0.4896690000000  0.5159960000000  0.4582030000000 1.0
C      1  0.5657940000000  0.4540520000000  0.5004600000000 1.0
C      1  0.5528090000000  0.5616200000000  0.5377710000000 1.0
C      1  0.5152110000000  0.5295670000000  0.4403150000000 1.0
C      1  0.4164430000000  0.4985630000000  0.5558620000000 1.0
C      1  0.4198350000000  0.5210710000000  0.4705360000000 1.0
C      1  0.5585090000000  0.4976970000000  0.4647030000000 1.0
C      1  0.4954780000000  0.4742500000000  0.5189710000000 1.0
C      1  0.5679680000000  0.5005590000000  0.5601660000000 1.0
C      1  0.5169310000000  0.5449110000000  0.5790190000000 1.0
C      1  0.4591830000000  0.5281070000000  0.5484330000000 1.0
C      1  0.5054630000000  0.5600350000000  0.4426010000000 1.0
C      1  0.5241700000000  0.5193340000000  0.5428070000000 1.0
C      1  0.5720610000000  0.5483180000000  0.5194660000000 1.0
C      1  0.5418190000000  0.5422890000000  0.5597890000000 1.0
C      1  0.4428090000000  0.4545730000000  0.5248390000000 1.0
C      1  0.5179180000000  0.4386050000000  0.5068370000000 1.0
C      1  0.4839790000000  0.5465630000000  0.5127240000000 1.0
C      1  0.4838270000000  0.4725870000000  0.5965860000000 1.0
C      1  0.4023800000000  0.4856760000000  0.4996990000000 1.0
C      1  0.5748180000000  0.5733540000000  0.4721280000000 1.0
C      1  0.5455330000000  0.4286520000000  0.4902230000000 1.0
C      1  0.5081310000000  0.5825540000000  0.5026120000000 1.0
C      1  0.4465360000000  0.4976410000000  0.5179550000000 1.0
C      1  0.5506020000000  0.5340180000000  0.4787250000000 1.0
C      1  0.5310540000000  0.4904380000000  0.4204640000000 1.0
C      1  0.5670860000000  0.4522110000000  0.4664230000000 1.0
C      1  0.4406650000000  0.5911020000000  0.4610570000000 1.0
C      1  0.4280430000000  0.5520490000000  0.5189400000000 1.0
C      1  0.4862520000000  0.4743980000000  0.4417440000000 1.0
C      1  0.5474550000000  0.5337040000000  0.4303210000000 1.0
C      1  0.5519000000000  0.5052560000000  0.4338850000000 1.0
C      1  0.5144280000000  0.4065250000000  0.5175760000000 1.0
C      1  0.5146660000000  0.4104500000000  0.4571520000000 1.0
C      1  0.4751860000000  0.5010540000000  0.5573560000000 1.0
END
