TITL C-2848504-8560-176 -0.00126151028862215 125000 -714.266883144263 0 0 133 (C1) n - 1
REM
REM in /home/bkarasulu/work/CARBON/AIRSS/Generating-Clusters/AIREBO/with-SteepDescent/Only-C1/SD-CG-opt/Try1-1.4A-POS3A/HFTN-CG
REM
REM
REM
REM
REM
REM ./C.cell (11c1c37f851c82e70ff6c80c92926a4b)
REM
REM compiler GCC version 9.2.1 20190827 (Red Hat 9.2.1-1)
REM options -cpp -mtune=generic -march=x86-64 -g -O0 -fpre-include=/usr/include/finclude/math-vector-fortran.h
REM seed 1774038345 351687437 2111422442 518810365 -1707247260 131787351 234646155 1484434215 -582619321 -1708981538 552105618 135485038 -369075822 1175175991 -275698331 725128876 267662885 559646858 -1327637630 -474791486 -2076371261 -855181211 -230446588 -1506660682 -1998255237 -1975555192 -139287578 -2055960318 1453955399 -1708442084 -682288725 721186421 -108227488
REM
CELL 1.54180   50.00000   50.00000   50.00000   90.00000   90.00000   90.00000
LATT -1
SFAC C  
C      1  0.4356480000000  0.5347520000000  0.4901400000000 1.0
C      1  0.5214630000000  0.5178630000000  0.5435550000000 1.0
C      1  0.4322990000000  0.4251540000000  0.5566610000000 1.0
C      1  0.4238000000000  0.4380940000000  0.4842170000000 1.0
C      1  0.4793280000000  0.5376220000000  0.4914670000000 1.0
C      1  0.4418460000000  0.5714860000000  0.4422150000000 1.0
C      1  0.5413710000000  0.4518470000000  0.5687200000000 1.0
C      1  0.4596370000000  0.5657560000000  0.5646460000000 1.0
C      1  0.5427720000000  0.4158270000000  0.5065200000000 1.0
C      1  0.4637320000000  0.4861830000000  0.4784480000000 1.0
C      1  0.4107420000000  0.5095260000000  0.4532870000000 1.0
C      1  0.4791200000000  0.4946880000000  0.4524120000000 1.0
C      1  0.5754300000000  0.5464140000000  0.4851500000000 1.0
C      1  0.4278510000000  0.4859920000000  0.5608350000000 1.0
C      1  0.5137730000000  0.5916810000000  0.5323670000000 1.0
C      1  0.4112610000000  0.4746490000000  0.5211340000000 1.0
C      1  0.5005420000000  0.4220610000000  0.4782020000000 1.0
C      1  0.5705710000000  0.5796420000000  0.4904770000000 1.0
C      1  0.5586620000000  0.5065200000000  0.5769310000000 1.0
C      1  0.4588130000000  0.5119100000000  0.5001340000000 1.0
C      1  0.5590120000000  0.4996130000000  0.4970000000000 1.0
C      1  0.5315150000000  0.4514900000000  0.5358540000000 1.0
C      1  0.5806340000000  0.4824200000000  0.4436750000000 1.0
C      1  0.4307630000000  0.4926670000000  0.4998820000000 1.0
C      1  0.4270400000000  0.4546370000000  0.4618310000000 1.0
C      1  0.4309530000000  0.4531460000000  0.5648670000000 1.0
C      1  0.5441500000000  0.4822530000000  0.5580480000000 1.0
C      1  0.4882670000000  0.5554870000000  0.5494250000000 1.0
C      1  0.5757080000000  0.5674860000000  0.4584660000000 1.0
C      1  0.5429050000000  0.5257210000000  0.4242240000000 1.0
C      1  0.5705140000000  0.4908420000000  0.5408730000000 1.0
C      1  0.4978790000000  0.4351030000000  0.5217520000000 1.0
C      1  0.5765960000000  0.4476900000000  0.4853590000000 1.0
C      1  0.4461650000000  0.4941640000000  0.4438980000000 1.0
C      1  0.4391860000000  0.5421170000000  0.5727600000000 1.0
C      1  0.5818500000000  0.4743690000000  0.5021050000000 1.0
C      1  0.4134770000000  0.5365400000000  0.4662190000000 1.0
C      1  0.4608690000000  0.4651470000000  0.5540410000000 1.0
C      1  0.4363850000000  0.5622940000000  0.5027860000000 1.0
C      1  0.4584210000000  0.5899950000000  0.4582720000000 1.0
C      1  0.4584090000000  0.4725750000000  0.5871390000000 1.0
C      1  0.5439040000000  0.5606400000000  0.4813090000000 1.0
C      1  0.4355260000000  0.5242680000000  0.4352390000000 1.0
C      1  0.4771780000000  0.4875300000000  0.5155020000000 1.0
C      1  0.5225090000000  0.4034450000000  0.5212630000000 1.0
C      1  0.4372780000000  0.5014990000000  0.5320730000000 1.0
C      1  0.4694110000000  0.5245990000000  0.5298490000000 1.0
C      1  0.5695770000000  0.5136090000000  0.4418040000000 1.0
C      1  0.5290010000000  0.5356800000000  0.5171050000000 1.0
C      1  0.5495240000000  0.5238600000000  0.5960540000000 1.0
C      1  0.4554410000000  0.4470980000000  0.4482430000000 1.0
C      1  0.4480340000000  0.4408930000000  0.5053750000000 1.0
C      1  0.4566600000000  0.4133810000000  0.5448860000000 1.0
C      1  0.4798410000000  0.4158570000000  0.5606720000000 1.0
C      1  0.4035420000000  0.5054500000000  0.5335750000000 1.0
C      1  0.4621850000000  0.4169020000000  0.5172530000000 1.0
C      1  0.4786450000000  0.4897060000000  0.5948160000000 1.0
C      1  0.4907880000000  0.5825100000000  0.4510240000000 1.0
C      1  0.5051960000000  0.5244600000000  0.4468260000000 1.0
C      1  0.4733460000000  0.5134720000000  0.4075630000000 1.0
C      1  0.5038740000000  0.4549370000000  0.4116870000000 1.0
C      1  0.4925550000000  0.4078600000000  0.5057110000000 1.0
C      1  0.4855920000000  0.5979370000000  0.5208110000000 1.0
C      1  0.4726640000000  0.5589840000000  0.4344530000000 1.0
C      1  0.4521550000000  0.5279620000000  0.4635600000000 1.0
C      1  0.5260320000000  0.5547300000000  0.4302180000000 1.0
C      1  0.5584790000000  0.5423630000000  0.4492810000000 1.0
C      1  0.5332780000000  0.4784410000000  0.5009390000000 1.0
C      1  0.4804570000000  0.5369900000000  0.4574890000000 1.0
C      1  0.5295000000000  0.5350310000000  0.4655640000000 1.0
C      1  0.5561580000000  0.4569660000000  0.4209950000000 1.0
C      1  0.4758480000000  0.4637990000000  0.4273450000000 1.0
C      1  0.4625020000000  0.4889780000000  0.4165850000000 1.0
C      1  0.4249810000000  0.4849390000000  0.4686780000000 1.0
C      1  0.5025440000000  0.5184250000000  0.4156340000000 1.0
C      1  0.5535880000000  0.5195780000000  0.5476490000000 1.0
C      1  0.5149670000000  0.4788390000000  0.5409370000000 1.0
C      1  0.4562480000000  0.5362940000000  0.4151650000000 1.0
C      1  0.5271260000000  0.5003840000000  0.4079370000000 1.0
C      1  0.5315190000000  0.4227430000000  0.4690320000000 1.0
C      1  0.5229830000000  0.5939890000000  0.4856230000000 1.0
C      1  0.4970220000000  0.4658200000000  0.4538760000000 1.0
C      1  0.5001690000000  0.5506890000000  0.4171330000000 1.0
C      1  0.5722940000000  0.4517530000000  0.4511420000000 1.0
C      1  0.4981010000000  0.5488880000000  0.5174970000000 1.0
C      1  0.4929610000000  0.4161940000000  0.4479240000000 1.0
C      1  0.4180720000000  0.5588630000000  0.4492080000000 1.0
C      1  0.5284130000000  0.5403310000000  0.5857170000000 1.0
C      1  0.4773930000000  0.5308650000000  0.5700530000000 1.0
C      1  0.5607190000000  0.5310000000000  0.5100540000000 1.0
C      1  0.5324230000000  0.4847120000000  0.4705030000000 1.0
C      1  0.5586370000000  0.5641300000000  0.5182840000000 1.0
C      1  0.4994490000000  0.5096860000000  0.5210210000000 1.0
C      1  0.4512150000000  0.5501690000000  0.5358520000000 1.0
C      1  0.4568150000000  0.5843620000000  0.4900230000000 1.0
C      1  0.5131100000000  0.4611760000000  0.5807780000000 1.0
C      1  0.5711600000000  0.4255680000000  0.5080930000000 1.0
C      1  0.5230010000000  0.5737040000000  0.4582790000000 1.0
C      1  0.5753090000000  0.4362850000000  0.5346890000000 1.0
C      1  0.4952860000000  0.5945140000000  0.4934210000000 1.0
C      1  0.4621460000000  0.4554100000000  0.4805700000000 1.0
C      1  0.5807390000000  0.5008860000000  0.4713170000000 1.0
C      1  0.4827010000000  0.5687110000000  0.4811380000000 1.0
C      1  0.5457190000000  0.4534620000000  0.4723160000000 1.0
C      1  0.4502440000000  0.5103950000000  0.5686650000000 1.0
C      1  0.5352960000000  0.5608730000000  0.5659630000000 1.0
C      1  0.5466710000000  0.4808850000000  0.4432210000000 1.0
C      1  0.5987730000000  0.5027960000000  0.4991610000000 1.0
C      1  0.5097240000000  0.4303680000000  0.4304590000000 1.0
C      1  0.5562420000000  0.4267260000000  0.5548200000000 1.0
C      1  0.4733690000000  0.4962170000000  0.5481570000000 1.0
C      1  0.4252150000000  0.5297790000000  0.5443210000000 1.0
C      1  0.5346040000000  0.5872850000000  0.5117260000000 1.0
C      1  0.5129170000000  0.5736510000000  0.5539650000000 1.0
C      1  0.4556580000000  0.5816320000000  0.5236500000000 1.0
C      1  0.4878130000000  0.4482160000000  0.5650050000000 1.0
C      1  0.5033760000000  0.4662030000000  0.5115610000000 1.0
C      1  0.5112980000000  0.4283760000000  0.5504640000000 1.0
C      1  0.5850900000000  0.4634470000000  0.5329570000000 1.0
C      1  0.5087700000000  0.5222280000000  0.5714760000000 1.0
C      1  0.4660530000000  0.4181420000000  0.4430450000000 1.0
C      1  0.5084430000000  0.5012250000000  0.4683380000000 1.0
C      1  0.5279090000000  0.4718450000000  0.4092920000000 1.0
C      1  0.4995400000000  0.4900430000000  0.5689820000000 1.0
C      1  0.5150250000000  0.5202050000000  0.4926100000000 1.0
C      1  0.4405750000000  0.4611980000000  0.5270120000000 1.0
C      1  0.5544180000000  0.5506110000000  0.5470520000000 1.0
C      1  0.5343520000000  0.4050030000000  0.5498330000000 1.0
C      1  0.5863630000000  0.5157680000000  0.5254550000000 1.0
C      1  0.4740500000000  0.5167970000000  0.5999890000000 1.0
C      1  0.5376100000000  0.4468520000000  0.5047260000000 1.0
C      1  0.4928210000000  0.4527820000000  0.4821350000000 1.0
C      1  0.5249350000000  0.4548220000000  0.4453550000000 1.0
END
