TITL C-2848498-1409-368 -0.00710617866732393 125000 -464.881035874538 0 0 88 (C1) n - 1
REM
REM in /home/bkarasulu/work/CARBON/AIRSS/Generating-Clusters/AIREBO/with-SteepDescent/Only-C1/SD-CG-opt/Try1-1.4A-POS3A/HFTN-CG
REM
REM
REM
REM
REM
REM ./C.cell (11c1c37f851c82e70ff6c80c92926a4b)
REM
REM compiler GCC version 9.2.1 20190827 (Red Hat 9.2.1-1)
REM options -cpp -mtune=generic -march=x86-64 -g -O0 -fpre-include=/usr/include/finclude/math-vector-fortran.h
REM seed -847341574 1995366417 -2054824963 1632812054 -230497180 -1883260802 -259551929 963883162 2087979604 1482082292 -1497395909 -91329340 -481744200 1944550938 -1150227438 -1861356997 -2142570005 -1465175896 637266792 -1953868289 733673202 1438233805 -720292066 1637089575 -634737676 240961870 -1352561334 -897193973 1919066397 -900261921 -702926214 -1298561151 861318020
REM
CELL 1.54180   50.00000   50.00000   50.00000   90.00000   90.00000   90.00000
LATT -1
SFAC C  
C      1  0.4653900000000  0.5032910000000  0.5968330000000 1.0
C      1  0.4327660000000  0.4739810000000  0.4808750000000 1.0
C      1  0.4775870000000  0.5652410000000  0.5518780000000 1.0
C      1  0.5869510000000  0.5130910000000  0.4808660000000 1.0
C      1  0.5664000000000  0.5125290000000  0.5361570000000 1.0
C      1  0.5343440000000  0.5618250000000  0.4395130000000 1.0
C      1  0.4790440000000  0.4505530000000  0.5034600000000 1.0
C      1  0.4733180000000  0.5774350000000  0.5067430000000 1.0
C      1  0.4953370000000  0.4551750000000  0.5608400000000 1.0
C      1  0.4626900000000  0.5615730000000  0.4791700000000 1.0
C      1  0.4213060000000  0.5005340000000  0.4693920000000 1.0
C      1  0.5662960000000  0.5022920000000  0.5059040000000 1.0
C      1  0.4797710000000  0.5454890000000  0.5165290000000 1.0
C      1  0.4835900000000  0.4509270000000  0.4471750000000 1.0
C      1  0.5338950000000  0.5582430000000  0.5411060000000 1.0
C      1  0.5384300000000  0.4602030000000  0.4320440000000 1.0
C      1  0.4105200000000  0.5005340000000  0.4995980000000 1.0
C      1  0.4495140000000  0.5382990000000  0.4785220000000 1.0
C      1  0.5443890000000  0.4380410000000  0.4524530000000 1.0
C      1  0.4402620000000  0.5202130000000  0.4589390000000 1.0
C      1  0.5747680000000  0.4603230000000  0.4862290000000 1.0
C      1  0.4663320000000  0.4388340000000  0.5531510000000 1.0
C      1  0.4224400000000  0.4822670000000  0.5449590000000 1.0
C      1  0.5002550000000  0.4606600000000  0.4191690000000 1.0
C      1  0.4669980000000  0.4970360000000  0.4774080000000 1.0
C      1  0.4457480000000  0.5057390000000  0.5508700000000 1.0
C      1  0.5527960000000  0.5371100000000  0.4371970000000 1.0
C      1  0.5196060000000  0.5741980000000  0.5230520000000 1.0
C      1  0.4237160000000  0.4719990000000  0.5128920000000 1.0
C      1  0.5290790000000  0.5258400000000  0.5319940000000 1.0
C      1  0.4663010000000  0.5010290000000  0.5241920000000 1.0
C      1  0.5517480000000  0.5438100000000  0.4882210000000 1.0
C      1  0.4924700000000  0.4758900000000  0.4851810000000 1.0
C      1  0.4502840000000  0.5215160000000  0.5049910000000 1.0
C      1  0.4920730000000  0.4833010000000  0.4502400000000 1.0
C      1  0.5487430000000  0.5151280000000  0.4701200000000 1.0
C      1  0.5149060000000  0.5307200000000  0.4557010000000 1.0
C      1  0.5483520000000  0.4873000000000  0.4501530000000 1.0
C      1  0.4388400000000  0.4535030000000  0.5379250000000 1.0
C      1  0.4963700000000  0.4274980000000  0.4604530000000 1.0
C      1  0.4658460000000  0.4214330000000  0.4943800000000 1.0
C      1  0.4889000000000  0.5359310000000  0.5654330000000 1.0
C      1  0.5723870000000  0.4640020000000  0.5538230000000 1.0
C      1  0.5764580000000  0.5299250000000  0.4577510000000 1.0
C      1  0.5015620000000  0.5094050000000  0.5805190000000 1.0
C      1  0.4628930000000  0.4780970000000  0.5582260000000 1.0
C      1  0.4683040000000  0.5070380000000  0.4449240000000 1.0
C      1  0.4487820000000  0.4654660000000  0.4340460000000 1.0
C      1  0.5256700000000  0.4954160000000  0.5261270000000 1.0
C      1  0.5054400000000  0.4753580000000  0.5842540000000 1.0
C      1  0.5658110000000  0.4598800000000  0.4601230000000 1.0
C      1  0.4955440000000  0.4296770000000  0.5383480000000 1.0
C      1  0.5256990000000  0.4412990000000  0.5256960000000 1.0
C      1  0.4788380000000  0.4104800000000  0.4726470000000 1.0
C      1  0.4878230000000  0.5312050000000  0.4366440000000 1.0
C      1  0.5310200000000  0.4959880000000  0.5755260000000 1.0
C      1  0.5234020000000  0.4345020000000  0.4784560000000 1.0
C      1  0.4591640000000  0.4662340000000  0.4652470000000 1.0
C      1  0.4527880000000  0.4885160000000  0.4231400000000 1.0
C      1  0.5009160000000  0.5370910000000  0.5367260000000 1.0
C      1  0.4532610000000  0.5519840000000  0.5368200000000 1.0
C      1  0.5886080000000  0.4833050000000  0.4927150000000 1.0
C      1  0.4933390000000  0.5798610000000  0.5313120000000 1.0
C      1  0.4783160000000  0.5982960000000  0.4814060000000 1.0
C      1  0.5120260000000  0.5624210000000  0.4651560000000 1.0
C      1  0.5507510000000  0.4973760000000  0.5570810000000 1.0
C      1  0.4823720000000  0.5219120000000  0.4943480000000 1.0
C      1  0.4739660000000  0.4793900000000  0.5842070000000 1.0
C      1  0.4331810000000  0.5328750000000  0.5391590000000 1.0
C      1  0.4199780000000  0.5236760000000  0.5133770000000 1.0
C      1  0.5036090000000  0.4280260000000  0.5053460000000 1.0
C      1  0.5149810000000  0.4881850000000  0.4276920000000 1.0
C      1  0.5334520000000  0.5122890000000  0.4338880000000 1.0
C      1  0.5096050000000  0.4669260000000  0.5354550000000 1.0
C      1  0.4855640000000  0.5749860000000  0.4637780000000 1.0
C      1  0.5496280000000  0.4531830000000  0.5055150000000 1.0
C      1  0.5569490000000  0.5387510000000  0.5183000000000 1.0
C      1  0.5254010000000  0.4674970000000  0.4864190000000 1.0
C      1  0.5101740000000  0.5188180000000  0.4836080000000 1.0
C      1  0.5034760000000  0.5554920000000  0.4267200000000 1.0
C      1  0.5489350000000  0.4200320000000  0.4956330000000 1.0
C      1  0.5505180000000  0.5704770000000  0.4671630000000 1.0
C      1  0.5520350000000  0.4746850000000  0.5317900000000 1.0
C      1  0.4936150000000  0.4902670000000  0.5159770000000 1.0
C      1  0.5291230000000  0.5686190000000  0.4936700000000 1.0
C      1  0.4693250000000  0.4615340000000  0.5292050000000 1.0
C      1  0.4622350000000  0.5212590000000  0.5759800000000 1.0
C      1  0.5347040000000  0.4977630000000  0.4941480000000 1.0
END
