TITL C-2848496-4490-477 0.00102565284594846 125000 -563.303125988041 0 0 107 (C1) n - 1
REM
REM in /home/bkarasulu/work/CARBON/AIRSS/Generating-Clusters/AIREBO/with-SteepDescent/Only-C1/SD-CG-opt/Try1-1.4A-POS3A/HFTN-CG
REM
REM
REM
REM
REM
REM ./C.cell (11c1c37f851c82e70ff6c80c92926a4b)
REM
REM compiler GCC version 9.2.1 20190827 (Red Hat 9.2.1-1)
REM options -cpp -mtune=generic -march=x86-64 -g -O0 -fpre-include=/usr/include/finclude/math-vector-fortran.h
REM seed -1671783504 96388239 318656817 -339447398 258534951 313005558 -273044860 614619135 -926925645 78835158 -1184403963 1591640076 728554719 626115882 -211871906 -655586658 -2016479328 682368474 436186900 365746664 1206270342 852566413 -78248485 -1318260121 -902603823 1742605762 -1669646570 -1968637391 1438762201 -1857384444 -1504575475 -659863938 -311972665
REM
CELL 1.54180   50.00000   50.00000   50.00000   90.00000   90.00000   90.00000
LATT -1
SFAC C  
C      1  0.4633070000000  0.4223310000000  0.5224050000000 1.0
C      1  0.4820100000000  0.5860330000000  0.5068110000000 1.0
C      1  0.4905580000000  0.4861900000000  0.5911120000000 1.0
C      1  0.5602760000000  0.4833620000000  0.4197400000000 1.0
C      1  0.4693660000000  0.5138220000000  0.4566260000000 1.0
C      1  0.4436230000000  0.5729400000000  0.4730110000000 1.0
C      1  0.5317800000000  0.4475090000000  0.4406520000000 1.0
C      1  0.4783550000000  0.5463020000000  0.5077530000000 1.0
C      1  0.5078870000000  0.5223020000000  0.5187900000000 1.0
C      1  0.4991120000000  0.4276610000000  0.4511880000000 1.0
C      1  0.5784840000000  0.4721040000000  0.4633670000000 1.0
C      1  0.5560760000000  0.5315300000000  0.5774280000000 1.0
C      1  0.4378850000000  0.5418350000000  0.5448240000000 1.0
C      1  0.4883590000000  0.4059740000000  0.5312970000000 1.0
C      1  0.5119310000000  0.4836580000000  0.4429860000000 1.0
C      1  0.5097960000000  0.4241810000000  0.4836560000000 1.0
C      1  0.4938150000000  0.4567500000000  0.4327050000000 1.0
C      1  0.4924170000000  0.4931220000000  0.5280970000000 1.0
C      1  0.4456300000000  0.5518670000000  0.4534830000000 1.0
C      1  0.5361700000000  0.4639010000000  0.4180560000000 1.0
C      1  0.4947140000000  0.4425370000000  0.5080420000000 1.0
C      1  0.4630230000000  0.4618290000000  0.4462010000000 1.0
C      1  0.5153110000000  0.5477000000000  0.4472270000000 1.0
C      1  0.5511880000000  0.5368530000000  0.5509570000000 1.0
C      1  0.4401830000000  0.5028310000000  0.4433870000000 1.0
C      1  0.5431040000000  0.4485960000000  0.5363010000000 1.0
C      1  0.4722430000000  0.4648030000000  0.5042050000000 1.0
C      1  0.4645910000000  0.5789970000000  0.5301720000000 1.0
C      1  0.4795100000000  0.4950170000000  0.4903770000000 1.0
C      1  0.5188490000000  0.4720210000000  0.5317830000000 1.0
C      1  0.5414490000000  0.5103190000000  0.5905980000000 1.0
C      1  0.5327170000000  0.4605420000000  0.5729980000000 1.0
C      1  0.5344640000000  0.6033170000000  0.5193380000000 1.0
C      1  0.4108040000000  0.4468780000000  0.4831470000000 1.0
C      1  0.5670850000000  0.4460750000000  0.4820780000000 1.0
C      1  0.5417740000000  0.4873290000000  0.5728740000000 1.0
C      1  0.4854040000000  0.5235050000000  0.6068320000000 1.0
C      1  0.5504170000000  0.4383810000000  0.5673720000000 1.0
C      1  0.5714820000000  0.5492450000000  0.5071650000000 1.0
C      1  0.5760370000000  0.4905930000000  0.5405260000000 1.0
C      1  0.4629110000000  0.4284660000000  0.4889590000000 1.0
C      1  0.4511620000000  0.4896310000000  0.4721020000000 1.0
C      1  0.5368100000000  0.4976750000000  0.5434170000000 1.0
C      1  0.4425650000000  0.4541880000000  0.4928320000000 1.0
C      1  0.5143280000000  0.4841070000000  0.4090610000000 1.0
C      1  0.5435230000000  0.4281270000000  0.4866140000000 1.0
C      1  0.4323420000000  0.5269070000000  0.4639740000000 1.0
C      1  0.4983510000000  0.5126160000000  0.5711870000000 1.0
C      1  0.4830790000000  0.4645060000000  0.5766890000000 1.0
C      1  0.4756310000000  0.5429220000000  0.4477950000000 1.0
C      1  0.4805060000000  0.5584550000000  0.4760680000000 1.0
C      1  0.5147530000000  0.5191000000000  0.5491870000000 1.0
C      1  0.4455380000000  0.4870730000000  0.4202030000000 1.0
C      1  0.4986110000000  0.5051870000000  0.4641400000000 1.0
C      1  0.5451090000000  0.4764720000000  0.4681920000000 1.0
C      1  0.4407280000000  0.5641840000000  0.5273190000000 1.0
C      1  0.4133360000000  0.4780490000000  0.4796500000000 1.0
C      1  0.4281840000000  0.5101230000000  0.5492370000000 1.0
C      1  0.5309920000000  0.4192670000000  0.4575270000000 1.0
C      1  0.4374710000000  0.4333910000000  0.4664180000000 1.0
C      1  0.4521200000000  0.4430050000000  0.5417290000000 1.0
C      1  0.4566250000000  0.4651240000000  0.5671690000000 1.0
C      1  0.4526790000000  0.4693310000000  0.5278330000000 1.0
C      1  0.5293410000000  0.5700830000000  0.3971370000000 1.0
C      1  0.4687480000000  0.5897230000000  0.4707670000000 1.0
C      1  0.5152060000000  0.4602890000000  0.4674750000000 1.0
C      1  0.5591300000000  0.5159090000000  0.5253570000000 1.0
C      1  0.5368100000000  0.4236130000000  0.5175720000000 1.0
C      1  0.5418990000000  0.4916270000000  0.4952110000000 1.0
C      1  0.4952570000000  0.5339990000000  0.4238120000000 1.0
C      1  0.4974640000000  0.4353350000000  0.5382590000000 1.0
C      1  0.4754100000000  0.4807000000000  0.4170660000000 1.0
C      1  0.5183930000000  0.4043990000000  0.5243200000000 1.0
C      1  0.5015640000000  0.5920930000000  0.4793650000000 1.0
C      1  0.5428060000000  0.5238770000000  0.4965760000000 1.0
C      1  0.4352180000000  0.5565650000000  0.4987350000000 1.0
C      1  0.4413220000000  0.5231720000000  0.4965700000000 1.0
C      1  0.5118630000000  0.4962850000000  0.5007790000000 1.0
C      1  0.4923280000000  0.5604680000000  0.5353920000000 1.0
C      1  0.5146270000000  0.5167760000000  0.5988910000000 1.0
C      1  0.4156230000000  0.5014190000000  0.4917510000000 1.0
C      1  0.5148150000000  0.5770880000000  0.5068530000000 1.0
C      1  0.5241060000000  0.5688400000000  0.4689660000000 1.0
C      1  0.4662440000000  0.5154720000000  0.5796000000000 1.0
C      1  0.5979800000000  0.5453910000000  0.4880410000000 1.0
C      1  0.5183630000000  0.5296100000000  0.4735850000000 1.0
C      1  0.5235640000000  0.5496230000000  0.5433170000000 1.0
C      1  0.5190940000000  0.5814120000000  0.5403140000000 1.0
C      1  0.5883680000000  0.4929080000000  0.4884350000000 1.0
C      1  0.4334390000000  0.4655000000000  0.4559660000000 1.0
C      1  0.5776690000000  0.5570390000000  0.4689680000000 1.0
C      1  0.4102120000000  0.5349550000000  0.4894930000000 1.0
C      1  0.5179080000000  0.5565370000000  0.4151940000000 1.0
C      1  0.5686000000000  0.4657120000000  0.5294820000000 1.0
C      1  0.5472110000000  0.5552200000000  0.4840880000000 1.0
C      1  0.4821180000000  0.4486040000000  0.4693600000000 1.0
C      1  0.4682310000000  0.5148090000000  0.5156410000000 1.0
C      1  0.5863000000000  0.5183580000000  0.5050360000000 1.0
C      1  0.4645360000000  0.5261450000000  0.5475060000000 1.0
C      1  0.5674310000000  0.4715390000000  0.5009690000000 1.0
C      1  0.4456660000000  0.4924580000000  0.5687410000000 1.0
C      1  0.4926260000000  0.5066420000000  0.4126310000000 1.0
C      1  0.5197120000000  0.4588780000000  0.5004270000000 1.0
C      1  0.5049300000000  0.4563750000000  0.5585930000000 1.0
C      1  0.4442160000000  0.4947150000000  0.5288930000000 1.0
C      1  0.5104460000000  0.5467270000000  0.4998210000000 1.0
C      1  0.5446640000000  0.4944630000000  0.4421780000000 1.0
END
