TITL C-2847958-8115-422 0.00159100943479948 125000 -467.982707770883 0 0 93 (C1) n - 1
REM
REM in /home/bkarasulu/work/CARBON/AIRSS/Generating-Clusters/AIREBO/with-SteepDescent/Only-C1/SD-CG-opt/Try1-1.4A-POS3A/HFTN-CG
REM
REM
REM
REM
REM
REM ./C.cell (11c1c37f851c82e70ff6c80c92926a4b)
REM
REM compiler GCC version 9.2.1 20190827 (Red Hat 9.2.1-1)
REM options -cpp -mtune=generic -march=x86-64 -g -O0 -fpre-include=/usr/include/finclude/math-vector-fortran.h
REM seed 1565027943 -312885459 2001239176 -2000979578 -299685986 972026287 -1631694676 -2062121040 -1433186910 211941648 -2056725833 1076483137 -1214888362 65678569 -524645857 -1743563932 183542805 -1128877086 262105246 1467723661 448971977 1879086254 -536740056 -230580747 786573175 24438920 1872331956 1553490697 1746795768 2113269763 -123253961 -1286367145 73878092
REM
CELL 1.54180   50.00000   50.00000   50.00000   90.00000   90.00000   90.00000
LATT -1
SFAC C  
C      1  0.5682880000000  0.4708790000000  0.5033690000000 1.0
C      1  0.4638780000000  0.4346640000000  0.5109300000000 1.0
C      1  0.4378580000000  0.5134810000000  0.4958770000000 1.0
C      1  0.4254250000000  0.4811540000000  0.4760500000000 1.0
C      1  0.4239020000000  0.4580720000000  0.5195270000000 1.0
C      1  0.5281640000000  0.5130730000000  0.5577030000000 1.0
C      1  0.5120700000000  0.5183730000000  0.5862210000000 1.0
C      1  0.5118430000000  0.4875000000000  0.5717200000000 1.0
C      1  0.5408470000000  0.4836580000000  0.4878850000000 1.0
C      1  0.5593300000000  0.5268550000000  0.4703420000000 1.0
C      1  0.4611640000000  0.4357990000000  0.4668300000000 1.0
C      1  0.4431790000000  0.5063810000000  0.4630470000000 1.0
C      1  0.5856550000000  0.5010680000000  0.5230160000000 1.0
C      1  0.5263230000000  0.5297060000000  0.4766940000000 1.0
C      1  0.4549550000000  0.5502220000000  0.4650220000000 1.0
C      1  0.5133080000000  0.4805480000000  0.4992870000000 1.0
C      1  0.5074470000000  0.5646810000000  0.4597850000000 1.0
C      1  0.5240720000000  0.4732820000000  0.5276410000000 1.0
C      1  0.4895950000000  0.4197990000000  0.4561700000000 1.0
C      1  0.5504170000000  0.5034810000000  0.4391360000000 1.0
C      1  0.4344800000000  0.5454030000000  0.5319860000000 1.0
C      1  0.5085430000000  0.4748710000000  0.4206620000000 1.0
C      1  0.5419810000000  0.5499360000000  0.5634290000000 1.0
C      1  0.5103130000000  0.4361440000000  0.5244830000000 1.0
C      1  0.5555450000000  0.5525750000000  0.4524740000000 1.0
C      1  0.5228530000000  0.4221800000000  0.4629850000000 1.0
C      1  0.5732840000000  0.4685770000000  0.4706870000000 1.0
C      1  0.4424840000000  0.4489750000000  0.4925180000000 1.0
C      1  0.4720650000000  0.5061080000000  0.4765500000000 1.0
C      1  0.5374880000000  0.4792350000000  0.4573110000000 1.0
C      1  0.4678010000000  0.5042710000000  0.4273000000000 1.0
C      1  0.4980080000000  0.5185850000000  0.5335390000000 1.0
C      1  0.5567290000000  0.5378790000000  0.5024190000000 1.0
C      1  0.5753120000000  0.4986010000000  0.5510260000000 1.0
C      1  0.4760920000000  0.4726660000000  0.5193450000000 1.0
C      1  0.4820500000000  0.5314680000000  0.4261070000000 1.0
C      1  0.5728750000000  0.4972180000000  0.4605730000000 1.0
C      1  0.4990310000000  0.5576380000000  0.4927720000000 1.0
C      1  0.4563750000000  0.5147180000000  0.5445660000000 1.0
C      1  0.4691550000000  0.5081370000000  0.5810590000000 1.0
C      1  0.5034190000000  0.4479170000000  0.4409720000000 1.0
C      1  0.4731970000000  0.5557710000000  0.5231120000000 1.0
C      1  0.4294800000000  0.4857930000000  0.5385290000000 1.0
C      1  0.4566160000000  0.4799560000000  0.4284560000000 1.0
C      1  0.5131220000000  0.5544210000000  0.5235600000000 1.0
C      1  0.4337760000000  0.5450240000000  0.4856660000000 1.0
C      1  0.4776100000000  0.5741340000000  0.4721140000000 1.0
C      1  0.4365070000000  0.5617160000000  0.5086250000000 1.0
C      1  0.5649550000000  0.5307810000000  0.5472220000000 1.0
C      1  0.5304280000000  0.4408180000000  0.4974650000000 1.0
C      1  0.5819000000000  0.5473670000000  0.5232170000000 1.0
C      1  0.4215290000000  0.5162260000000  0.5255750000000 1.0
C      1  0.4618340000000  0.5466060000000  0.5522070000000 1.0
C      1  0.5666020000000  0.4659720000000  0.5557100000000 1.0
C      1  0.4789650000000  0.4581130000000  0.4212680000000 1.0
C      1  0.4822700000000  0.4844920000000  0.5632220000000 1.0
C      1  0.5373940000000  0.5705540000000  0.4685640000000 1.0
C      1  0.5066850000000  0.4496740000000  0.4747840000000 1.0
C      1  0.5205100000000  0.5843430000000  0.5131860000000 1.0
C      1  0.5131190000000  0.5070870000000  0.4117880000000 1.0
C      1  0.5360730000000  0.5299960000000  0.5292880000000 1.0
C      1  0.5059280000000  0.5260840000000  0.4497250000000 1.0
C      1  0.4633470000000  0.5792150000000  0.5013130000000 1.0
C      1  0.5197620000000  0.4575190000000  0.5697700000000 1.0
C      1  0.4295000000000  0.4310020000000  0.4593490000000 1.0
C      1  0.5100290000000  0.4931350000000  0.4489830000000 1.0
C      1  0.4150890000000  0.4531260000000  0.4728030000000 1.0
C      1  0.4897660000000  0.4343500000000  0.5000320000000 1.0
C      1  0.5269420000000  0.5493010000000  0.4364650000000 1.0
C      1  0.5630630000000  0.5044740000000  0.5030650000000 1.0
C      1  0.4970440000000  0.4606590000000  0.5439790000000 1.0
C      1  0.5144500000000  0.5508550000000  0.5556430000000 1.0
C      1  0.4495020000000  0.4814710000000  0.5000570000000 1.0
C      1  0.5494240000000  0.4275170000000  0.5192480000000 1.0
C      1  0.4419890000000  0.4988780000000  0.5673100000000 1.0
C      1  0.5403350000000  0.5671620000000  0.4963470000000 1.0
C      1  0.4889970000000  0.5299260000000  0.5640640000000 1.0
C      1  0.4894220000000  0.5855600000000  0.5197150000000 1.0
C      1  0.4580180000000  0.4690720000000  0.5464090000000 1.0
C      1  0.5161670000000  0.5201200000000  0.5035480000000 1.0
C      1  0.4636740000000  0.4393490000000  0.5383330000000 1.0
C      1  0.5540770000000  0.4565770000000  0.5263580000000 1.0
C      1  0.4893690000000  0.4282270000000  0.5507760000000 1.0
C      1  0.5433950000000  0.4886920000000  0.5472220000000 1.0
C      1  0.4919590000000  0.4802480000000  0.4726830000000 1.0
C      1  0.5459060000000  0.4509420000000  0.5747290000000 1.0
C      1  0.4516380000000  0.5306850000000  0.4407920000000 1.0
C      1  0.4876510000000  0.5017780000000  0.5061500000000 1.0
C      1  0.4691810000000  0.4629630000000  0.4542180000000 1.0
C      1  0.5457800000000  0.4480000000000  0.4679550000000 1.0
C      1  0.4634480000000  0.5241290000000  0.5145610000000 1.0
C      1  0.4840220000000  0.5349730000000  0.4727110000000 1.0
C      1  0.5349450000000  0.5193830000000  0.4231150000000 1.0
END
