TITL C-2848500-1637-456 0.00151839152371913 125000 -723.823426406889 0 0 132 (C1) n - 1
REM
REM in /home/bkarasulu/work/CARBON/AIRSS/Generating-Clusters/AIREBO/with-SteepDescent/Only-C1/SD-CG-opt/Try1-1.4A-POS3A/HFTN-CG
REM
REM
REM
REM
REM
REM ./C.cell (11c1c37f851c82e70ff6c80c92926a4b)
REM
REM compiler GCC version 9.2.1 20190827 (Red Hat 9.2.1-1)
REM options -cpp -mtune=generic -march=x86-64 -g -O0 -fpre-include=/usr/include/finclude/math-vector-fortran.h
REM seed 1564967317 278309126 -1292366806 -1187154233 1825989279 -505603029 -1456342807 -347043555 945564261 1395047581 -816549829 -849504781 1091080417 -2107491266 -1609473692 1302424218 2034584427 -502256951 1667537166 756655810 -1190004772 3259403 1381817455 -1641641386 -1228275567 -863315162 597543680 -1575141217 -1966335642 -2043904277 -972263174 -1222758574 1817750378
REM
CELL 1.54180   50.00000   50.00000   50.00000   90.00000   90.00000   90.00000
LATT -1
SFAC C  
C      1  0.4234600000000  0.4923920000000  0.5477410000000 1.0
C      1  0.4220350000000  0.5484160000000  0.4862650000000 1.0
C      1  0.4876650000000  0.5796430000000  0.5614590000000 1.0
C      1  0.4564410000000  0.5691500000000  0.4447850000000 1.0
C      1  0.5791920000000  0.5468740000000  0.5000210000000 1.0
C      1  0.5728230000000  0.4913080000000  0.5501440000000 1.0
C      1  0.5016050000000  0.3939660000000  0.5374560000000 1.0
C      1  0.4675800000000  0.4729860000000  0.4791310000000 1.0
C      1  0.4980430000000  0.5523390000000  0.4578840000000 1.0
C      1  0.4565460000000  0.4351140000000  0.4624650000000 1.0
C      1  0.4119640000000  0.4710790000000  0.4596480000000 1.0
C      1  0.4650220000000  0.4903550000000  0.5792630000000 1.0
C      1  0.5124650000000  0.5720480000000  0.5424180000000 1.0
C      1  0.5136040000000  0.4440900000000  0.5761690000000 1.0
C      1  0.4511290000000  0.4294160000000  0.4121230000000 1.0
C      1  0.5514520000000  0.4427430000000  0.4499890000000 1.0
C      1  0.4585330000000  0.5320590000000  0.5352290000000 1.0
C      1  0.4984730000000  0.5130520000000  0.4060160000000 1.0
C      1  0.4354770000000  0.5027750000000  0.5754930000000 1.0
C      1  0.5737150000000  0.4622810000000  0.5464510000000 1.0
C      1  0.5429330000000  0.4152210000000  0.4962130000000 1.0
C      1  0.5374330000000  0.4614000000000  0.5627810000000 1.0
C      1  0.5847880000000  0.4956020000000  0.4509750000000 1.0
C      1  0.5226040000000  0.4721070000000  0.4835220000000 1.0
C      1  0.4700280000000  0.5372720000000  0.4645470000000 1.0
C      1  0.4565520000000  0.5551710000000  0.5565210000000 1.0
C      1  0.4583610000000  0.5204240000000  0.5937960000000 1.0
C      1  0.5308290000000  0.4274600000000  0.4277880000000 1.0
C      1  0.4553980000000  0.4823800000000  0.5414250000000 1.0
C      1  0.5479760000000  0.4506410000000  0.5322790000000 1.0
C      1  0.5377950000000  0.4846440000000  0.4558970000000 1.0
C      1  0.5410280000000  0.5252010000000  0.5920620000000 1.0
C      1  0.5832930000000  0.5169580000000  0.4947370000000 1.0
C      1  0.5199180000000  0.5339190000000  0.4151480000000 1.0
C      1  0.4955100000000  0.4547930000000  0.4851810000000 1.0
C      1  0.4498840000000  0.5261780000000  0.4204180000000 1.0
C      1  0.4558550000000  0.4542480000000  0.5223350000000 1.0
C      1  0.5665150000000  0.5819210000000  0.5137250000000 1.0
C      1  0.4595270000000  0.4480110000000  0.4327740000000 1.0
C      1  0.5095580000000  0.5318010000000  0.6034110000000 1.0
C      1  0.5021490000000  0.4288420000000  0.4663980000000 1.0
C      1  0.4972130000000  0.4743780000000  0.5454430000000 1.0
C      1  0.4975610000000  0.4943360000000  0.5212850000000 1.0
C      1  0.5229690000000  0.4336170000000  0.5230200000000 1.0
C      1  0.4119490000000  0.5155020000000  0.5302490000000 1.0
C      1  0.5150560000000  0.4045320000000  0.5099590000000 1.0
C      1  0.4843130000000  0.4127110000000  0.5480310000000 1.0
C      1  0.5281550000000  0.4833530000000  0.5870300000000 1.0
C      1  0.4228230000000  0.4740700000000  0.4854360000000 1.0
C      1  0.4640560000000  0.4328620000000  0.5586830000000 1.0
C      1  0.5436070000000  0.4957620000000  0.4278090000000 1.0
C      1  0.5988080000000  0.4889850000000  0.4936830000000 1.0
C      1  0.4116400000000  0.4431440000000  0.5506180000000 1.0
C      1  0.4401580000000  0.5528850000000  0.4658060000000 1.0
C      1  0.4056150000000  0.4674040000000  0.5507900000000 1.0
C      1  0.4839070000000  0.5395340000000  0.5019270000000 1.0
C      1  0.4531510000000  0.5299410000000  0.5029550000000 1.0
C      1  0.5417810000000  0.5602480000000  0.5499390000000 1.0
C      1  0.4908860000000  0.4596060000000  0.4264240000000 1.0
C      1  0.4365000000000  0.5035780000000  0.4893500000000 1.0
C      1  0.4596380000000  0.4835950000000  0.4201870000000 1.0
C      1  0.4858930000000  0.4753770000000  0.6004120000000 1.0
C      1  0.4450930000000  0.4511560000000  0.4901840000000 1.0
C      1  0.4711380000000  0.4618730000000  0.5635170000000 1.0
C      1  0.5262920000000  0.5245750000000  0.4888310000000 1.0
C      1  0.5215150000000  0.5525690000000  0.5040330000000 1.0
C      1  0.4359750000000  0.4711040000000  0.4392780000000 1.0
C      1  0.4351710000000  0.5567550000000  0.5142250000000 1.0
C      1  0.5357220000000  0.4761170000000  0.4096600000000 1.0
C      1  0.5041540000000  0.4324760000000  0.4364170000000 1.0
C      1  0.5316700000000  0.4402860000000  0.4764010000000 1.0
C      1  0.5594060000000  0.3921430000000  0.4852630000000 1.0
C      1  0.5289450000000  0.5583580000000  0.4652250000000 1.0
C      1  0.4734950000000  0.5325230000000  0.4004260000000 1.0
C      1  0.5708470000000  0.4518420000000  0.4731240000000 1.0
C      1  0.4934180000000  0.4061930000000  0.4879430000000 1.0
C      1  0.5526840000000  0.5186830000000  0.5094430000000 1.0
C      1  0.5070920000000  0.5171240000000  0.5525850000000 1.0
C      1  0.4616910000000  0.5140140000000  0.4460170000000 1.0
C      1  0.5272650000000  0.4901540000000  0.5477270000000 1.0
C      1  0.4383030000000  0.4321090000000  0.5414570000000 1.0
C      1  0.5674260000000  0.5229380000000  0.5394650000000 1.0
C      1  0.4891500000000  0.5897830000000  0.5153570000000 1.0
C      1  0.4842270000000  0.4988000000000  0.4304380000000 1.0
C      1  0.4141530000000  0.5215820000000  0.5014770000000 1.0
C      1  0.5900420000000  0.5172130000000  0.4357230000000 1.0
C      1  0.5139380000000  0.6001270000000  0.5251320000000 1.0
C      1  0.5433140000000  0.5225720000000  0.4229300000000 1.0
C      1  0.5310670000000  0.6046620000000  0.5045140000000 1.0
C      1  0.5083080000000  0.5039330000000  0.5839050000000 1.0
C      1  0.4484490000000  0.4922340000000  0.4608760000000 1.0
C      1  0.4692650000000  0.4171650000000  0.5069220000000 1.0
C      1  0.4255410000000  0.5393250000000  0.5390890000000 1.0
C      1  0.5073660000000  0.5875270000000  0.4425970000000 1.0
C      1  0.4903400000000  0.4915660000000  0.4703250000000 1.0
C      1  0.5917640000000  0.4752010000000  0.4708900000000 1.0
C      1  0.4586680000000  0.5566480000000  0.4194410000000 1.0
C      1  0.5651870000000  0.5538810000000  0.5303910000000 1.0
C      1  0.4997910000000  0.4531100000000  0.5974930000000 1.0
C      1  0.4427770000000  0.4172740000000  0.5146820000000 1.0
C      1  0.5124630000000  0.5569110000000  0.4287060000000 1.0
C      1  0.4237430000000  0.4250270000000  0.4944170000000 1.0
C      1  0.5161520000000  0.4951630000000  0.5020430000000 1.0
C      1  0.4941780000000  0.5191520000000  0.4790240000000 1.0
C      1  0.4872830000000  0.4439120000000  0.5144720000000 1.0
C      1  0.5065500000000  0.4818670000000  0.4467990000000 1.0
C      1  0.5689330000000  0.5624120000000  0.4784340000000 1.0
C      1  0.5487660000000  0.5101350000000  0.5649080000000 1.0
C      1  0.5006950000000  0.4418510000000  0.5456500000000 1.0
C      1  0.5417480000000  0.5763880000000  0.4910820000000 1.0
C      1  0.4758110000000  0.5080290000000  0.5428070000000 1.0
C      1  0.5040780000000  0.5417960000000  0.5293540000000 1.0
C      1  0.5471330000000  0.4514520000000  0.4170290000000 1.0
C      1  0.4504250000000  0.5828500000000  0.5162230000000 1.0
C      1  0.5609660000000  0.5010020000000  0.4746470000000 1.0
C      1  0.4853010000000  0.5084660000000  0.6082160000000 1.0
C      1  0.5076140000000  0.4799230000000  0.4048600000000 1.0
C      1  0.5402060000000  0.5814530000000  0.4435500000000 1.0
C      1  0.5246620000000  0.5417890000000  0.5680450000000 1.0
C      1  0.4953670000000  0.5696750000000  0.4936830000000 1.0
C      1  0.4976790000000  0.5544220000000  0.5819880000000 1.0
C      1  0.5474550000000  0.5298720000000  0.4627480000000 1.0
C      1  0.4667240000000  0.5476380000000  0.5814690000000 1.0
C      1  0.5666410000000  0.5373720000000  0.4356820000000 1.0
C      1  0.4591890000000  0.5906940000000  0.4890640000000 1.0
C      1  0.5610320000000  0.4412440000000  0.5034290000000 1.0
C      1  0.4669980000000  0.4099990000000  0.4677240000000 1.0
C      1  0.5515370000000  0.4898760000000  0.5236670000000 1.0
C      1  0.4811420000000  0.5809940000000  0.4649420000000 1.0
C      1  0.4616350000000  0.5821470000000  0.5438860000000 1.0
C      1  0.5655750000000  0.5644910000000  0.4507110000000 1.0
C      1  0.5608320000000  0.4747040000000  0.4962160000000 1.0
END
