TITL C-2848499-1157-612 -1.46830702667241 125000 -701.385999621356 0 0 137 (C1) n - 1
REM
REM in /home/bkarasulu/work/CARBON/AIRSS/Generating-Clusters/AIREBO/with-SteepDescent/Only-C1/SD-CG-opt/Try1-1.4A-POS3A/HFTN-CG
REM
REM
REM
REM
REM
REM ./C.cell (11c1c37f851c82e70ff6c80c92926a4b)
REM
REM compiler GCC version 9.2.1 20190827 (Red Hat 9.2.1-1)
REM options -cpp -mtune=generic -march=x86-64 -g -O0 -fpre-include=/usr/include/finclude/math-vector-fortran.h
REM seed -2034748035 1287844103 211500069 -1427268541 1342899894 1562781400 248847105 959157978 771067335 245326855 -1601460312 -1925426588 -1021853883 -1045380296 1484457585 -1004676101 -1828274624 1492596944 -1175732061 1131531035 1700333977 -1597920819 1016739848 429173924 -1692898685 721226241 -828269731 124669072 1353509009 1153179456 569785642 -1833754319 -162332342
REM
CELL 1.54180   50.00000   50.00000   50.00000   90.00000   90.00000   90.00000
LATT -1
SFAC C  
C      1  0.4848720000000  0.5162090000000  0.4383340000000 1.0
C      1  0.5370200000000  0.4544670000000  0.4289100000000 1.0
C      1  0.5589760000000  0.5298730000000  0.4169740000000 1.0
C      1  0.4377120000000  0.4424980000000  0.4706370000000 1.0
C      1  0.5489490000000  0.4641350000000  0.5275060000000 1.0
C      1  0.5408560000000  0.4127690000000  0.4606310000000 1.0
C      1  0.4828620000000  0.5312110000000  0.5986510000000 1.0
C      1  0.4290350000000  0.5198510000000  0.4471720000000 1.0
C      1  0.5772910000000  0.4980140000000  0.4399740000000 1.0
C      1  0.4544650000000  0.4274890000000  0.5645250000000 1.0
C      1  0.5713660000000  0.5561630000000  0.5278400000000 1.0
C      1  0.5298960000000  0.4998640000000  0.5078330000000 1.0
C      1  0.4248640000000  0.4690380000000  0.4555320000000 1.0
C      1  0.4685730000000  0.5187500000000  0.5025470000000 1.0
C      1  0.5139900000000  0.5067390000000  0.3899630000000 1.0
C      1  0.4974290000000  0.5893200000000  0.5064030000000 1.0
C      1  0.5730660000000  0.5043690000000  0.5454670000000 1.0
C      1  0.4900060000000  0.5606400000000  0.5818480000000 1.0
C      1  0.5178800000000  0.5171890000000  0.4809830000000 1.0
C      1  0.4253330000000  0.4778080000000  0.5572930000000 1.0
C      1  0.5772960000000  0.5525670000000  0.4464610000000 1.0
C      1  0.4869160000000  0.4916810000000  0.4019870000000 1.0
C      1  0.4668780000000  0.4484340000000  0.4870780000000 1.0
C      1  0.4441010000000  0.5030280000000  0.4725940000000 1.0
C      1  0.4983480000000  0.5258210000000  0.5442920000000 1.0
C      1  0.4855100000000  0.5256160000000  0.3969470000000 1.0
C      1  0.5854690000000  0.4587830000000  0.4660960000000 1.0
C      1  0.4430820000000  0.4154850000000  0.4837060000000 1.0
C      1  0.4589860000000  0.5467170000000  0.5823140000000 1.0
C      1  0.5154700000000  0.5757530000000  0.4557670000000 1.0
C      1  0.5117580000000  0.4015200000000  0.5441910000000 1.0
C      1  0.4505070000000  0.5851220000000  0.5171310000000 1.0
C      1  0.5801710000000  0.4500700000000  0.5406010000000 1.0
C      1  0.5835260000000  0.5517900000000  0.5033730000000 1.0
C      1  0.4626940000000  0.5148320000000  0.5585240000000 1.0
C      1  0.4169730000000  0.5389820000000  0.5555640000000 1.0
C      1  0.5650600000000  0.5554940000000  0.4775860000000 1.0
C      1  0.4990730000000  0.4561630000000  0.4793070000000 1.0
C      1  0.5305830000000  0.5229320000000  0.5332300000000 1.0
C      1  0.4980460000000  0.4233700000000  0.4688670000000 1.0
C      1  0.4587980000000  0.5108430000000  0.4226120000000 1.0
C      1  0.5424400000000  0.5595690000000  0.4426020000000 1.0
C      1  0.4622430000000  0.4821040000000  0.4880440000000 1.0
C      1  0.5204180000000  0.4283960000000  0.4437100000000 1.0
C      1  0.4274690000000  0.4206170000000  0.5085220000000 1.0
C      1  0.4520080000000  0.4879670000000  0.5427180000000 1.0
C      1  0.5259720000000  0.4363580000000  0.5769960000000 1.0
C      1  0.5322330000000  0.4752200000000  0.5486420000000 1.0
C      1  0.5076130000000  0.4742260000000  0.5059290000000 1.0
C      1  0.5697720000000  0.5219500000000  0.4805800000000 1.0
C      1  0.5027190000000  0.5843100000000  0.5396170000000 1.0
C      1  0.5476440000000  0.5772370000000  0.5246320000000 1.0
C      1  0.5419540000000  0.4651800000000  0.5772010000000 1.0
C      1  0.5337300000000  0.5506920000000  0.5144200000000 1.0
C      1  0.5144040000000  0.4247050000000  0.4986790000000 1.0
C      1  0.4678950000000  0.5880100000000  0.4933080000000 1.0
C      1  0.4943460000000  0.5589850000000  0.4860480000000 1.0
C      1  0.4919560000000  0.4986460000000  0.4881770000000 1.0
C      1  0.5004870000000  0.4915740000000  0.4405640000000 1.0
C      1  0.5267700000000  0.5077230000000  0.4522200000000 1.0
C      1  0.4181700000000  0.5239360000000  0.4794180000000 1.0
C      1  0.4298620000000  0.5403020000000  0.5266800000000 1.0
C      1  0.5350650000000  0.5418750000000  0.5611350000000 1.0
C      1  0.5601790000000  0.4338840000000  0.5183630000000 1.0
C      1  0.4704630000000  0.5439130000000  0.5514690000000 1.0
C      1  0.4742830000000  0.4725780000000  0.5633010000000 1.0
C      1  0.4741500000000  0.4541860000000  0.4069050000000 1.0
C      1  0.4703250000000  0.4741890000000  0.5201100000000 1.0
C      1  0.5142610000000  0.5382080000000  0.5864060000000 1.0
C      1  0.4850290000000  0.4713080000000  0.4547320000000 1.0
C      1  0.4820760000000  0.4393610000000  0.4434580000000 1.0
C      1  0.5011520000000  0.4415500000000  0.4181250000000 1.0
C      1  0.4732990000000  0.4989880000000  0.5932920000000 1.0
C      1  0.6040930000000  0.5313500000000  0.5021680000000 1.0
C      1  0.5052480000000  0.4459560000000  0.5247140000000 1.0
C      1  0.5702890000000  0.4739210000000  0.5605550000000 1.0
C      1  0.5705860000000  0.4892180000000  0.4714150000000 1.0
C      1  0.4335810000000  0.4696680000000  0.4995840000000 1.0
C      1  0.5404300000000  0.5756940000000  0.4788550000000 1.0
C      1  0.5338740000000  0.5078250000000  0.4187510000000 1.0
C      1  0.4269210000000  0.5498810000000  0.4941840000000 1.0
C      1  0.5411340000000  0.4824470000000  0.4624870000000 1.0
C      1  0.5025260000000  0.5005390000000  0.5647640000000 1.0
C      1  0.5064860000000  0.4304110000000  0.5549490000000 1.0
C      1  0.4560710000000  0.4566910000000  0.4490370000000 1.0
C      1  0.5236280000000  0.5470870000000  0.4856900000000 1.0
C      1  0.4292280000000  0.4467400000000  0.5599120000000 1.0
C      1  0.5667100000000  0.4543260000000  0.4919870000000 1.0
C      1  0.4797190000000  0.4087860000000  0.5102960000000 1.0
C      1  0.4793510000000  0.5468360000000  0.5127150000000 1.0
C      1  0.5117590000000  0.4738350000000  0.4169000000000 1.0
C      1  0.5428340000000  0.5027320000000  0.5575400000000 1.0
C      1  0.5654410000000  0.5365100000000  0.5472640000000 1.0
C      1  0.5402560000000  0.6004670000000  0.4930690000000 1.0
C      1  0.4419640000000  0.4983800000000  0.5798740000000 1.0
C      1  0.5143380000000  0.5342410000000  0.4099600000000 1.0
C      1  0.4546730000000  0.5592300000000  0.5286870000000 1.0
C      1  0.4785140000000  0.5460110000000  0.4232530000000 1.0
C      1  0.4155090000000  0.4977070000000  0.5009100000000 1.0
C      1  0.5058420000000  0.5549700000000  0.5284700000000 1.0
C      1  0.5059960000000  0.3994520000000  0.5179220000000 1.0
C      1  0.5585160000000  0.4478310000000  0.4534210000000 1.0
C      1  0.4513760000000  0.5643970000000  0.4752440000000 1.0
C      1  0.4851140000000  0.5828360000000  0.4644460000000 1.0
C      1  0.5546190000000  0.4832230000000  0.4242320000000 1.0
C      1  0.4168870000000  0.4489320000000  0.5115850000000 1.0
C      1  0.4370830000000  0.4889660000000  0.4352540000000 1.0
C      1  0.5483390000000  0.5712770000000  0.5567310000000 1.0
C      1  0.5878890000000  0.4735630000000  0.5199340000000 1.0
C      1  0.5605470000000  0.4856440000000  0.5037150000000 1.0
C      1  0.4720640000000  0.4402320000000  0.5198740000000 1.0
C      1  0.4848590000000  0.5037150000000  0.5266970000000 1.0
C      1  0.5446150000000  0.4289130000000  0.4872370000000 1.0
C      1  0.4791490000000  0.4403700000000  0.5661830000000 1.0
C      1  0.5140230000000  0.4586730000000  0.5963850000000 1.0
C      1  0.5777870000000  0.5134330000000  0.5130320000000 1.0
C      1  0.5305950000000  0.4554590000000  0.4712670000000 1.0
C      1  0.4648460000000  0.5691550000000  0.4441070000000 1.0
C      1  0.4571120000000  0.4796200000000  0.4092510000000 1.0
C      1  0.4860110000000  0.4674500000000  0.5946960000000 1.0
C      1  0.4405490000000  0.5105500000000  0.5199900000000 1.0
C      1  0.5014090000000  0.4728240000000  0.5452150000000 1.0
C      1  0.4437640000000  0.4299170000000  0.5339990000000 1.0
C      1  0.4073730000000  0.4769250000000  0.5283750000000 1.0
C      1  0.4706110000000  0.4084820000000  0.4831570000000 1.0
C      1  0.5347620000000  0.5110810000000  0.5856800000000 1.0
C      1  0.4570200000000  0.5324240000000  0.4751710000000 1.0
C      1  0.5104260000000  0.5517870000000  0.4341940000000 1.0
C      1  0.5072050000000  0.5001270000000  0.5956980000000 1.0
C      1  0.5536600000000  0.5284620000000  0.4505360000000 1.0
C      1  0.4448000000000  0.5395530000000  0.4243640000000 1.0
C      1  0.5261980000000  0.6003620000000  0.5207720000000 1.0
C      1  0.4319700000000  0.5309120000000  0.5778990000000 1.0
C      1  0.4050330000000  0.4805530000000  0.4734730000000 1.0
C      1  0.4961220000000  0.5840630000000  0.5674150000000 1.0
C      1  0.5912520000000  0.5225290000000  0.4386550000000 1.0
C      1  0.4853430000000  0.5357030000000  0.4629490000000 1.0
END
