TITL C-2847958-8115-144 0.00100987803068942 125000 -991.141927890961 0 0 182 (C1) n - 1
REM
REM in /home/bkarasulu/work/CARBON/AIRSS/Generating-Clusters/AIREBO/with-SteepDescent/Only-C1/SD-CG-opt/Try1-1.4A-POS3A/HFTN-CG
REM
REM
REM
REM
REM
REM ./C.cell (11c1c37f851c82e70ff6c80c92926a4b)
REM
REM compiler GCC version 9.2.1 20190827 (Red Hat 9.2.1-1)
REM options -cpp -mtune=generic -march=x86-64 -g -O0 -fpre-include=/usr/include/finclude/math-vector-fortran.h
REM seed -867621453 -1314294108 -1384421240 -1209871808 -145019537 948322286 -2023613963 -1716829061 1499094975 -319572580 86484270 724841204 224044723 2002475401 1409155846 -1835274021 2046266617 683500915 841794380 -366325844 -1410344382 671772281 1692225522 -376284174 509588480 942346622 1532823206 381651599 658221373 -238698064 1882528516 -1946708473 -1336910777
REM
CELL 1.54180   50.00000   50.00000   50.00000   90.00000   90.00000   90.00000
LATT -1
SFAC C  
C      1  0.4429780000000  0.5111260000000  0.4813020000000 1.0
C      1  0.5085440000000  0.5054420000000  0.5749860000000 1.0
C      1  0.4555640000000  0.6180130000000  0.5030800000000 1.0
C      1  0.5249870000000  0.4221760000000  0.4468840000000 1.0
C      1  0.5058310000000  0.4715040000000  0.6134200000000 1.0
C      1  0.5724090000000  0.5216860000000  0.5178060000000 1.0
C      1  0.4742470000000  0.5075610000000  0.3970300000000 1.0
C      1  0.4961330000000  0.5087420000000  0.4598930000000 1.0
C      1  0.5804300000000  0.4651150000000  0.5002660000000 1.0
C      1  0.4959820000000  0.4445810000000  0.5169710000000 1.0
C      1  0.4439400000000  0.5586970000000  0.5691510000000 1.0
C      1  0.4882750000000  0.4457880000000  0.5941880000000 1.0
C      1  0.4846100000000  0.4722660000000  0.5340310000000 1.0
C      1  0.5253280000000  0.5623860000000  0.4093850000000 1.0
C      1  0.5524340000000  0.4685560000000  0.4375260000000 1.0
C      1  0.5322510000000  0.4303540000000  0.5933390000000 1.0
C      1  0.5235340000000  0.4958000000000  0.4516690000000 1.0
C      1  0.4582740000000  0.5296770000000  0.5334740000000 1.0
C      1  0.5535320000000  0.4613290000000  0.4054180000000 1.0
C      1  0.4226200000000  0.4653800000000  0.5432550000000 1.0
C      1  0.4879510000000  0.4942550000000  0.5092380000000 1.0
C      1  0.5031600000000  0.5361250000000  0.4703170000000 1.0
C      1  0.4535690000000  0.4028750000000  0.4603210000000 1.0
C      1  0.5829510000000  0.5194760000000  0.4749210000000 1.0
C      1  0.4948800000000  0.5088500000000  0.5461250000000 1.0
C      1  0.5525320000000  0.5456000000000  0.4179760000000 1.0
C      1  0.4358520000000  0.4624240000000  0.4482400000000 1.0
C      1  0.4294280000000  0.5818770000000  0.4794120000000 1.0
C      1  0.5070250000000  0.4236100000000  0.5847390000000 1.0
C      1  0.4678510000000  0.5087700000000  0.5960370000000 1.0
C      1  0.4098050000000  0.5246700000000  0.5538910000000 1.0
C      1  0.4393950000000  0.5844890000000  0.5474680000000 1.0
C      1  0.3974530000000  0.4894850000000  0.4811830000000 1.0
C      1  0.6136100000000  0.5096480000000  0.5242230000000 1.0
C      1  0.4537460000000  0.4301320000000  0.4750840000000 1.0
C      1  0.5447060000000  0.5443560000000  0.4510420000000 1.0
C      1  0.5148510000000  0.5843460000000  0.5583660000000 1.0
C      1  0.4114250000000  0.5246060000000  0.4450640000000 1.0
C      1  0.4634170000000  0.5409320000000  0.4518000000000 1.0
C      1  0.5686960000000  0.5664260000000  0.5026850000000 1.0
C      1  0.5104120000000  0.4763970000000  0.5808840000000 1.0
C      1  0.4623960000000  0.4854300000000  0.4922070000000 1.0
C      1  0.4502710000000  0.4904010000000  0.5734640000000 1.0
C      1  0.4686340000000  0.5537320000000  0.4143140000000 1.0
C      1  0.4363410000000  0.5365890000000  0.4316880000000 1.0
C      1  0.5228410000000  0.5141410000000  0.5186470000000 1.0
C      1  0.4631260000000  0.4972510000000  0.5424880000000 1.0
C      1  0.5686770000000  0.5502350000000  0.4721820000000 1.0
C      1  0.4882100000000  0.4777510000000  0.4714470000000 1.0
C      1  0.4180300000000  0.5047960000000  0.5035180000000 1.0
C      1  0.3884270000000  0.4797970000000  0.5125130000000 1.0
C      1  0.5082930000000  0.5855480000000  0.4545300000000 1.0
C      1  0.4510980000000  0.5280300000000  0.4034430000000 1.0
C      1  0.5322670000000  0.5059230000000  0.4807250000000 1.0
C      1  0.5742330000000  0.4877220000000  0.4110150000000 1.0
C      1  0.4470340000000  0.4597000000000  0.5010250000000 1.0
C      1  0.4029670000000  0.4978220000000  0.4508620000000 1.0
C      1  0.5246270000000  0.5044470000000  0.4055980000000 1.0
C      1  0.4896910000000  0.4700980000000  0.4383330000000 1.0
C      1  0.4816670000000  0.4446680000000  0.4758570000000 1.0
C      1  0.5555450000000  0.5144480000000  0.4077300000000 1.0
C      1  0.5728840000000  0.4550320000000  0.5746600000000 1.0
C      1  0.5918490000000  0.5409720000000  0.5356120000000 1.0
C      1  0.4596450000000  0.4585590000000  0.5816860000000 1.0
C      1  0.5681600000000  0.4921920000000  0.5133170000000 1.0
C      1  0.4383170000000  0.4268680000000  0.5025640000000 1.0
C      1  0.5998110000000  0.4723370000000  0.5272570000000 1.0
C      1  0.5879090000000  0.5265300000000  0.5661480000000 1.0
C      1  0.5251170000000  0.4461800000000  0.4994780000000 1.0
C      1  0.4816100000000  0.6147700000000  0.4945820000000 1.0
C      1  0.5547630000000  0.4300760000000  0.5603070000000 1.0
C      1  0.4989420000000  0.5476820000000  0.4182910000000 1.0
C      1  0.5758500000000  0.5149490000000  0.4419760000000 1.0
C      1  0.5375670000000  0.5694580000000  0.4894950000000 1.0
C      1  0.4573680000000  0.5697860000000  0.4365150000000 1.0
C      1  0.5384050000000  0.4810650000000  0.6089550000000 1.0
C      1  0.5664270000000  0.4140650000000  0.5121500000000 1.0
C      1  0.5638910000000  0.5177120000000  0.5866370000000 1.0
C      1  0.5401340000000  0.4599380000000  0.5823700000000 1.0
C      1  0.4890530000000  0.6027990000000  0.5502540000000 1.0
C      1  0.5145970000000  0.5383000000000  0.5812950000000 1.0
C      1  0.4145730000000  0.4653880000000  0.4953620000000 1.0
C      1  0.4070680000000  0.4259730000000  0.4931310000000 1.0
C      1  0.6033260000000  0.4998240000000  0.4560830000000 1.0
C      1  0.4946320000000  0.4568220000000  0.5626610000000 1.0
C      1  0.5909010000000  0.4985820000000  0.5469940000000 1.0
C      1  0.5338320000000  0.5444650000000  0.5425940000000 1.0
C      1  0.5919510000000  0.4740940000000  0.5705710000000 1.0
C      1  0.5404340000000  0.4342270000000  0.4215190000000 1.0
C      1  0.5130130000000  0.5551050000000  0.4466690000000 1.0
C      1  0.4471410000000  0.5860920000000  0.4588170000000 1.0
C      1  0.4279910000000  0.4180570000000  0.5400770000000 1.0
C      1  0.4204880000000  0.4740000000000  0.5728840000000 1.0
C      1  0.4006210000000  0.5532930000000  0.5052990000000 1.0
C      1  0.4918310000000  0.6120350000000  0.4668270000000 1.0
C      1  0.5201620000000  0.5666890000000  0.5853260000000 1.0
C      1  0.5216700000000  0.4646300000000  0.4485150000000 1.0
C      1  0.6013950000000  0.5719380000000  0.4803620000000 1.0
C      1  0.5633870000000  0.4121380000000  0.4790270000000 1.0
C      1  0.5814400000000  0.5595830000000  0.5599680000000 1.0
C      1  0.5558310000000  0.5019020000000  0.6072260000000 1.0
C      1  0.5209600000000  0.4066040000000  0.4956910000000 1.0
C      1  0.5173500000000  0.4453250000000  0.4056590000000 1.0
C      1  0.5139340000000  0.4843350000000  0.4932950000000 1.0
C      1  0.4729920000000  0.5112710000000  0.4385650000000 1.0
C      1  0.4240370000000  0.4462400000000  0.4712590000000 1.0
C      1  0.5439980000000  0.5133090000000  0.4393300000000 1.0
C      1  0.4469950000000  0.4073540000000  0.4330480000000 1.0
C      1  0.4178570000000  0.5581070000000  0.5493480000000 1.0
C      1  0.5854350000000  0.4761620000000  0.4411740000000 1.0
C      1  0.5724530000000  0.5836030000000  0.4668500000000 1.0
C      1  0.5356830000000  0.4079840000000  0.5191680000000 1.0
C      1  0.5717040000000  0.4398190000000  0.4710180000000 1.0
C      1  0.5292400000000  0.4156230000000  0.5447380000000 1.0
C      1  0.4508370000000  0.4498370000000  0.5323520000000 1.0
C      1  0.4985090000000  0.5162560000000  0.4165400000000 1.0
C      1  0.4735600000000  0.4223600000000  0.4204520000000 1.0
C      1  0.5236320000000  0.4743560000000  0.3957330000000 1.0
C      1  0.4734520000000  0.3982230000000  0.5156900000000 1.0
C      1  0.4919340000000  0.5595510000000  0.5105920000000 1.0
C      1  0.6190660000000  0.4676880000000  0.4995890000000 1.0
C      1  0.5771380000000  0.5988160000000  0.4968960000000 1.0
C      1  0.5046320000000  0.4181180000000  0.5573350000000 1.0
C      1  0.5044400000000  0.5565990000000  0.5416900000000 1.0
C      1  0.5403030000000  0.5239760000000  0.5648130000000 1.0
C      1  0.4915610000000  0.4186430000000  0.4954050000000 1.0
C      1  0.5365540000000  0.4073000000000  0.4725370000000 1.0
C      1  0.5562770000000  0.4445280000000  0.5009690000000 1.0
C      1  0.5251940000000  0.4714910000000  0.5202660000000 1.0
C      1  0.4827450000000  0.5338630000000  0.5811220000000 1.0
C      1  0.5347440000000  0.5835930000000  0.5350920000000 1.0
C      1  0.4536790000000  0.5370280000000  0.5005860000000 1.0
C      1  0.4400750000000  0.5895020000000  0.5072320000000 1.0
C      1  0.4761610000000  0.5817010000000  0.5676250000000 1.0
C      1  0.4746180000000  0.4800200000000  0.6034030000000 1.0
C      1  0.4431900000000  0.4378030000000  0.5632200000000 1.0
C      1  0.5574940000000  0.4969830000000  0.5531980000000 1.0
C      1  0.4266260000000  0.5260750000000  0.5275470000000 1.0
C      1  0.4825310000000  0.4038730000000  0.4661300000000 1.0
C      1  0.3983650000000  0.4550910000000  0.5303410000000 1.0
C      1  0.4942810000000  0.5267080000000  0.5171940000000 1.0
C      1  0.4157950000000  0.4806000000000  0.4287830000000 1.0
C      1  0.5255020000000  0.4943270000000  0.5426700000000 1.0
C      1  0.4316520000000  0.5583930000000  0.5182520000000 1.0
C      1  0.5667360000000  0.4682840000000  0.5374610000000 1.0
C      1  0.4044600000000  0.4286380000000  0.5237030000000 1.0
C      1  0.4953990000000  0.4838220000000  0.3852510000000 1.0
C      1  0.5577680000000  0.4671120000000  0.4680060000000 1.0
C      1  0.4937740000000  0.4446030000000  0.4195350000000 1.0
C      1  0.4762310000000  0.5503080000000  0.4818830000000 1.0
C      1  0.4452080000000  0.4396070000000  0.4247300000000 1.0
C      1  0.5482150000000  0.5776170000000  0.4293900000000 1.0
C      1  0.4233100000000  0.5359680000000  0.4692230000000 1.0
C      1  0.6017970000000  0.5244520000000  0.5009310000000 1.0
C      1  0.5391990000000  0.5831100000000  0.4610610000000 1.0
C      1  0.4961590000000  0.4117410000000  0.4421540000000 1.0
C      1  0.5145540000000  0.4436670000000  0.4710770000000 1.0
C      1  0.4416030000000  0.4670630000000  0.4092650000000 1.0
C      1  0.4727240000000  0.4770500000000  0.4098560000000 1.0
C      1  0.4935320000000  0.5932080000000  0.5116870000000 1.0
C      1  0.6008070000000  0.5558240000000  0.5062230000000 1.0
C      1  0.4476090000000  0.4042320000000  0.5208440000000 1.0
C      1  0.5229380000000  0.5847590000000  0.5109360000000 1.0
C      1  0.5292910000000  0.5384390000000  0.4877680000000 1.0
C      1  0.4654550000000  0.5891980000000  0.5298900000000 1.0
C      1  0.5599640000000  0.5650790000000  0.5356110000000 1.0
C      1  0.4276960000000  0.5157070000000  0.5769390000000 1.0
C      1  0.4138010000000  0.5593170000000  0.4803330000000 1.0
C      1  0.4454680000000  0.4955600000000  0.4509750000000 1.0
C      1  0.4775550000000  0.5816460000000  0.4686940000000 1.0
C      1  0.5606460000000  0.4949520000000  0.4825600000000 1.0
C      1  0.4494490000000  0.5366880000000  0.5914360000000 1.0
C      1  0.4359330000000  0.4874930000000  0.5266970000000 1.0
C      1  0.5368210000000  0.4566480000000  0.5486780000000 1.0
C      1  0.4733970000000  0.5505660000000  0.5542250000000 1.0
C      1  0.4788540000000  0.4351120000000  0.5447800000000 1.0
C      1  0.3899620000000  0.5078740000000  0.5317210000000 1.0
C      1  0.5460340000000  0.5337560000000  0.5152240000000 1.0
C      1  0.5988420000000  0.4714790000000  0.4723400000000 1.0
C      1  0.5753110000000  0.4354900000000  0.5347220000000 1.0
C      1  0.4409360000000  0.4998480000000  0.4175480000000 1.0
C      1  0.3923970000000  0.5268760000000  0.5071040000000 1.0
END
