TITL C-2847956-8218-178 -0.0021213124222941 125000 -545.665980184569 0 0 100 (C1) n - 1
REM
REM in /home/bkarasulu/work/CARBON/AIRSS/Generating-Clusters/AIREBO/with-SteepDescent/Only-C1/SD-CG-opt/Try1-1.4A-POS3A/HFTN-CG
REM
REM
REM
REM
REM
REM ./C.cell (11c1c37f851c82e70ff6c80c92926a4b)
REM
REM compiler GCC version 9.2.1 20190827 (Red Hat 9.2.1-1)
REM options -cpp -mtune=generic -march=x86-64 -g -O0 -fpre-include=/usr/include/finclude/math-vector-fortran.h
REM seed -1148567907 -1574777399 -148643080 861064588 -2012627332 538171417 442964836 -1502954872 -492261521 -344628649 1389315471 -930947119 -1078260854 171026497 -963492077 -1523508342 -2074647896 2017223570 1644006085 -1960282893 -1287708836 96704086 -679943574 514295679 -839006254 332181486 -1787041520 -411932330 1080655333 -513235316 724651396 1315529872 -1673204609
REM
CELL 1.54180   50.00000   50.00000   50.00000   90.00000   90.00000   90.00000
LATT -1
SFAC C  
C      1  0.5975760000000  0.5249640000000  0.4695160000000 1.0
C      1  0.4185300000000  0.4421430000000  0.4682990000000 1.0
C      1  0.4499890000000  0.5517980000000  0.5032700000000 1.0
C      1  0.4692620000000  0.5151800000000  0.4378400000000 1.0
C      1  0.4492920000000  0.5564040000000  0.4376260000000 1.0
C      1  0.5343440000000  0.4406540000000  0.5620620000000 1.0
C      1  0.5142590000000  0.4730640000000  0.4753750000000 1.0
C      1  0.4581890000000  0.4472130000000  0.4422430000000 1.0
C      1  0.4701910000000  0.4462960000000  0.4736420000000 1.0
C      1  0.4604760000000  0.4082460000000  0.5042760000000 1.0
C      1  0.4957140000000  0.4877280000000  0.4072590000000 1.0
C      1  0.4306400000000  0.5493840000000  0.4829920000000 1.0
C      1  0.5485600000000  0.5435190000000  0.4761370000000 1.0
C      1  0.4735640000000  0.4154790000000  0.4802320000000 1.0
C      1  0.4980870000000  0.5020390000000  0.5445100000000 1.0
C      1  0.5526630000000  0.5140750000000  0.5803980000000 1.0
C      1  0.5415880000000  0.4337130000000  0.4966100000000 1.0
C      1  0.5223730000000  0.5912170000000  0.5233040000000 1.0
C      1  0.5125390000000  0.4569020000000  0.5567210000000 1.0
C      1  0.5659770000000  0.4910770000000  0.5715460000000 1.0
C      1  0.5187550000000  0.5322470000000  0.4794640000000 1.0
C      1  0.5512740000000  0.5038090000000  0.5231300000000 1.0
C      1  0.5830850000000  0.4562370000000  0.4811090000000 1.0
C      1  0.4706110000000  0.5760200000000  0.5370740000000 1.0
C      1  0.4834190000000  0.3788030000000  0.5365380000000 1.0
C      1  0.4787410000000  0.4027890000000  0.5255750000000 1.0
C      1  0.4240900000000  0.4939450000000  0.4704460000000 1.0
C      1  0.4672410000000  0.5245650000000  0.5118890000000 1.0
C      1  0.4882560000000  0.5959710000000  0.4509880000000 1.0
C      1  0.5072720000000  0.5204290000000  0.4495830000000 1.0
C      1  0.4931790000000  0.4569170000000  0.4541230000000 1.0
C      1  0.5546890000000  0.5801790000000  0.4614110000000 1.0
C      1  0.5104700000000  0.5039550000000  0.5136360000000 1.0
C      1  0.4991430000000  0.5353730000000  0.5071060000000 1.0
C      1  0.4584500000000  0.5331230000000  0.4595920000000 1.0
C      1  0.5545740000000  0.4356990000000  0.5435320000000 1.0
C      1  0.5657660000000  0.4591900000000  0.5326860000000 1.0
C      1  0.4287220000000  0.5170630000000  0.5806080000000 1.0
C      1  0.4782190000000  0.5096300000000  0.4851820000000 1.0
C      1  0.5558120000000  0.4952740000000  0.4736190000000 1.0
C      1  0.5308970000000  0.5105560000000  0.5473340000000 1.0
C      1  0.5075400000000  0.5496580000000  0.5619760000000 1.0
C      1  0.4296970000000  0.4531160000000  0.4446940000000 1.0
C      1  0.4884690000000  0.5470050000000  0.5372610000000 1.0
C      1  0.5137900000000  0.4433880000000  0.4897840000000 1.0
C      1  0.5359070000000  0.5092300000000  0.4346710000000 1.0
C      1  0.4394350000000  0.4255720000000  0.5122410000000 1.0
C      1  0.4769410000000  0.5438570000000  0.4222670000000 1.0
C      1  0.5175180000000  0.5237520000000  0.5754050000000 1.0
C      1  0.5482190000000  0.4172490000000  0.5225560000000 1.0
C      1  0.5283520000000  0.5708160000000  0.4756600000000 1.0
C      1  0.5647480000000  0.4838600000000  0.5443760000000 1.0
C      1  0.4362730000000  0.4500500000000  0.4943890000000 1.0
C      1  0.5714530000000  0.5592600000000  0.4560180000000 1.0
C      1  0.6219470000000  0.5266940000000  0.4621470000000 1.0
C      1  0.5015160000000  0.4216660000000  0.4706990000000 1.0
C      1  0.5486790000000  0.5589060000000  0.5452690000000 1.0
C      1  0.4650150000000  0.4864230000000  0.4454600000000 1.0
C      1  0.5069370000000  0.4735550000000  0.5301190000000 1.0
C      1  0.4610140000000  0.5435760000000  0.5573240000000 1.0
C      1  0.4932110000000  0.4612690000000  0.5763940000000 1.0
C      1  0.4820140000000  0.4684430000000  0.4251050000000 1.0
C      1  0.4330750000000  0.5666530000000  0.4596040000000 1.0
C      1  0.4971020000000  0.5672980000000  0.4650940000000 1.0
C      1  0.5207710000000  0.4414460000000  0.4506350000000 1.0
C      1  0.5519360000000  0.5347560000000  0.5586530000000 1.0
C      1  0.5635640000000  0.5292190000000  0.5103380000000 1.0
C      1  0.4945160000000  0.5150680000000  0.4178310000000 1.0
C      1  0.4298980000000  0.5206650000000  0.4730440000000 1.0
C      1  0.5459090000000  0.5535710000000  0.5174250000000 1.0
C      1  0.4806390000000  0.5429840000000  0.4793020000000 1.0
C      1  0.4506170000000  0.5201490000000  0.5644820000000 1.0
C      1  0.4330450000000  0.4319140000000  0.5390370000000 1.0
C      1  0.5696680000000  0.5207850000000  0.4800700000000 1.0
C      1  0.4525700000000  0.5732750000000  0.5617010000000 1.0
C      1  0.5475120000000  0.4876010000000  0.4479530000000 1.0
C      1  0.4911440000000  0.4271140000000  0.5324940000000 1.0
C      1  0.4842140000000  0.4873570000000  0.5790100000000 1.0
C      1  0.4660450000000  0.4646490000000  0.5020170000000 1.0
C      1  0.4354250000000  0.4575590000000  0.5492650000000 1.0
C      1  0.4923050000000  0.4953860000000  0.4636930000000 1.0
C      1  0.4183530000000  0.4771570000000  0.4921580000000 1.0
C      1  0.5354490000000  0.4865710000000  0.4984400000000 1.0
C      1  0.5320640000000  0.5366700000000  0.4229710000000 1.0
C      1  0.4363550000000  0.4808450000000  0.4489010000000 1.0
C      1  0.4669540000000  0.4974240000000  0.5552660000000 1.0
C      1  0.5158700000000  0.5650070000000  0.5062630000000 1.0
C      1  0.4355950000000  0.4822700000000  0.5356540000000 1.0
C      1  0.4633140000000  0.4922490000000  0.5218480000000 1.0
C      1  0.5580250000000  0.4616510000000  0.5035540000000 1.0
C      1  0.5260140000000  0.5699090000000  0.5586210000000 1.0
C      1  0.4138740000000  0.4872390000000  0.5181350000000 1.0
C      1  0.5668260000000  0.4343360000000  0.4758980000000 1.0
C      1  0.4991700000000  0.5064700000000  0.5911020000000 1.0
C      1  0.4646910000000  0.5758020000000  0.5093360000000 1.0
C      1  0.5930230000000  0.5342460000000  0.5199020000000 1.0
C      1  0.5415080000000  0.4595460000000  0.4435680000000 1.0
C      1  0.4879810000000  0.5813620000000  0.4946770000000 1.0
C      1  0.5051990000000  0.5519590000000  0.4370100000000 1.0
C      1  0.4946280000000  0.4516240000000  0.5127490000000 1.0
END
