TITL C-2847957-7266-665 -0.000451228267722814 125000 -533.753342640756 0 0 100 (C1) n - 1
REM
REM in /home/bkarasulu/work/CARBON/AIRSS/Generating-Clusters/AIREBO/with-SteepDescent/Only-C1/SD-CG-opt/Try1-1.4A-POS3A/HFTN-CG
REM
REM
REM
REM
REM
REM ./C.cell (11c1c37f851c82e70ff6c80c92926a4b)
REM
REM compiler GCC version 9.2.1 20190827 (Red Hat 9.2.1-1)
REM options -cpp -mtune=generic -march=x86-64 -g -O0 -fpre-include=/usr/include/finclude/math-vector-fortran.h
REM seed -1011919231 1659717250 667605877 1627121326 1605664151 -1713284488 -38395976 1227270550 -875127803 1033826844 672863831 -1133307796 788046176 583750670 -2064580520 1739298439 893914597 -1993728066 950402333 629422547 1767842216 945083370 1738604564 1766912509 -1911130986 -1073466645 1252063359 452939769 -411576377 1255360350 492563639 1161358168 -1470992320
REM
CELL 1.54180   50.00000   50.00000   50.00000   90.00000   90.00000   90.00000
LATT -1
SFAC C  
C      1  0.5117880000000  0.5740660000000  0.5200950000000 1.0
C      1  0.5581440000000  0.4489250000000  0.5459960000000 1.0
C      1  0.5175830000000  0.5705700000000  0.4931230000000 1.0
C      1  0.5874830000000  0.5209430000000  0.4783650000000 1.0
C      1  0.4896800000000  0.5537210000000  0.5722970000000 1.0
C      1  0.5226890000000  0.4892830000000  0.4847090000000 1.0
C      1  0.4757440000000  0.4305770000000  0.5426600000000 1.0
C      1  0.5484370000000  0.4571200000000  0.4657430000000 1.0
C      1  0.4570320000000  0.5708330000000  0.5252400000000 1.0
C      1  0.5163780000000  0.5233010000000  0.5393260000000 1.0
C      1  0.4615000000000  0.4543320000000  0.5228790000000 1.0
C      1  0.4985490000000  0.5064430000000  0.4679930000000 1.0
C      1  0.5523810000000  0.5012120000000  0.4193740000000 1.0
C      1  0.5498130000000  0.4701860000000  0.4343630000000 1.0
C      1  0.5544210000000  0.5147880000000  0.5811260000000 1.0
C      1  0.4547190000000  0.5062550000000  0.5198540000000 1.0
C      1  0.5158560000000  0.5671970000000  0.4502460000000 1.0
C      1  0.5044900000000  0.4236470000000  0.4627550000000 1.0
C      1  0.5786080000000  0.4728200000000  0.4657410000000 1.0
C      1  0.5276390000000  0.5543720000000  0.5372080000000 1.0
C      1  0.5817710000000  0.4918920000000  0.4445520000000 1.0
C      1  0.4570960000000  0.5636070000000  0.4717390000000 1.0
C      1  0.4125220000000  0.4761800000000  0.5150360000000 1.0
C      1  0.4492210000000  0.4979180000000  0.5944250000000 1.0
C      1  0.5602900000000  0.5488370000000  0.4702110000000 1.0
C      1  0.4407880000000  0.5337800000000  0.4730190000000 1.0
C      1  0.5085620000000  0.4548050000000  0.5120210000000 1.0
C      1  0.4145450000000  0.5060250000000  0.5253200000000 1.0
C      1  0.5060620000000  0.5137800000000  0.5703350000000 1.0
C      1  0.5305320000000  0.5292280000000  0.5819250000000 1.0
C      1  0.5055390000000  0.5300440000000  0.4163750000000 1.0
C      1  0.4696300000000  0.5340720000000  0.5698190000000 1.0
C      1  0.5369740000000  0.4892150000000  0.5127320000000 1.0
C      1  0.4639840000000  0.4601250000000  0.4440580000000 1.0
C      1  0.4828750000000  0.4372750000000  0.4817130000000 1.0
C      1  0.5700240000000  0.5396840000000  0.5007290000000 1.0
C      1  0.5194360000000  0.4565050000000  0.4235350000000 1.0
C      1  0.4647500000000  0.5216750000000  0.4351260000000 1.0
C      1  0.4479160000000  0.4953390000000  0.4814590000000 1.0
C      1  0.4488630000000  0.5300580000000  0.5514510000000 1.0
C      1  0.5746650000000  0.5011600000000  0.5103310000000 1.0
C      1  0.5560740000000  0.4954100000000  0.5611850000000 1.0
C      1  0.4700290000000  0.5452290000000  0.4973440000000 1.0
C      1  0.5166750000000  0.4701650000000  0.5521410000000 1.0
C      1  0.5175970000000  0.5518750000000  0.5672790000000 1.0
C      1  0.4641920000000  0.5847010000000  0.4974560000000 1.0
C      1  0.5027500000000  0.4179120000000  0.5262850000000 1.0
C      1  0.4486730000000  0.4099510000000  0.5036920000000 1.0
C      1  0.4686740000000  0.5168680000000  0.4649290000000 1.0
C      1  0.5731280000000  0.4724180000000  0.5533410000000 1.0
C      1  0.5280270000000  0.4306050000000  0.5073160000000 1.0
C      1  0.4924730000000  0.4456120000000  0.4397500000000 1.0
C      1  0.4292590000000  0.5145070000000  0.4518440000000 1.0
C      1  0.5660170000000  0.5319640000000  0.4203230000000 1.0
C      1  0.4367320000000  0.5799750000000  0.4573560000000 1.0
C      1  0.4817640000000  0.5427180000000  0.4274210000000 1.0
C      1  0.4958440000000  0.5005600000000  0.4161930000000 1.0
C      1  0.5411900000000  0.5732860000000  0.4804260000000 1.0
C      1  0.5582050000000  0.5544620000000  0.5267500000000 1.0
C      1  0.4559730000000  0.5400520000000  0.5234750000000 1.0
C      1  0.4946210000000  0.5532700000000  0.4809600000000 1.0
C      1  0.4859100000000  0.5838830000000  0.5231530000000 1.0
C      1  0.5180030000000  0.4227210000000  0.5547060000000 1.0
C      1  0.5465740000000  0.5173450000000  0.4998070000000 1.0
C      1  0.4216110000000  0.5149010000000  0.5549130000000 1.0
C      1  0.4301690000000  0.5181670000000  0.4993550000000 1.0
C      1  0.5318430000000  0.4472810000000  0.5575570000000 1.0
C      1  0.4666610000000  0.4524940000000  0.5627120000000 1.0
C      1  0.5496080000000  0.4632420000000  0.4991780000000 1.0
C      1  0.4966120000000  0.4681010000000  0.4847560000000 1.0
C      1  0.5565760000000  0.4413220000000  0.5187980000000 1.0
C      1  0.4456210000000  0.4426130000000  0.4593560000000 1.0
C      1  0.5333190000000  0.5287870000000  0.4290880000000 1.0
C      1  0.4009830000000  0.5297080000000  0.5670780000000 1.0
C      1  0.4458410000000  0.4886690000000  0.4481570000000 1.0
C      1  0.4839560000000  0.5623230000000  0.4509180000000 1.0
C      1  0.5318730000000  0.4941650000000  0.5427260000000 1.0
C      1  0.5321710000000  0.4288430000000  0.4754160000000 1.0
C      1  0.4418290000000  0.4773050000000  0.5287930000000 1.0
C      1  0.5222830000000  0.4897240000000  0.4302440000000 1.0
C      1  0.4768450000000  0.5072060000000  0.5829240000000 1.0
C      1  0.4811690000000  0.4832350000000  0.5618270000000 1.0
C      1  0.4430030000000  0.4704080000000  0.5580890000000 1.0
C      1  0.4855000000000  0.4864380000000  0.4453420000000 1.0
C      1  0.4784970000000  0.4163370000000  0.5057760000000 1.0
C      1  0.4820920000000  0.5047520000000  0.5381000000000 1.0
C      1  0.5647540000000  0.5203100000000  0.4522430000000 1.0
C      1  0.4628150000000  0.4929940000000  0.4190090000000 1.0
C      1  0.5852520000000  0.4914990000000  0.5341810000000 1.0
C      1  0.5176450000000  0.5286310000000  0.4853120000000 1.0
C      1  0.5157230000000  0.4613250000000  0.4574580000000 1.0
C      1  0.4772140000000  0.4923690000000  0.4984650000000 1.0
C      1  0.4995240000000  0.5153460000000  0.5108640000000 1.0
C      1  0.4509710000000  0.4421290000000  0.4929350000000 1.0
C      1  0.5368170000000  0.5019420000000  0.4584630000000 1.0
C      1  0.4307430000000  0.4694070000000  0.4912670000000 1.0
C      1  0.4906730000000  0.4661470000000  0.5340050000000 1.0
C      1  0.5887200000000  0.4912640000000  0.4860300000000 1.0
C      1  0.4327440000000  0.4909190000000  0.5733120000000 1.0
C      1  0.5309790000000  0.5424130000000  0.4572150000000 1.0
END
