TITL C-2848507-1641-365 0.000280610830477327 125000 -159.004092246805 0 0 29 (C1) n - 1
REM
REM in /home/bkarasulu/work/CARBON/AIRSS/Generating-Clusters/AIREBO/with-SteepDescent/Only-C1/SD-CG-opt/Try1-1.4A-POS3A/HFTN-CG
REM
REM
REM
REM
REM
REM ./C.cell (11c1c37f851c82e70ff6c80c92926a4b)
REM
REM compiler GCC version 9.2.1 20190827 (Red Hat 9.2.1-1)
REM options -cpp -mtune=generic -march=x86-64 -g -O0 -fpre-include=/usr/include/finclude/math-vector-fortran.h
REM seed -9428159 -463028172 -1956009735 961829862 -309387365 14063650 1248203299 -195283702 -1083935885 -639346556 -354779737 -1799256649 -337255419 -915926219 -2112034467 877979670 927771346 -851369297 -741648242 890051364 543643895 841157768 -2089928855 1249838309 1057765483 1698670067 -2081271961 -1728046842 -1031843028 -517414815 -519420404 -336322496 1490795304
REM
CELL 1.54180   50.00000   50.00000   50.00000   90.00000   90.00000   90.00000
LATT -1
SFAC C  
C      1  0.5330990000000  0.5052490000000  0.5277090000000 1.0
C      1  0.4998140000000  0.4631290000000  0.4629510000000 1.0
C      1  0.4776940000000  0.5476360000000  0.5038930000000 1.0
C      1  0.5271050000000  0.5236100000000  0.5004270000000 1.0
C      1  0.5045880000000  0.4127690000000  0.4464560000000 1.0
C      1  0.4405180000000  0.4623240000000  0.4857460000000 1.0
C      1  0.5155960000000  0.5343560000000  0.5300230000000 1.0
C      1  0.5192970000000  0.5081680000000  0.4711380000000 1.0
C      1  0.5677070000000  0.5293770000000  0.5141040000000 1.0
C      1  0.4504350000000  0.4890460000000  0.5250520000000 1.0
C      1  0.5703320000000  0.5185570000000  0.4890250000000 1.0
C      1  0.5068320000000  0.3874520000000  0.4400510000000 1.0
C      1  0.5454410000000  0.4868010000000  0.5398820000000 1.0
C      1  0.5514550000000  0.5047530000000  0.4749600000000 1.0
C      1  0.4451000000000  0.5167140000000  0.5329040000000 1.0
C      1  0.4726260000000  0.4986650000000  0.4828200000000 1.0
C      1  0.4870690000000  0.5408050000000  0.5288080000000 1.0
C      1  0.4782940000000  0.5026200000000  0.5596930000000 1.0
C      1  0.4905100000000  0.5509490000000  0.4727540000000 1.0
C      1  0.4697800000000  0.5262080000000  0.4821610000000 1.0
C      1  0.4680070000000  0.4787640000000  0.5461980000000 1.0
C      1  0.5484920000000  0.5420780000000  0.5287110000000 1.0
C      1  0.4731520000000  0.4532060000000  0.5521380000000 1.0
C      1  0.4536380000000  0.4828320000000  0.4973470000000 1.0
C      1  0.5230510000000  0.5469580000000  0.4792450000000 1.0
C      1  0.4695610000000  0.5272770000000  0.5457680000000 1.0
C      1  0.5105060000000  0.5334630000000  0.4514120000000 1.0
C      1  0.4969000000000  0.4883460000000  0.4733820000000 1.0
C      1  0.5034010000000  0.4378880000000  0.4552420000000 1.0
END
