TITL C-2848508-1660-575 -0.000713274523648421 125000 -862.058222322722 0 0 159 (C1) n - 1
REM
REM in /home/bkarasulu/work/CARBON/AIRSS/Generating-Clusters/AIREBO/with-SteepDescent/Only-C1/SD-CG-opt/Try1-1.4A-POS3A/HFTN-CG
REM
REM
REM
REM
REM
REM ./C.cell (11c1c37f851c82e70ff6c80c92926a4b)
REM
REM compiler GCC version 9.2.1 20190827 (Red Hat 9.2.1-1)
REM options -cpp -mtune=generic -march=x86-64 -g -O0 -fpre-include=/usr/include/finclude/math-vector-fortran.h
REM seed 2094801809 -1771078143 153318203 -1606733240 1703885652 -295223310 2134754243 -1238124077 -957102885 -2111335706 1748456161 895988243 -2110444333 -545188495 422659843 484058061 -259620842 -1312445249 208633494 -567906491 1215355215 867942291 1470633871 -2034256056 497836094 -1105766787 1910219492 1853215514 850860870 -1365643114 730271199 -439676498 1139663291
REM
CELL 1.54180   50.00000   50.00000   50.00000   90.00000   90.00000   90.00000
LATT -1
SFAC C  
C      1  0.4938720000000  0.4668970000000  0.6131510000000 1.0
C      1  0.5285830000000  0.3939120000000  0.5449120000000 1.0
C      1  0.5509730000000  0.5943920000000  0.5583450000000 1.0
C      1  0.5209200000000  0.5502410000000  0.5520720000000 1.0
C      1  0.5356100000000  0.4427320000000  0.5589870000000 1.0
C      1  0.4336290000000  0.5203530000000  0.4288760000000 1.0
C      1  0.5015480000000  0.4073370000000  0.4417500000000 1.0
C      1  0.5012940000000  0.5777960000000  0.5556020000000 1.0
C      1  0.4527850000000  0.4751610000000  0.5294190000000 1.0
C      1  0.4755250000000  0.5908610000000  0.5375980000000 1.0
C      1  0.4727740000000  0.5814310000000  0.4224270000000 1.0
C      1  0.5243210000000  0.4128340000000  0.5642840000000 1.0
C      1  0.5284260000000  0.5086610000000  0.3833480000000 1.0
C      1  0.5375290000000  0.5483320000000  0.5060980000000 1.0
C      1  0.5035040000000  0.4329790000000  0.4723470000000 1.0
C      1  0.4488010000000  0.4682280000000  0.4471520000000 1.0
C      1  0.5397530000000  0.5754550000000  0.4538580000000 1.0
C      1  0.4713210000000  0.4689180000000  0.5961870000000 1.0
C      1  0.4601860000000  0.5390430000000  0.5730800000000 1.0
C      1  0.5921870000000  0.5452080000000  0.5482250000000 1.0
C      1  0.5348350000000  0.5418650000000  0.4332780000000 1.0
C      1  0.4886400000000  0.4733210000000  0.5120430000000 1.0
C      1  0.3949670000000  0.4789360000000  0.5093480000000 1.0
C      1  0.4146440000000  0.4685440000000  0.4835120000000 1.0
C      1  0.4235780000000  0.4851910000000  0.5659390000000 1.0
C      1  0.5461410000000  0.4231230000000  0.5085360000000 1.0
C      1  0.5185350000000  0.4432450000000  0.4436240000000 1.0
C      1  0.4237520000000  0.5385360000000  0.5041380000000 1.0
C      1  0.4444620000000  0.4369520000000  0.5616390000000 1.0
C      1  0.4417600000000  0.4866900000000  0.4739020000000 1.0
C      1  0.5447590000000  0.5088390000000  0.5635490000000 1.0
C      1  0.4674040000000  0.4056330000000  0.4830060000000 1.0
C      1  0.5081230000000  0.5294200000000  0.4209430000000 1.0
C      1  0.5280050000000  0.5039110000000  0.4229950000000 1.0
C      1  0.5968650000000  0.4674010000000  0.5053740000000 1.0
C      1  0.5053160000000  0.5235120000000  0.3909780000000 1.0
C      1  0.4835990000000  0.4944290000000  0.4266160000000 1.0
C      1  0.5180030000000  0.4042980000000  0.4711250000000 1.0
C      1  0.5825730000000  0.5528500000000  0.4507860000000 1.0
C      1  0.5459190000000  0.5295820000000  0.4808820000000 1.0
C      1  0.4664400000000  0.4469530000000  0.5798320000000 1.0
C      1  0.5624150000000  0.5257750000000  0.5951880000000 1.0
C      1  0.5061960000000  0.5636910000000  0.5861930000000 1.0
C      1  0.5349490000000  0.4996130000000  0.4928660000000 1.0
C      1  0.4134860000000  0.4411670000000  0.4652340000000 1.0
C      1  0.4602980000000  0.5120970000000  0.4092470000000 1.0
C      1  0.4596870000000  0.4407280000000  0.4598400000000 1.0
C      1  0.6044320000000  0.5231710000000  0.5353450000000 1.0
C      1  0.5750170000000  0.5064260000000  0.4442880000000 1.0
C      1  0.5627020000000  0.5371000000000  0.5630960000000 1.0
C      1  0.4730500000000  0.4927940000000  0.5450980000000 1.0
C      1  0.4658080000000  0.4951090000000  0.5859300000000 1.0
C      1  0.5373060000000  0.5990050000000  0.4675640000000 1.0
C      1  0.4678030000000  0.5885440000000  0.3971230000000 1.0
C      1  0.4738800000000  0.5546490000000  0.4424800000000 1.0
C      1  0.5496640000000  0.4503060000000  0.4398910000000 1.0
C      1  0.4043120000000  0.5660430000000  0.5023960000000 1.0
C      1  0.5342550000000  0.4580620000000  0.4688640000000 1.0
C      1  0.4824730000000  0.5259490000000  0.4393810000000 1.0
C      1  0.5779600000000  0.4223300000000  0.5158260000000 1.0
C      1  0.4982280000000  0.5753550000000  0.4523950000000 1.0
C      1  0.4897470000000  0.5514420000000  0.5281310000000 1.0
C      1  0.4862400000000  0.4603920000000  0.4679570000000 1.0
C      1  0.5723470000000  0.4329420000000  0.4512940000000 1.0
C      1  0.5773960000000  0.5614340000000  0.5267870000000 1.0
C      1  0.4456610000000  0.5774440000000  0.5378350000000 1.0
C      1  0.5774620000000  0.4668820000000  0.5533560000000 1.0
C      1  0.4786320000000  0.5219210000000  0.3852430000000 1.0
C      1  0.4654510000000  0.5886090000000  0.5049430000000 1.0
C      1  0.5369170000000  0.4820120000000  0.5219310000000 1.0
C      1  0.4662350000000  0.5077430000000  0.4631580000000 1.0
C      1  0.5791990000000  0.4761900000000  0.4455870000000 1.0
C      1  0.4676680000000  0.5367700000000  0.4808200000000 1.0
C      1  0.4576890000000  0.4016280000000  0.5208670000000 1.0
C      1  0.3803710000000  0.5042000000000  0.5235350000000 1.0
C      1  0.5105390000000  0.4380660000000  0.5364930000000 1.0
C      1  0.5275070000000  0.5025230000000  0.5889320000000 1.0
C      1  0.5611030000000  0.5630150000000  0.4376320000000 1.0
C      1  0.3862600000000  0.5258440000000  0.5343060000000 1.0
C      1  0.4621330000000  0.4652680000000  0.4912040000000 1.0
C      1  0.4114070000000  0.5322660000000  0.4759800000000 1.0
C      1  0.4550170000000  0.5890360000000  0.4763090000000 1.0
C      1  0.5078060000000  0.4977150000000  0.5260430000000 1.0
C      1  0.4568050000000  0.5207390000000  0.5446250000000 1.0
C      1  0.4070080000000  0.5494780000000  0.5316770000000 1.0
C      1  0.4555170000000  0.5289190000000  0.5116200000000 1.0
C      1  0.4438740000000  0.5026680000000  0.5703690000000 1.0
C      1  0.4718750000000  0.5933390000000  0.4520580000000 1.0
C      1  0.4890690000000  0.4347340000000  0.4351260000000 1.0
C      1  0.5282610000000  0.5877970000000  0.5407330000000 1.0
C      1  0.5046150000000  0.4885250000000  0.5570100000000 1.0
C      1  0.4728970000000  0.4798050000000  0.3806390000000 1.0
C      1  0.5698560000000  0.4544130000000  0.5161820000000 1.0
C      1  0.5543850000000  0.4768840000000  0.4224970000000 1.0
C      1  0.4250500000000  0.5646310000000  0.5507750000000 1.0
C      1  0.6030550000000  0.4664480000000  0.5348820000000 1.0
C      1  0.4274320000000  0.5450770000000  0.4514560000000 1.0
C      1  0.4376530000000  0.4135960000000  0.4974170000000 1.0
C      1  0.4887210000000  0.5029290000000  0.4834140000000 1.0
C      1  0.4821350000000  0.5463290000000  0.5953040000000 1.0
C      1  0.5630490000000  0.4777180000000  0.5806620000000 1.0
C      1  0.4511850000000  0.5588400000000  0.4633670000000 1.0
C      1  0.5857910000000  0.5024530000000  0.5333870000000 1.0
C      1  0.4148950000000  0.4564620000000  0.5217550000000 1.0
C      1  0.5302090000000  0.5769750000000  0.5122380000000 1.0
C      1  0.4441680000000  0.4978250000000  0.5059380000000 1.0
C      1  0.5182230000000  0.4734990000000  0.6045760000000 1.0
C      1  0.5258120000000  0.6003350000000  0.4925200000000 1.0
C      1  0.4969450000000  0.5757860000000  0.5052940000000 1.0
C      1  0.5121010000000  0.4811330000000  0.4755690000000 1.0
C      1  0.5532260000000  0.5199970000000  0.3907050000000 1.0
C      1  0.5454160000000  0.5648940000000  0.5685270000000 1.0
C      1  0.3892160000000  0.5102070000000  0.4625890000000 1.0
C      1  0.4212060000000  0.5064820000000  0.4561010000000 1.0
C      1  0.4904370000000  0.5103900000000  0.5763010000000 1.0
C      1  0.5368840000000  0.4520570000000  0.5202380000000 1.0
C      1  0.4902450000000  0.5384390000000  0.5571760000000 1.0
C      1  0.4834640000000  0.3885080000000  0.5034940000000 1.0
C      1  0.6029790000000  0.5205950000000  0.4876550000000 1.0
C      1  0.5022780000000  0.4435020000000  0.5039300000000 1.0
C      1  0.6170450000000  0.5279670000000  0.5097860000000 1.0
C      1  0.5831290000000  0.4650300000000  0.4743600000000 1.0
C      1  0.5077360000000  0.5260980000000  0.5995940000000 1.0
C      1  0.4957630000000  0.4843830000000  0.3964960000000 1.0
C      1  0.5296410000000  0.3984100000000  0.5174560000000 1.0
C      1  0.5425080000000  0.4260850000000  0.4770060000000 1.0
C      1  0.4852240000000  0.5128480000000  0.5076350000000 1.0
C      1  0.4958570000000  0.5550640000000  0.4787400000000 1.0
C      1  0.4303060000000  0.4604600000000  0.5480070000000 1.0
C      1  0.5292430000000  0.4791940000000  0.3996710000000 1.0
C      1  0.5865260000000  0.4944300000000  0.4913590000000 1.0
C      1  0.4831260000000  0.4360060000000  0.5522540000000 1.0
C      1  0.4721930000000  0.4333180000000  0.4970910000000 1.0
C      1  0.5772240000000  0.5266630000000  0.4680590000000 1.0
C      1  0.4349030000000  0.4470820000000  0.5003950000000 1.0
C      1  0.5752270000000  0.4330870000000  0.4830600000000 1.0
C      1  0.5303450000000  0.4727030000000  0.5728090000000 1.0
C      1  0.5112160000000  0.3906490000000  0.4980610000000 1.0
C      1  0.5648560000000  0.4372630000000  0.5445930000000 1.0
C      1  0.5576560000000  0.5338610000000  0.5293710000000 1.0
C      1  0.4700450000000  0.4488490000000  0.5266350000000 1.0
C      1  0.5252660000000  0.5488070000000  0.4652050000000 1.0
C      1  0.4755190000000  0.4615160000000  0.4295140000000 1.0
C      1  0.5561010000000  0.4904340000000  0.5435320000000 1.0
C      1  0.4574430000000  0.4152500000000  0.5442480000000 1.0
C      1  0.5681320000000  0.4992110000000  0.5966250000000 1.0
C      1  0.4461790000000  0.4786750000000  0.3925860000000 1.0
C      1  0.4298310000000  0.5037300000000  0.3993780000000 1.0
C      1  0.4330790000000  0.5538560000000  0.5745240000000 1.0
C      1  0.4457650000000  0.4615090000000  0.4145970000000 1.0
C      1  0.4194560000000  0.4960290000000  0.5228050000000 1.0
C      1  0.5242990000000  0.5272360000000  0.5298120000000 1.0
C      1  0.4989890000000  0.6092740000000  0.4985780000000 1.0
C      1  0.5340160000000  0.5430460000000  0.5902970000000 1.0
C      1  0.5640680000000  0.5077460000000  0.5085490000000 1.0
C      1  0.4622170000000  0.5596890000000  0.5168600000000 1.0
C      1  0.5111710000000  0.4927740000000  0.4461040000000 1.0
C      1  0.4366800000000  0.4255350000000  0.4670120000000 1.0
C      1  0.5575100000000  0.5185630000000  0.4231840000000 1.0
END
