TITL C-2848496-4490-518 -0.000501203763453408 125000 -364.834407797654 0 0 64 (C1) n - 1
REM
REM in /home/bkarasulu/work/CARBON/AIRSS/Generating-Clusters/AIREBO/with-SteepDescent/Only-C1/SD-CG-opt/Try1-1.4A-POS3A/HFTN-CG
REM
REM
REM
REM
REM
REM ./C.cell (11c1c37f851c82e70ff6c80c92926a4b)
REM
REM compiler GCC version 9.2.1 20190827 (Red Hat 9.2.1-1)
REM options -cpp -mtune=generic -march=x86-64 -g -O0 -fpre-include=/usr/include/finclude/math-vector-fortran.h
REM seed -1747684254 942789683 -1694964388 -1217078256 994949511 -655029266 1897888440 -506551598 499275431 83093123 -602978358 -1527955326 -235641514 -116634064 -1123540099 -991300477 1787526183 -2026467294 896680332 -1468532135 191634552 1952990712 837313409 -1825299569 1957253927 -559186253 -1696329617 1968961669 1256008649 95957829 -2144648228 -907433207 -530349024
REM
CELL 1.54180   50.00000   50.00000   50.00000   90.00000   90.00000   90.00000
LATT -1
SFAC C  
C      1  0.5422850000000  0.5013030000000  0.5199710000000 1.0
C      1  0.4805370000000  0.4322650000000  0.4662060000000 1.0
C      1  0.5088340000000  0.5047850000000  0.4412100000000 1.0
C      1  0.5706000000000  0.4044520000000  0.5182010000000 1.0
C      1  0.4520100000000  0.4498480000000  0.4753740000000 1.0
C      1  0.5562290000000  0.5478510000000  0.5229560000000 1.0
C      1  0.5734870000000  0.5204930000000  0.4842900000000 1.0
C      1  0.5252790000000  0.5472130000000  0.5318990000000 1.0
C      1  0.4999370000000  0.4669360000000  0.5356300000000 1.0
C      1  0.5314840000000  0.5300690000000  0.4659220000000 1.0
C      1  0.5593990000000  0.5098000000000  0.5868250000000 1.0
C      1  0.5241510000000  0.4341790000000  0.4177330000000 1.0
C      1  0.4860760000000  0.5443300000000  0.5064480000000 1.0
C      1  0.4957410000000  0.5230480000000  0.5663400000000 1.0
C      1  0.5159070000000  0.5726380000000  0.4784030000000 1.0
C      1  0.4265540000000  0.5169730000000  0.4941200000000 1.0
C      1  0.5359340000000  0.4168620000000  0.4019780000000 1.0
C      1  0.5066380000000  0.5690360000000  0.5040380000000 1.0
C      1  0.5127420000000  0.5179010000000  0.5200600000000 1.0
C      1  0.5243300000000  0.4529900000000  0.4868780000000 1.0
C      1  0.4995620000000  0.4223450000000  0.5097510000000 1.0
C      1  0.4680140000000  0.5585050000000  0.5396390000000 1.0
C      1  0.5126130000000  0.5023260000000  0.4716800000000 1.0
C      1  0.4475620000000  0.5377260000000  0.5314530000000 1.0
C      1  0.4866230000000  0.5305060000000  0.5378140000000 1.0
C      1  0.5066800000000  0.5316680000000  0.4346460000000 1.0
C      1  0.4809710000000  0.4409630000000  0.5304160000000 1.0
C      1  0.5436810000000  0.5724870000000  0.4761400000000 1.0
C      1  0.4517870000000  0.4707200000000  0.5619120000000 1.0
C      1  0.5410490000000  0.4766850000000  0.4966400000000 1.0
C      1  0.5208710000000  0.5353690000000  0.5711750000000 1.0
C      1  0.5595360000000  0.5479140000000  0.4587950000000 1.0
C      1  0.5300350000000  0.5550520000000  0.4429020000000 1.0
C      1  0.4601780000000  0.4635280000000  0.5366790000000 1.0
C      1  0.5141730000000  0.4529620000000  0.4354410000000 1.0
C      1  0.4687270000000  0.5594880000000  0.4648080000000 1.0
C      1  0.4516990000000  0.5111730000000  0.5402180000000 1.0
C      1  0.4983940000000  0.5686460000000  0.5356180000000 1.0
C      1  0.5048530000000  0.4450310000000  0.4613430000000 1.0
C      1  0.5119800000000  0.4802720000000  0.4283890000000 1.0
C      1  0.5483940000000  0.4174310000000  0.5131720000000 1.0
C      1  0.4591830000000  0.4201120000000  0.4876210000000 1.0
C      1  0.4986270000000  0.5570600000000  0.4557780000000 1.0
C      1  0.4956070000000  0.4887510000000  0.5162310000000 1.0
C      1  0.5091070000000  0.5290010000000  0.4895830000000 1.0
C      1  0.4597090000000  0.4930730000000  0.4621290000000 1.0
C      1  0.4765700000000  0.4709050000000  0.4742630000000 1.0
C      1  0.4757530000000  0.5100230000000  0.5810050000000 1.0
C      1  0.5195280000000  0.5636070000000  0.5611260000000 1.0
C      1  0.5023480000000  0.4786380000000  0.4869700000000 1.0
C      1  0.5461450000000  0.5221540000000  0.5669030000000 1.0
C      1  0.4391040000000  0.5399860000000  0.5039630000000 1.0
C      1  0.4487080000000  0.4932810000000  0.4921150000000 1.0
C      1  0.5643080000000  0.4977730000000  0.4950990000000 1.0
C      1  0.4375140000000  0.4845830000000  0.4428360000000 1.0
C      1  0.4158930000000  0.4862990000000  0.4885810000000 1.0
C      1  0.4632810000000  0.4905670000000  0.5181040000000 1.0
C      1  0.5250890000000  0.4294660000000  0.5057020000000 1.0
C      1  0.4698630000000  0.4147530000000  0.5130680000000 1.0
C      1  0.4289070000000  0.4682240000000  0.4676060000000 1.0
C      1  0.4615040000000  0.5495870000000  0.4893520000000 1.0
C      1  0.4545430000000  0.4988930000000  0.5659450000000 1.0
C      1  0.5584010000000  0.5478990000000  0.4930200000000 1.0
C      1  0.5547750000000  0.5215940000000  0.5398860000000 1.0
END
