TITL C-2847951-7423-66 -209.077753612833 125000 -596.377112253276 0 0 111 (C1) n - 1
REM
REM in /home/bkarasulu/work/CARBON/AIRSS/Generating-Clusters/AIREBO/with-SteepDescent/Only-C1/SD-CG-opt/Try1-1.4A-POS3A/HFTN-CG
REM
REM
REM
REM
REM
REM ./C.cell (11c1c37f851c82e70ff6c80c92926a4b)
REM
REM compiler GCC version 9.2.1 20190827 (Red Hat 9.2.1-1)
REM options -cpp -mtune=generic -march=x86-64 -g -O0 -fpre-include=/usr/include/finclude/math-vector-fortran.h
REM seed -41972186 1243040035 -848109883 -380673327 176443137 1878840737 -2143440240 -1180894445 -1822301610 -1729035183 1286288110 1109490551 1857317246 166151662 -846566194 -1279814677 1577423643 587598073 -354585661 -460110529 -956377322 -527577033 1707202079 -239213559 -890674286 -437521986 109385328 -2134586479 943915011 -1253704430 473664636 923367033 1613279227
REM
CELL 1.54180   50.00000   50.00000   50.00000   90.00000   90.00000   90.00000
LATT -1
SFAC C  
C      1  0.4431350000000  0.5309100000000  0.4858840000000 1.0
C      1  0.4856760000000  0.4998650000000  0.5300250000000 1.0
C      1  0.5267640000000  0.5151050000000  0.4722240000000 1.0
C      1  0.4800680000000  0.4876610000000  0.4987900000000 1.0
C      1  0.4312750000000  0.4338310000000  0.5064190000000 1.0
C      1  0.5946460000000  0.4841280000000  0.4719890000000 1.0
C      1  0.5694280000000  0.4799080000000  0.5161640000000 1.0
C      1  0.5303320000000  0.4416050000000  0.4289170000000 1.0
C      1  0.3986700000000  0.5195380000000  0.5029820000000 1.0
C      1  0.4919630000000  0.5472860000000  0.4893900000000 1.0
C      1  0.4171370000000  0.4583600000000  0.5065370000000 1.0
C      1  0.5571120000000  0.4418690000000  0.4685640000000 1.0
C      1  0.5838690000000  0.4573230000000  0.4622620000000 1.0
C      1  0.4258400000000  0.4879810000000  0.4603050000000 1.0
C      1  0.4778860000000  0.4430100000000  0.4523960000000 1.0
C      1  0.4575930000000  0.4825230000000  0.4671270000000 1.0
C      1  0.5658180000000  0.5237030000000  0.5498880000000 1.0
C      1  0.4793740000000  0.4349170000000  0.5055160000000 1.0
C      1  0.4235690000000  0.4753830000000  0.5295730000000 1.0
C      1  0.4719970000000  0.4850340000000  0.5724740000000 1.0
C      1  0.4320180000000  0.4197370000000  0.4815540000000 1.0
C      1  0.5255560000000  0.5469500000000  0.4841140000000 1.0
C      1  0.4320100000000  0.5221560000000  0.5381780000000 1.0
C      1  0.5364890000000  0.5779340000000  0.4779330000000 1.0
C      1  0.4633900000000  0.5886160000000  0.5412130000000 1.0
C      1  0.5791020000000  0.5571540000000  0.4880930000000 1.0
C      1  0.5283600000000  0.4081950000000  0.5104690000000 1.0
C      1  0.5088500000000  0.5639700000000  0.5626410000000 1.0
C      1  0.5164530000000  0.5929320000000  0.5526910000000 1.0
C      1  0.5171630000000  0.5010040000000  0.5016350000000 1.0
C      1  0.4680750000000  0.4300920000000  0.5482010000000 1.0
C      1  0.4799810000000  0.5370520000000  0.5639660000000 1.0
C      1  0.5615110000000  0.5331570000000  0.4416120000000 1.0
C      1  0.5134350000000  0.4956940000000  0.4476620000000 1.0
C      1  0.5348770000000  0.4192640000000  0.4792560000000 1.0
C      1  0.5234160000000  0.6178630000000  0.5587940000000 1.0
C      1  0.4465710000000  0.4638930000000  0.5501050000000 1.0
C      1  0.5920260000000  0.5225530000000  0.5422070000000 1.0
C      1  0.5319200000000  0.5555740000000  0.5163080000000 1.0
C      1  0.4393260000000  0.4941310000000  0.5751650000000 1.0
C      1  0.4751320000000  0.5222060000000  0.4082860000000 1.0
C      1  0.4263180000000  0.5181370000000  0.5084120000000 1.0
C      1  0.4602680000000  0.5575770000000  0.4352230000000 1.0
C      1  0.5100680000000  0.4993910000000  0.6025450000000 1.0
C      1  0.4801620000000  0.4286100000000  0.4216630000000 1.0
C      1  0.5097360000000  0.4771930000000  0.5849860000000 1.0
C      1  0.4758200000000  0.4150210000000  0.3982750000000 1.0
C      1  0.5322840000000  0.4461710000000  0.4994200000000 1.0
C      1  0.4433770000000  0.5792130000000  0.4864120000000 1.0
C      1  0.5091660000000  0.4249600000000  0.4352340000000 1.0
C      1  0.4964150000000  0.4610670000000  0.5123230000000 1.0
C      1  0.5075270000000  0.5340780000000  0.5467600000000 1.0
C      1  0.4811110000000  0.5158160000000  0.4824270000000 1.0
C      1  0.5156370000000  0.5944040000000  0.4730840000000 1.0
C      1  0.5550450000000  0.5166940000000  0.4910430000000 1.0
C      1  0.5632190000000  0.4749440000000  0.4474710000000 1.0
C      1  0.4109070000000  0.4708600000000  0.4828480000000 1.0
C      1  0.4592730000000  0.5542890000000  0.4956570000000 1.0
C      1  0.4626770000000  0.5659860000000  0.5595570000000 1.0
C      1  0.5004880000000  0.4880840000000  0.5540700000000 1.0
C      1  0.4554150000000  0.4878400000000  0.5295060000000 1.0
C      1  0.5366280000000  0.4636810000000  0.5781810000000 1.0
C      1  0.4464820000000  0.4929600000000  0.4975340000000 1.0
C      1  0.4364910000000  0.4706540000000  0.4344710000000 1.0
C      1  0.4525220000000  0.5099060000000  0.5967790000000 1.0
C      1  0.4532480000000  0.4217290000000  0.4654460000000 1.0
C      1  0.4794400000000  0.4954390000000  0.4483840000000 1.0
C      1  0.5798220000000  0.4848870000000  0.5476580000000 1.0
C      1  0.4947370000000  0.4680600000000  0.4580570000000 1.0
C      1  0.4490180000000  0.5396490000000  0.5497980000000 1.0
C      1  0.5565090000000  0.5681340000000  0.4979310000000 1.0
C      1  0.4544850000000  0.4515860000000  0.4297490000000 1.0
C      1  0.5097730000000  0.4157360000000  0.4620400000000 1.0
C      1  0.5645660000000  0.5026220000000  0.4313370000000 1.0
C      1  0.5582510000000  0.4526120000000  0.5140870000000 1.0
C      1  0.4790380000000  0.5159320000000  0.5856590000000 1.0
C      1  0.5446280000000  0.5027020000000  0.5204560000000 1.0
C      1  0.5404150000000  0.5481640000000  0.4316080000000 1.0
C      1  0.4974890000000  0.5341730000000  0.4050200000000 1.0
C      1  0.4903650000000  0.5360660000000  0.4567150000000 1.0
C      1  0.5086990000000  0.5699290000000  0.5291390000000 1.0
C      1  0.4636320000000  0.5240110000000  0.4394930000000 1.0
C      1  0.5368870000000  0.4834100000000  0.4792500000000 1.0
C      1  0.5640310000000  0.4357560000000  0.5378590000000 1.0
C      1  0.4765020000000  0.5637330000000  0.5221120000000 1.0
C      1  0.6026230000000  0.4982620000000  0.5279140000000 1.0
C      1  0.4936490000000  0.4205530000000  0.5458630000000 1.0
C      1  0.4409420000000  0.5184010000000  0.4623680000000 1.0
C      1  0.5301660000000  0.4833040000000  0.5443750000000 1.0
C      1  0.5101480000000  0.4657950000000  0.4842220000000 1.0
C      1  0.4841260000000  0.4222250000000  0.4785810000000 1.0
C      1  0.4558810000000  0.4312160000000  0.5220880000000 1.0
C      1  0.5961020000000  0.4878490000000  0.4995200000000 1.0
C      1  0.5575560000000  0.4831350000000  0.5635210000000 1.0
C      1  0.4822210000000  0.5966690000000  0.5158790000000 1.0
C      1  0.5142890000000  0.4355350000000  0.5262440000000 1.0
C      1  0.5334930000000  0.4923710000000  0.4272820000000 1.0
C      1  0.4248290000000  0.4989780000000  0.5524890000000 1.0
C      1  0.5357880000000  0.4499260000000  0.5470430000000 1.0
C      1  0.5343060000000  0.4618460000000  0.4530700000000 1.0
C      1  0.5865890000000  0.5061060000000  0.4564210000000 1.0
C      1  0.4848790000000  0.5703280000000  0.4369160000000 1.0
C      1  0.4898350000000  0.5812370000000  0.4887810000000 1.0
C      1  0.4286280000000  0.5992670000000  0.4806790000000 1.0
C      1  0.5086310000000  0.5490960000000  0.4309020000000 1.0
C      1  0.5751340000000  0.5310600000000  0.4725850000000 1.0
C      1  0.4885850000000  0.4551180000000  0.5929030000000 1.0
C      1  0.5391250000000  0.5324140000000  0.5350160000000 1.0
C      1  0.4901790000000  0.5887380000000  0.4560770000000 1.0
C      1  0.4657770000000  0.4516500000000  0.5706170000000 1.0
C      1  0.5001320000000  0.5269870000000  0.5154550000000 1.0
END
