TITL C-2847956-8218-434 -0.00221070933817741 125000 -544.95708621923 0 0 101 (C1) n - 1
REM
REM in /home/bkarasulu/work/CARBON/AIRSS/Generating-Clusters/AIREBO/with-SteepDescent/Only-C1/SD-CG-opt/Try1-1.4A-POS3A/HFTN-CG
REM
REM
REM
REM
REM
REM ./C.cell (11c1c37f851c82e70ff6c80c92926a4b)
REM
REM compiler GCC version 9.2.1 20190827 (Red Hat 9.2.1-1)
REM options -cpp -mtune=generic -march=x86-64 -g -O0 -fpre-include=/usr/include/finclude/math-vector-fortran.h
REM seed 115893791 745874706 -816939063 768819527 -1645082348 1356742085 -936799377 -1136856372 1129116154 1692132529 -1376014012 917772034 -794797467 -1776222082 259372608 1230063748 -511686391 -787610359 -238726941 -1798571805 1582031969 363465773 792117658 -353829596 725390472 123117595 1578153407 324595387 2028569724 2143708953 -885719877 -1996262553 160895370
REM
CELL 1.54180   50.00000   50.00000   50.00000   90.00000   90.00000   90.00000
LATT -1
SFAC C  
C      1  0.5247670000000  0.4156310000000  0.4722090000000 1.0
C      1  0.4891010000000  0.4285790000000  0.4429120000000 1.0
C      1  0.5716700000000  0.4638740000000  0.5109740000000 1.0
C      1  0.5584160000000  0.5260780000000  0.4602660000000 1.0
C      1  0.5245090000000  0.5353030000000  0.4117700000000 1.0
C      1  0.4812410000000  0.4430730000000  0.4179560000000 1.0
C      1  0.4796080000000  0.5532860000000  0.4852490000000 1.0
C      1  0.4834060000000  0.4604460000000  0.4537350000000 1.0
C      1  0.5047170000000  0.4908020000000  0.5162210000000 1.0
C      1  0.4976730000000  0.5247040000000  0.4890590000000 1.0
C      1  0.4957870000000  0.4139790000000  0.4663530000000 1.0
C      1  0.5414860000000  0.4923480000000  0.4811910000000 1.0
C      1  0.5345440000000  0.4554640000000  0.5558150000000 1.0
C      1  0.4257740000000  0.5693650000000  0.5271680000000 1.0
C      1  0.4338980000000  0.4770850000000  0.4655010000000 1.0
C      1  0.4380660000000  0.5536670000000  0.4569990000000 1.0
C      1  0.5433550000000  0.5787570000000  0.5434280000000 1.0
C      1  0.5797850000000  0.4818300000000  0.4831410000000 1.0
C      1  0.4733410000000  0.5315340000000  0.5319850000000 1.0
C      1  0.5535940000000  0.5558390000000  0.4678170000000 1.0
C      1  0.5198610000000  0.5539320000000  0.5440720000000 1.0
C      1  0.5359360000000  0.4310630000000  0.4504230000000 1.0
C      1  0.4566270000000  0.5685380000000  0.4653650000000 1.0
C      1  0.5602410000000  0.5589760000000  0.4949490000000 1.0
C      1  0.5200150000000  0.5505360000000  0.4886300000000 1.0
C      1  0.4386730000000  0.4498900000000  0.5176410000000 1.0
C      1  0.4976370000000  0.5835180000000  0.4663090000000 1.0
C      1  0.5540610000000  0.4868510000000  0.5704160000000 1.0
C      1  0.5348730000000  0.4578170000000  0.4542820000000 1.0
C      1  0.4961380000000  0.5511890000000  0.4558850000000 1.0
C      1  0.4807300000000  0.4953950000000  0.4926690000000 1.0
C      1  0.5300210000000  0.4748180000000  0.3698750000000 1.0
C      1  0.5634080000000  0.5371070000000  0.5306820000000 1.0
C      1  0.5156370000000  0.4840890000000  0.3888100000000 1.0
C      1  0.4995950000000  0.4931710000000  0.4133400000000 1.0
C      1  0.5172250000000  0.5063580000000  0.4392620000000 1.0
C      1  0.5179230000000  0.4315060000000  0.5287580000000 1.0
C      1  0.4889720000000  0.5244730000000  0.4447480000000 1.0
C      1  0.5697270000000  0.4830750000000  0.5404090000000 1.0
C      1  0.4652120000000  0.4672210000000  0.5052570000000 1.0
C      1  0.4715670000000  0.4287710000000  0.5387360000000 1.0
C      1  0.4584990000000  0.4596600000000  0.4727710000000 1.0
C      1  0.5405360000000  0.5246550000000  0.4891700000000 1.0
C      1  0.5392260000000  0.4522820000000  0.5123010000000 1.0
C      1  0.4740320000000  0.4189190000000  0.4844230000000 1.0
C      1  0.4848110000000  0.4712180000000  0.5327630000000 1.0
C      1  0.4531660000000  0.5699910000000  0.5240510000000 1.0
C      1  0.5035890000000  0.5703160000000  0.5191130000000 1.0
C      1  0.5653010000000  0.5005010000000  0.4189080000000 1.0
C      1  0.4462860000000  0.4882380000000  0.5241630000000 1.0
C      1  0.4590710000000  0.5427650000000  0.5075820000000 1.0
C      1  0.5309600000000  0.4790560000000  0.5315930000000 1.0
C      1  0.5456450000000  0.5194300000000  0.4330550000000 1.0
C      1  0.5257510000000  0.5663800000000  0.4590980000000 1.0
C      1  0.4822760000000  0.5345340000000  0.5885560000000 1.0
C      1  0.4718460000000  0.4857650000000  0.5799930000000 1.0
C      1  0.4968180000000  0.5263630000000  0.4120290000000 1.0
C      1  0.5651620000000  0.5437680000000  0.5629400000000 1.0
C      1  0.5057610000000  0.4129070000000  0.5091860000000 1.0
C      1  0.4156460000000  0.5426020000000  0.5248470000000 1.0
C      1  0.4297900000000  0.5272080000000  0.5001430000000 1.0
C      1  0.4517410000000  0.5369800000000  0.5778760000000 1.0
C      1  0.4167790000000  0.4504790000000  0.4997440000000 1.0
C      1  0.4810670000000  0.5766590000000  0.5416480000000 1.0
C      1  0.4970050000000  0.4459980000000  0.5461550000000 1.0
C      1  0.4343150000000  0.5182020000000  0.5665810000000 1.0
C      1  0.4452180000000  0.4333110000000  0.5389640000000 1.0
C      1  0.4329650000000  0.5000500000000  0.4516760000000 1.0
C      1  0.5417290000000  0.4229450000000  0.4952690000000 1.0
C      1  0.4386430000000  0.5259540000000  0.4690570000000 1.0
C      1  0.4783020000000  0.5012960000000  0.5437280000000 1.0
C      1  0.5126280000000  0.5010570000000  0.4697270000000 1.0
C      1  0.4680600000000  0.5502180000000  0.5551730000000 1.0
C      1  0.5040720000000  0.4783420000000  0.5882800000000 1.0
C      1  0.5099310000000  0.4569210000000  0.4956770000000 1.0
C      1  0.4499550000000  0.4938680000000  0.5574930000000 1.0
C      1  0.5782460000000  0.5111980000000  0.4835630000000 1.0
C      1  0.4898010000000  0.5086710000000  0.5929340000000 1.0
C      1  0.4892840000000  0.5844210000000  0.4957760000000 1.0
C      1  0.4214580000000  0.4290410000000  0.4809440000000 1.0
C      1  0.5375460000000  0.5048530000000  0.5527580000000 1.0
C      1  0.5822990000000  0.5375140000000  0.5033100000000 1.0
C      1  0.5602310000000  0.4743100000000  0.4592660000000 1.0
C      1  0.5358640000000  0.5704030000000  0.5113330000000 1.0
C      1  0.4491400000000  0.4292620000000  0.4738570000000 1.0
C      1  0.4841270000000  0.4391530000000  0.5088890000000 1.0
C      1  0.4812180000000  0.4719650000000  0.4221030000000 1.0
C      1  0.5379460000000  0.4787220000000  0.5913540000000 1.0
C      1  0.4969880000000  0.5577440000000  0.5681460000000 1.0
C      1  0.5736140000000  0.4808370000000  0.4323360000000 1.0
C      1  0.5325690000000  0.5319600000000  0.5214250000000 1.0
C      1  0.5812600000000  0.5106110000000  0.5235830000000 1.0
C      1  0.5043770000000  0.5198030000000  0.5301060000000 1.0
C      1  0.5114150000000  0.4527310000000  0.5731570000000 1.0
C      1  0.5096390000000  0.4689130000000  0.4680430000000 1.0
C      1  0.5381490000000  0.5313440000000  0.5609700000000 1.0
C      1  0.4140590000000  0.5277420000000  0.5491430000000 1.0
C      1  0.4256130000000  0.4976160000000  0.5070600000000 1.0
C      1  0.4168270000000  0.4772120000000  0.4885910000000 1.0
C      1  0.5545380000000  0.4932390000000  0.5117210000000 1.0
C      1  0.4683960000000  0.5119640000000  0.4656320000000 1.0
END
