TITL C-2847959-7740-717 -0.00215778841188333 125000 -940.719913392396 0 0 174 (C1) n - 1
REM
REM in /home/bkarasulu/work/CARBON/AIRSS/Generating-Clusters/AIREBO/with-SteepDescent/Only-C1/SD-CG-opt/Try1-1.4A-POS3A/HFTN-CG
REM
REM
REM
REM
REM
REM ./C.cell (11c1c37f851c82e70ff6c80c92926a4b)
REM
REM compiler GCC version 9.2.1 20190827 (Red Hat 9.2.1-1)
REM options -cpp -mtune=generic -march=x86-64 -g -O0 -fpre-include=/usr/include/finclude/math-vector-fortran.h
REM seed 903159003 1922998468 -437716217 1609963822 1794624045 1139219391 -456894586 -1175727817 -1680831917 366810948 1487789706 401206420 -698658786 -967617125 -2056122031 -1934103302 1682599389 1291778977 480412893 1542745106 1397510154 1940565430 -552003553 738478472 1045539853 1649688239 -1750284021 1242922577 2119028653 1261297718 1306698869 1923075347 553249918
REM
CELL 1.54180   50.00000   50.00000   50.00000   90.00000   90.00000   90.00000
LATT -1
SFAC C  
C      1  0.5146600000000  0.5359720000000  0.4027520000000 1.0
C      1  0.5128590000000  0.4285580000000  0.4340310000000 1.0
C      1  0.5052810000000  0.5200370000000  0.4600660000000 1.0
C      1  0.5177590000000  0.6071940000000  0.4452090000000 1.0
C      1  0.4986250000000  0.4558100000000  0.4234160000000 1.0
C      1  0.4971450000000  0.5177690000000  0.4887880000000 1.0
C      1  0.5828380000000  0.4638100000000  0.4483610000000 1.0
C      1  0.5185640000000  0.4670820000000  0.3782630000000 1.0
C      1  0.5832010000000  0.4919780000000  0.4522240000000 1.0
C      1  0.5548830000000  0.4998100000000  0.5102110000000 1.0
C      1  0.4134110000000  0.5057600000000  0.5685870000000 1.0
C      1  0.4364650000000  0.5572500000000  0.5103820000000 1.0
C      1  0.5490420000000  0.5114130000000  0.6114830000000 1.0
C      1  0.5515790000000  0.4924930000000  0.4021370000000 1.0
C      1  0.5852970000000  0.5093560000000  0.4983620000000 1.0
C      1  0.5152810000000  0.5762680000000  0.5438800000000 1.0
C      1  0.4526800000000  0.6031190000000  0.5030790000000 1.0
C      1  0.5164590000000  0.4773240000000  0.4886820000000 1.0
C      1  0.4694350000000  0.5342590000000  0.5217510000000 1.0
C      1  0.5184280000000  0.4891450000000  0.4331360000000 1.0
C      1  0.4023990000000  0.5603620000000  0.5498040000000 1.0
C      1  0.4416730000000  0.4509460000000  0.5149880000000 1.0
C      1  0.5689840000000  0.5549980000000  0.5055910000000 1.0
C      1  0.4430890000000  0.4507340000000  0.5913650000000 1.0
C      1  0.4257200000000  0.4797880000000  0.4357300000000 1.0
C      1  0.4895190000000  0.4125110000000  0.5534160000000 1.0
C      1  0.4403950000000  0.4401960000000  0.5631560000000 1.0
C      1  0.4215550000000  0.5500270000000  0.5363150000000 1.0
C      1  0.4525010000000  0.5042650000000  0.6023150000000 1.0
C      1  0.4609500000000  0.4838970000000  0.5577100000000 1.0
C      1  0.4595130000000  0.6042560000000  0.4767660000000 1.0
C      1  0.4125770000000  0.4256550000000  0.5047460000000 1.0
C      1  0.5573110000000  0.5778100000000  0.4580430000000 1.0
C      1  0.4667670000000  0.4015980000000  0.5083420000000 1.0
C      1  0.5615990000000  0.4678510000000  0.5057450000000 1.0
C      1  0.4648530000000  0.4090640000000  0.5681020000000 1.0
C      1  0.5080200000000  0.5495910000000  0.4512000000000 1.0
C      1  0.4894280000000  0.5971570000000  0.4714980000000 1.0
C      1  0.5001460000000  0.5670900000000  0.5928780000000 1.0
C      1  0.5190480000000  0.3910880000000  0.4906380000000 1.0
C      1  0.5250120000000  0.5540420000000  0.4296290000000 1.0
C      1  0.5434560000000  0.4916600000000  0.5650200000000 1.0
C      1  0.4956490000000  0.4088940000000  0.4473200000000 1.0
C      1  0.4537570000000  0.5564080000000  0.4743670000000 1.0
C      1  0.4604700000000  0.4789350000000  0.3969660000000 1.0
C      1  0.4418190000000  0.4169070000000  0.5198990000000 1.0
C      1  0.5016750000000  0.6074070000000  0.5500630000000 1.0
C      1  0.5326730000000  0.4522710000000  0.4198240000000 1.0
C      1  0.4815760000000  0.4494910000000  0.5814500000000 1.0
C      1  0.5710800000000  0.5370590000000  0.4330420000000 1.0
C      1  0.4653120000000  0.4265070000000  0.5911990000000 1.0
C      1  0.4669920000000  0.5775110000000  0.4346630000000 1.0
C      1  0.5615760000000  0.5272110000000  0.5643800000000 1.0
C      1  0.4917950000000  0.5918840000000  0.4394010000000 1.0
C      1  0.5957260000000  0.4471640000000  0.4657350000000 1.0
C      1  0.5478460000000  0.5747100000000  0.5839450000000 1.0
C      1  0.4848890000000  0.4725370000000  0.6181390000000 1.0
C      1  0.4070780000000  0.5675440000000  0.4910980000000 1.0
C      1  0.4532970000000  0.4924200000000  0.4905770000000 1.0
C      1  0.5408870000000  0.6079220000000  0.4963710000000 1.0
C      1  0.4523580000000  0.4435640000000  0.4582820000000 1.0
C      1  0.5079740000000  0.3939400000000  0.5360890000000 1.0
C      1  0.4887610000000  0.5029990000000  0.4392600000000 1.0
C      1  0.5703080000000  0.4787080000000  0.5804770000000 1.0
C      1  0.4462150000000  0.5136060000000  0.5639400000000 1.0
C      1  0.3942110000000  0.4753770000000  0.5001800000000 1.0
C      1  0.4811230000000  0.5522500000000  0.6055890000000 1.0
C      1  0.5500470000000  0.4390500000000  0.4921220000000 1.0
C      1  0.5815670000000  0.5231250000000  0.4560550000000 1.0
C      1  0.4928660000000  0.4705160000000  0.3953680000000 1.0
C      1  0.4428430000000  0.5144400000000  0.4687890000000 1.0
C      1  0.4048070000000  0.5021460000000  0.4961900000000 1.0
C      1  0.4934070000000  0.5708760000000  0.5085740000000 1.0
C      1  0.4116430000000  0.5362840000000  0.4519130000000 1.0
C      1  0.5213930000000  0.5305390000000  0.5091610000000 1.0
C      1  0.4322890000000  0.4069300000000  0.4294180000000 1.0
C      1  0.5998620000000  0.4788060000000  0.5031710000000 1.0
C      1  0.5081540000000  0.6097890000000  0.4901000000000 1.0
C      1  0.5175920000000  0.5186420000000  0.3776350000000 1.0
C      1  0.5204320000000  0.4202420000000  0.5633560000000 1.0
C      1  0.4153300000000  0.4558040000000  0.4276030000000 1.0
C      1  0.5272710000000  0.4463990000000  0.5629210000000 1.0
C      1  0.4788760000000  0.4181270000000  0.4879200000000 1.0
C      1  0.4402000000000  0.5245790000000  0.5329050000000 1.0
C      1  0.5010050000000  0.4335320000000  0.5292090000000 1.0
C      1  0.5380270000000  0.4319390000000  0.4536170000000 1.0
C      1  0.4960640000000  0.4411630000000  0.4975670000000 1.0
C      1  0.5232530000000  0.4466520000000  0.4797550000000 1.0
C      1  0.4091110000000  0.4807880000000  0.5501650000000 1.0
C      1  0.5340300000000  0.5158360000000  0.4221670000000 1.0
C      1  0.4536300000000  0.5802410000000  0.4601510000000 1.0
C      1  0.4921470000000  0.5009890000000  0.4054860000000 1.0
C      1  0.4989570000000  0.4737910000000  0.5697830000000 1.0
C      1  0.5763890000000  0.4401340000000  0.5424860000000 1.0
C      1  0.6148080000000  0.5075890000000  0.5524260000000 1.0
C      1  0.4170770000000  0.4627940000000  0.5352810000000 1.0
C      1  0.4383130000000  0.4622600000000  0.4830800000000 1.0
C      1  0.4891030000000  0.5553810000000  0.5379680000000 1.0
C      1  0.4236340000000  0.4867050000000  0.4645440000000 1.0
C      1  0.5449790000000  0.4081960000000  0.5021370000000 1.0
C      1  0.5286670000000  0.5333240000000  0.5700750000000 1.0
C      1  0.4741620000000  0.4199910000000  0.4609590000000 1.0
C      1  0.5980760000000  0.4642380000000  0.5403990000000 1.0
C      1  0.5949160000000  0.4908620000000  0.5430540000000 1.0
C      1  0.4794640000000  0.4705790000000  0.4436300000000 1.0
C      1  0.5684450000000  0.5083900000000  0.5908000000000 1.0
C      1  0.5700530000000  0.5599560000000  0.5678690000000 1.0
C      1  0.5606940000000  0.5839760000000  0.4897470000000 1.0
C      1  0.6031580000000  0.4958840000000  0.4754530000000 1.0
C      1  0.5368330000000  0.4806860000000  0.4545390000000 1.0
C      1  0.5223180000000  0.5028410000000  0.6080810000000 1.0
C      1  0.5206520000000  0.5631120000000  0.3873670000000 1.0
C      1  0.5656700000000  0.5195870000000  0.4102630000000 1.0
C      1  0.4928050000000  0.5644120000000  0.4752000000000 1.0
C      1  0.5103660000000  0.3897580000000  0.4633090000000 1.0
C      1  0.4649490000000  0.5759500000000  0.5502000000000 1.0
C      1  0.4783190000000  0.4588210000000  0.4740950000000 1.0
C      1  0.5676980000000  0.5430930000000  0.5349380000000 1.0
C      1  0.5183620000000  0.6013500000000  0.5211090000000 1.0
C      1  0.4817170000000  0.4815310000000  0.5236650000000 1.0
C      1  0.5274890000000  0.5051450000000  0.5296540000000 1.0
C      1  0.5907930000000  0.5787010000000  0.5005220000000 1.0
C      1  0.4262170000000  0.5059170000000  0.5977110000000 1.0
C      1  0.5315130000000  0.4262790000000  0.5256160000000 1.0
C      1  0.5362660000000  0.5543600000000  0.5285010000000 1.0
C      1  0.4080730000000  0.4507580000000  0.4935020000000 1.0
C      1  0.4605850000000  0.5757960000000  0.5164800000000 1.0
C      1  0.5099270000000  0.5295690000000  0.5455260000000 1.0
C      1  0.4380910000000  0.4339200000000  0.4318290000000 1.0
C      1  0.4403810000000  0.4128600000000  0.5511720000000 1.0
C      1  0.4652740000000  0.4778050000000  0.5908840000000 1.0
C      1  0.5402470000000  0.4685940000000  0.3955790000000 1.0
C      1  0.5121900000000  0.5042240000000  0.5762620000000 1.0
C      1  0.5217630000000  0.5722230000000  0.5762770000000 1.0
C      1  0.4540670000000  0.4869250000000  0.4277620000000 1.0
C      1  0.4877870000000  0.6226910000000  0.5646640000000 1.0
C      1  0.4697920000000  0.5277750000000  0.5991070000000 1.0
C      1  0.4556740000000  0.4574210000000  0.5432730000000 1.0
C      1  0.4979310000000  0.3911410000000  0.5103810000000 1.0
C      1  0.5883890000000  0.4493170000000  0.4960020000000 1.0
C      1  0.5374710000000  0.5005700000000  0.4809340000000 1.0
C      1  0.5232370000000  0.4756520000000  0.5460490000000 1.0
C      1  0.4850840000000  0.4862240000000  0.4930640000000 1.0
C      1  0.5541410000000  0.4576050000000  0.4442020000000 1.0
C      1  0.5378740000000  0.6026510000000  0.4628980000000 1.0
C      1  0.4659230000000  0.5114430000000  0.3876280000000 1.0
C      1  0.5442600000000  0.5516490000000  0.4728110000000 1.0
C      1  0.4585510000000  0.5175820000000  0.4407070000000 1.0
C      1  0.5053020000000  0.4890530000000  0.6250100000000 1.0
C      1  0.3899050000000  0.5214530000000  0.5691270000000 1.0
C      1  0.5783820000000  0.4537000000000  0.5734380000000 1.0
C      1  0.5372320000000  0.3995530000000  0.5458450000000 1.0
C      1  0.5231560000000  0.4639400000000  0.5157990000000 1.0
C      1  0.5376930000000  0.5231760000000  0.4554110000000 1.0
C      1  0.5664810000000  0.5019710000000  0.5421180000000 1.0
C      1  0.4597310000000  0.5480130000000  0.4255330000000 1.0
C      1  0.5209910000000  0.5575440000000  0.4920780000000 1.0
C      1  0.5559880000000  0.4073120000000  0.4494600000000 1.0
C      1  0.4806540000000  0.5367320000000  0.4049570000000 1.0
C      1  0.4750430000000  0.5400900000000  0.4910260000000 1.0
C      1  0.5734700000000  0.4236380000000  0.5125820000000 1.0
C      1  0.5503130000000  0.4509290000000  0.5301360000000 1.0
C      1  0.4875690000000  0.4581030000000  0.5426810000000 1.0
C      1  0.5523940000000  0.5585970000000  0.4344130000000 1.0
C      1  0.4759210000000  0.5077760000000  0.5386750000000 1.0
C      1  0.5658310000000  0.5306660000000  0.4852890000000 1.0
C      1  0.4266270000000  0.5412400000000  0.4820300000000 1.0
C      1  0.4272230000000  0.5419650000000  0.4305300000000 1.0
C      1  0.4307470000000  0.5077770000000  0.5079170000000 1.0
C      1  0.4541120000000  0.5190920000000  0.3639400000000 1.0
C      1  0.4480790000000  0.4523850000000  0.4053030000000 1.0
C      1  0.5550170000000  0.5776820000000  0.5447690000000 1.0
C      1  0.4029680000000  0.5124170000000  0.4677130000000 1.0
C      1  0.4802900000000  0.5155560000000  0.5713970000000 1.0
END
