TITL C-2848504-8560-560 0.00386764827922231 125000 -787.822618192313 0 0 146 (C1) n - 1
REM
REM in /home/bkarasulu/work/CARBON/AIRSS/Generating-Clusters/AIREBO/with-SteepDescent/Only-C1/SD-CG-opt/Try1-1.4A-POS3A/HFTN-CG
REM
REM
REM
REM
REM
REM ./C.cell (11c1c37f851c82e70ff6c80c92926a4b)
REM
REM compiler GCC version 9.2.1 20190827 (Red Hat 9.2.1-1)
REM options -cpp -mtune=generic -march=x86-64 -g -O0 -fpre-include=/usr/include/finclude/math-vector-fortran.h
REM seed 1162607846 -258720665 -1938533567 2111963450 429856000 -1605520872 -2082412055 6936 1950877404 -534559676 1235616043 -1007934921 321967770 1935465226 -1271766426 -1024506261 1608394643 -1444617084 1673422758 -1987659364 99249247 -1104920459 -1542926111 981512580 -1428984240 787377494 -62128723 -392509676 -23328149 -1707452167 -2006261014 663992658 846631969
REM
CELL 1.54180   50.00000   50.00000   50.00000   90.00000   90.00000   90.00000
LATT -1
SFAC C  
C      1  0.5887800000000  0.5315490000000  0.4513700000000 1.0
C      1  0.5102310000000  0.4928030000000  0.4735160000000 1.0
C      1  0.4984590000000  0.4592500000000  0.6053370000000 1.0
C      1  0.5234890000000  0.4111880000000  0.5030200000000 1.0
C      1  0.5056960000000  0.5105330000000  0.4182750000000 1.0
C      1  0.5500920000000  0.5014930000000  0.4490910000000 1.0
C      1  0.5162700000000  0.5167150000000  0.5083340000000 1.0
C      1  0.5045990000000  0.4375370000000  0.4647500000000 1.0
C      1  0.4493850000000  0.5183680000000  0.4631700000000 1.0
C      1  0.4070150000000  0.4918310000000  0.4737510000000 1.0
C      1  0.5430660000000  0.5561820000000  0.5668920000000 1.0
C      1  0.4436170000000  0.5972910000000  0.4685540000000 1.0
C      1  0.4286700000000  0.4813110000000  0.5222620000000 1.0
C      1  0.4454540000000  0.5289100000000  0.5335860000000 1.0
C      1  0.4349910000000  0.5117530000000  0.5110360000000 1.0
C      1  0.4199880000000  0.5264260000000  0.4888190000000 1.0
C      1  0.5538340000000  0.4502230000000  0.4851160000000 1.0
C      1  0.5113660000000  0.4416110000000  0.5121880000000 1.0
C      1  0.5555940000000  0.4578430000000  0.4453860000000 1.0
C      1  0.4530710000000  0.4886860000000  0.4469900000000 1.0
C      1  0.5147120000000  0.4054150000000  0.4437350000000 1.0
C      1  0.4622750000000  0.5545470000000  0.5086950000000 1.0
C      1  0.5661330000000  0.4226920000000  0.5293860000000 1.0
C      1  0.5606170000000  0.5315530000000  0.5713550000000 1.0
C      1  0.5017660000000  0.5276150000000  0.5556250000000 1.0
C      1  0.4617610000000  0.5462100000000  0.4167380000000 1.0
C      1  0.4856730000000  0.5737380000000  0.5207630000000 1.0
C      1  0.5805180000000  0.5255540000000  0.5506280000000 1.0
C      1  0.4661270000000  0.4575510000000  0.4428740000000 1.0
C      1  0.5192220000000  0.4087260000000  0.4754120000000 1.0
C      1  0.5018310000000  0.4606130000000  0.4080390000000 1.0
C      1  0.4827830000000  0.4604490000000  0.4723810000000 1.0
C      1  0.5099510000000  0.4660980000000  0.4920430000000 1.0
C      1  0.5591660000000  0.5308160000000  0.4344550000000 1.0
C      1  0.4833970000000  0.4869480000000  0.5357080000000 1.0
C      1  0.4843660000000  0.4401820000000  0.4204040000000 1.0
C      1  0.4450670000000  0.4983840000000  0.4172110000000 1.0
C      1  0.4390440000000  0.4483000000000  0.4245090000000 1.0
C      1  0.4842230000000  0.4079940000000  0.5209240000000 1.0
C      1  0.5689030000000  0.4688860000000  0.4246620000000 1.0
C      1  0.5537270000000  0.4887380000000  0.4113930000000 1.0
C      1  0.4266940000000  0.4728630000000  0.4616950000000 1.0
C      1  0.5399400000000  0.4767830000000  0.4688910000000 1.0
C      1  0.4880820000000  0.4264620000000  0.4925660000000 1.0
C      1  0.5590160000000  0.4255490000000  0.4676500000000 1.0
C      1  0.4594100000000  0.4930600000000  0.4995400000000 1.0
C      1  0.5094920000000  0.5199490000000  0.4569060000000 1.0
C      1  0.4391070000000  0.5479480000000  0.4769230000000 1.0
C      1  0.4945020000000  0.5503040000000  0.4602300000000 1.0
C      1  0.4935810000000  0.5409510000000  0.4275220000000 1.0
C      1  0.4344840000000  0.4497390000000  0.4846110000000 1.0
C      1  0.4921690000000  0.4541270000000  0.5373090000000 1.0
C      1  0.5349340000000  0.5923860000000  0.4815280000000 1.0
C      1  0.4716940000000  0.5026020000000  0.5635430000000 1.0
C      1  0.4907710000000  0.4854640000000  0.4015600000000 1.0
C      1  0.5701790000000  0.5197030000000  0.5187360000000 1.0
C      1  0.5224010000000  0.5547990000000  0.4784020000000 1.0
C      1  0.4624980000000  0.4493580000000  0.5214040000000 1.0
C      1  0.4792440000000  0.5314920000000  0.5366510000000 1.0
C      1  0.4344670000000  0.5151920000000  0.6081110000000 1.0
C      1  0.5607560000000  0.4943620000000  0.4981560000000 1.0
C      1  0.4068280000000  0.5187620000000  0.4611810000000 1.0
C      1  0.5515770000000  0.4555780000000  0.5458540000000 1.0
C      1  0.5688310000000  0.5155010000000  0.4737570000000 1.0
C      1  0.5316890000000  0.4880340000000  0.5063090000000 1.0
C      1  0.5262130000000  0.5222130000000  0.3943780000000 1.0
C      1  0.5029040000000  0.4991550000000  0.5694270000000 1.0
C      1  0.4281390000000  0.5549510000000  0.5639060000000 1.0
C      1  0.4889050000000  0.4128810000000  0.4340530000000 1.0
C      1  0.4536410000000  0.5610810000000  0.5409660000000 1.0
C      1  0.5758400000000  0.4709110000000  0.4851740000000 1.0
C      1  0.4354450000000  0.5247370000000  0.4186630000000 1.0
C      1  0.5259670000000  0.4585750000000  0.5890100000000 1.0
C      1  0.4105570000000  0.5277940000000  0.4337450000000 1.0
C      1  0.5400610000000  0.4879240000000  0.5813230000000 1.0
C      1  0.4655530000000  0.6007490000000  0.4565010000000 1.0
C      1  0.5450920000000  0.4453010000000  0.5140990000000 1.0
C      1  0.5411340000000  0.5150190000000  0.5882180000000 1.0
C      1  0.5455380000000  0.5135220000000  0.5369570000000 1.0
C      1  0.5100430000000  0.4691300000000  0.5627800000000 1.0
C      1  0.6018100000000  0.4667630000000  0.4895830000000 1.0
C      1  0.4847180000000  0.5016630000000  0.4424510000000 1.0
C      1  0.4903640000000  0.4220920000000  0.5485580000000 1.0
C      1  0.4337920000000  0.4431680000000  0.5593420000000 1.0
C      1  0.5125460000000  0.5750340000000  0.4453900000000 1.0
C      1  0.4798380000000  0.5659480000000  0.5627800000000 1.0
C      1  0.4526710000000  0.4734970000000  0.5416350000000 1.0
C      1  0.5933780000000  0.4768960000000  0.5388760000000 1.0
C      1  0.4652760000000  0.4247840000000  0.4519520000000 1.0
C      1  0.4631240000000  0.4893270000000  0.3975010000000 1.0
C      1  0.4616560000000  0.4639340000000  0.4942000000000 1.0
C      1  0.4659680000000  0.4010130000000  0.4936720000000 1.0
C      1  0.4525540000000  0.5463860000000  0.4470200000000 1.0
C      1  0.5172860000000  0.6012150000000  0.5405120000000 1.0
C      1  0.5060100000000  0.5876640000000  0.5623130000000 1.0
C      1  0.4431870000000  0.5759750000000  0.4904560000000 1.0
C      1  0.5377060000000  0.4289460000000  0.4441390000000 1.0
C      1  0.4599640000000  0.5656340000000  0.3969240000000 1.0
C      1  0.5312600000000  0.5254620000000  0.4825390000000 1.0
C      1  0.4901520000000  0.5865240000000  0.4647650000000 1.0
C      1  0.4579520000000  0.5021210000000  0.6103210000000 1.0
C      1  0.5167590000000  0.4550450000000  0.4380760000000 1.0
C      1  0.4516150000000  0.4216320000000  0.4758620000000 1.0
C      1  0.4896510000000  0.5064490000000  0.5994970000000 1.0
C      1  0.5673780000000  0.5849890000000  0.5221720000000 1.0
C      1  0.5835820000000  0.4497580000000  0.5402940000000 1.0
C      1  0.6114900000000  0.5120130000000  0.5060910000000 1.0
C      1  0.6030880000000  0.5083930000000  0.5382740000000 1.0
C      1  0.5397070000000  0.5897590000000  0.5245950000000 1.0
C      1  0.4583760000000  0.5517030000000  0.5791500000000 1.0
C      1  0.5218520000000  0.4177790000000  0.5526820000000 1.0
C      1  0.5596370000000  0.5399980000000  0.4944300000000 1.0
C      1  0.4574400000000  0.4629950000000  0.5736140000000 1.0
C      1  0.5355590000000  0.4386720000000  0.5659030000000 1.0
C      1  0.4384670000000  0.4323170000000  0.5202460000000 1.0
C      1  0.4140180000000  0.4524500000000  0.5118340000000 1.0
C      1  0.4737720000000  0.4767150000000  0.5944790000000 1.0
C      1  0.5520540000000  0.5167500000000  0.4050370000000 1.0
C      1  0.6120150000000  0.4808460000000  0.5115560000000 1.0
C      1  0.5372710000000  0.4093610000000  0.5295900000000 1.0
C      1  0.5064360000000  0.5467840000000  0.5208380000000 1.0
C      1  0.5154500000000  0.5279060000000  0.5941840000000 1.0
C      1  0.4772880000000  0.5045960000000  0.4745040000000 1.0
C      1  0.4035770000000  0.4892860000000  0.5007490000000 1.0
C      1  0.5267050000000  0.4866690000000  0.4303440000000 1.0
C      1  0.4110190000000  0.4461200000000  0.5451400000000 1.0
C      1  0.4841870000000  0.5121530000000  0.5128720000000 1.0
C      1  0.5068130000000  0.6001170000000  0.4881000000000 1.0
C      1  0.4178800000000  0.4573960000000  0.4358430000000 1.0
C      1  0.5172600000000  0.4863750000000  0.5343790000000 1.0
C      1  0.4281490000000  0.5281390000000  0.5848390000000 1.0
C      1  0.4563200000000  0.5912640000000  0.5178440000000 1.0
C      1  0.5750440000000  0.5659730000000  0.5035890000000 1.0
C      1  0.5275530000000  0.5422250000000  0.4287510000000 1.0
C      1  0.5262070000000  0.5697400000000  0.5053610000000 1.0
C      1  0.5009640000000  0.5991520000000  0.5151240000000 1.0
C      1  0.4805570000000  0.5357690000000  0.4876900000000 1.0
C      1  0.6015400000000  0.5207830000000  0.4814350000000 1.0
C      1  0.4511380000000  0.5224450000000  0.5634160000000 1.0
C      1  0.5293780000000  0.5374710000000  0.5441480000000 1.0
C      1  0.5371510000000  0.5838510000000  0.4544020000000 1.0
C      1  0.5449480000000  0.4847850000000  0.5514970000000 1.0
C      1  0.5784210000000  0.4083290000000  0.4690130000000 1.0
C      1  0.4044420000000  0.5683010000000  0.5605030000000 1.0
C      1  0.5098960000000  0.5549260000000  0.5742820000000 1.0
C      1  0.4644270000000  0.4303480000000  0.5662190000000 1.0
END
