TITL C-2847950-6905-352 -0.00152457275220703 125000 -316.992338056513 0 0 61 (C1) n - 1
REM
REM in /home/bkarasulu/work/CARBON/AIRSS/Generating-Clusters/AIREBO/with-SteepDescent/Only-C1/SD-CG-opt/Try1-1.4A-POS3A/HFTN-CG
REM
REM
REM
REM
REM
REM ./C.cell (11c1c37f851c82e70ff6c80c92926a4b)
REM
REM compiler GCC version 9.2.1 20190827 (Red Hat 9.2.1-1)
REM options -cpp -mtune=generic -march=x86-64 -g -O0 -fpre-include=/usr/include/finclude/math-vector-fortran.h
REM seed -1728626145 -1949753327 227511280 -419668581 776833971 1726056094 1875981140 -921751722 1238007490 1099355503 1376955223 -162644159 -1324079154 1208637454 -1908840890 -714581270 -2095770260 -2076735694 -264034603 444895134 -1327793776 -618533150 721217495 -268363106 -2092705270 644002595 -806874215 -1569790890 -1412388069 1347107194 1903828660 1639254352 1716166800
REM
CELL 1.54180   50.00000   50.00000   50.00000   90.00000   90.00000   90.00000
LATT -1
SFAC C  
C      1  0.4288440000000  0.5093380000000  0.4888710000000 1.0
C      1  0.5762000000000  0.5063770000000  0.5287510000000 1.0
C      1  0.5541760000000  0.5235710000000  0.4694560000000 1.0
C      1  0.5457620000000  0.4453700000000  0.5177240000000 1.0
C      1  0.5342750000000  0.5620210000000  0.4987840000000 1.0
C      1  0.4537180000000  0.4815270000000  0.4653710000000 1.0
C      1  0.5584260000000  0.5449240000000  0.4867560000000 1.0
C      1  0.5346290000000  0.5106520000000  0.5103500000000 1.0
C      1  0.5108220000000  0.4786050000000  0.5234310000000 1.0
C      1  0.5137630000000  0.5560920000000  0.4487590000000 1.0
C      1  0.4704680000000  0.4539890000000  0.5379070000000 1.0
C      1  0.4747800000000  0.4674280000000  0.4882030000000 1.0
C      1  0.4519470000000  0.4471890000000  0.4979730000000 1.0
C      1  0.5254100000000  0.4686800000000  0.4778190000000 1.0
C      1  0.5339400000000  0.4781100000000  0.4372670000000 1.0
C      1  0.4256980000000  0.5257690000000  0.5104950000000 1.0
C      1  0.5119780000000  0.5447000000000  0.5499010000000 1.0
C      1  0.5468750000000  0.5380430000000  0.5164870000000 1.0
C      1  0.5009350000000  0.5083460000000  0.5142870000000 1.0
C      1  0.5006160000000  0.4820950000000  0.4736550000000 1.0
C      1  0.5015620000000  0.5235380000000  0.4306680000000 1.0
C      1  0.4712770000000  0.5263260000000  0.4440550000000 1.0
C      1  0.4801740000000  0.4765830000000  0.4499150000000 1.0
C      1  0.5081590000000  0.4333580000000  0.5069800000000 1.0
C      1  0.5533230000000  0.5116200000000  0.5456880000000 1.0
C      1  0.5402460000000  0.5403110000000  0.5467770000000 1.0
C      1  0.4724510000000  0.5769560000000  0.5087600000000 1.0
C      1  0.4751150000000  0.5238670000000  0.4881970000000 1.0
C      1  0.4846050000000  0.4978830000000  0.4267740000000 1.0
C      1  0.4257220000000  0.4651760000000  0.4713390000000 1.0
C      1  0.4313190000000  0.4888360000000  0.5432920000000 1.0
C      1  0.5652350000000  0.4982440000000  0.4756040000000 1.0
C      1  0.5038860000000  0.5116580000000  0.4801050000000 1.0
C      1  0.5562170000000  0.4451540000000  0.4852910000000 1.0
C      1  0.4528080000000  0.5149040000000  0.4675490000000 1.0
C      1  0.4853630000000  0.5559010000000  0.4536560000000 1.0
C      1  0.4668900000000  0.5142950000000  0.5611640000000 1.0
C      1  0.5382150000000  0.5049840000000  0.4318320000000 1.0
C      1  0.5540230000000  0.4713050000000  0.4630320000000 1.0
C      1  0.4907390000000  0.4579970000000  0.5139200000000 1.0
C      1  0.4899690000000  0.5652010000000  0.5365220000000 1.0
C      1  0.4823910000000  0.5444850000000  0.5106370000000 1.0
C      1  0.4467940000000  0.5180950000000  0.5354950000000 1.0
C      1  0.5018930000000  0.4361310000000  0.5547610000000 1.0
C      1  0.5243280000000  0.5245690000000  0.4559090000000 1.0
C      1  0.5701790000000  0.4934470000000  0.5040580000000 1.0
C      1  0.4973530000000  0.5183550000000  0.5466190000000 1.0
C      1  0.4593560000000  0.5489120000000  0.5352620000000 1.0
C      1  0.4877040000000  0.4915600000000  0.5653410000000 1.0
C      1  0.4501820000000  0.4737930000000  0.5190920000000 1.0
C      1  0.4730920000000  0.4238610000000  0.5537030000000 1.0
C      1  0.5242050000000  0.4372100000000  0.4850730000000 1.0
C      1  0.5217410000000  0.4317830000000  0.5336730000000 1.0
C      1  0.5067470000000  0.4714700000000  0.4306340000000 1.0
C      1  0.5404490000000  0.4772260000000  0.5070920000000 1.0
C      1  0.4933370000000  0.4659960000000  0.5600260000000 1.0
C      1  0.5348380000000  0.4900380000000  0.5446130000000 1.0
C      1  0.4822740000000  0.5684500000000  0.4787750000000 1.0
C      1  0.5078220000000  0.5631410000000  0.4971650000000 1.0
C      1  0.4273100000000  0.4820150000000  0.4953070000000 1.0
C      1  0.4674430000000  0.5025420000000  0.5134040000000 1.0
END
