TITL C-2848494-1720-484 0.00121070565143167 125000 -1018.80216977504 0 0 185 (C1) n - 1
REM
REM in /home/bkarasulu/work/CARBON/AIRSS/Generating-Clusters/AIREBO/with-SteepDescent/Only-C1/SD-CG-opt/Try1-1.4A-POS3A/HFTN-CG
REM
REM
REM
REM
REM
REM ./C.cell (11c1c37f851c82e70ff6c80c92926a4b)
REM
REM compiler GCC version 9.2.1 20190827 (Red Hat 9.2.1-1)
REM options -cpp -mtune=generic -march=x86-64 -g -O0 -fpre-include=/usr/include/finclude/math-vector-fortran.h
REM seed -1942718084 262663422 605564780 514159241 -2060779356 991901016 -1977541646 169023550 1924025268 -1616625701 1924560306 -1323845927 -1808134277 -723119771 -2116881638 71492332 -1035542086 -318121490 884817652 -1369274636 -442669228 263449344 -67902538 37835233 162545543 -812475059 1527199255 1233549384 -1894112943 260504494 546420688 -941948382 2313485
REM
CELL 1.54180   50.00000   50.00000   50.00000   90.00000   90.00000   90.00000
LATT -1
SFAC C  
C      1  0.3944670000000  0.5340920000000  0.5461370000000 1.0
C      1  0.4671550000000  0.6138070000000  0.4769090000000 1.0
C      1  0.5161930000000  0.4624250000000  0.5730340000000 1.0
C      1  0.5444470000000  0.5468080000000  0.5909180000000 1.0
C      1  0.5375000000000  0.5967310000000  0.5301330000000 1.0
C      1  0.4189720000000  0.5086400000000  0.4187230000000 1.0
C      1  0.5984660000000  0.4788860000000  0.4392990000000 1.0
C      1  0.4849830000000  0.4457070000000  0.5053390000000 1.0
C      1  0.5392540000000  0.5886690000000  0.5584810000000 1.0
C      1  0.5171120000000  0.5249960000000  0.5219170000000 1.0
C      1  0.5177540000000  0.4469690000000  0.5447840000000 1.0
C      1  0.5795210000000  0.5078800000000  0.5843180000000 1.0
C      1  0.5708710000000  0.5584630000000  0.4614090000000 1.0
C      1  0.4016320000000  0.5016070000000  0.4733000000000 1.0
C      1  0.5319830000000  0.4346710000000  0.4210830000000 1.0
C      1  0.4407630000000  0.5503920000000  0.5896840000000 1.0
C      1  0.4022090000000  0.4719490000000  0.4707500000000 1.0
C      1  0.5209150000000  0.4524890000000  0.6114490000000 1.0
C      1  0.4497240000000  0.5757380000000  0.4408250000000 1.0
C      1  0.4235720000000  0.5425650000000  0.5613940000000 1.0
C      1  0.5661710000000  0.4973750000000  0.6071340000000 1.0
C      1  0.4857790000000  0.5046200000000  0.4265780000000 1.0
C      1  0.5462350000000  0.4591100000000  0.4022210000000 1.0
C      1  0.5260010000000  0.4703840000000  0.5242780000000 1.0
C      1  0.4491480000000  0.5202870000000  0.5821860000000 1.0
C      1  0.4869500000000  0.6012220000000  0.5020140000000 1.0
C      1  0.5569100000000  0.5220930000000  0.5623080000000 1.0
C      1  0.4768730000000  0.5065690000000  0.4570890000000 1.0
C      1  0.5475080000000  0.4954870000000  0.5467500000000 1.0
C      1  0.5770010000000  0.5412570000000  0.5819310000000 1.0
C      1  0.4182370000000  0.4780270000000  0.5849500000000 1.0
C      1  0.3914560000000  0.4570450000000  0.4969330000000 1.0
C      1  0.5513180000000  0.4715400000000  0.4431090000000 1.0
C      1  0.5336830000000  0.5641040000000  0.4274630000000 1.0
C      1  0.5402640000000  0.5092920000000  0.4363560000000 1.0
C      1  0.4917220000000  0.5139820000000  0.5062900000000 1.0
C      1  0.4253090000000  0.5019280000000  0.5723680000000 1.0
C      1  0.4229970000000  0.5537340000000  0.4441600000000 1.0
C      1  0.5531860000000  0.5197790000000  0.4826280000000 1.0
C      1  0.4240060000000  0.5906350000000  0.4981580000000 1.0
C      1  0.4345410000000  0.4529420000000  0.5743230000000 1.0
C      1  0.5089500000000  0.4466620000000  0.4007200000000 1.0
C      1  0.4700250000000  0.5348940000000  0.5013750000000 1.0
C      1  0.4627400000000  0.4067760000000  0.5395300000000 1.0
C      1  0.5181840000000  0.4872430000000  0.4767020000000 1.0
C      1  0.5117280000000  0.4300120000000  0.5191790000000 1.0
C      1  0.5959180000000  0.4732740000000  0.4728930000000 1.0
C      1  0.4622140000000  0.4646110000000  0.5584090000000 1.0
C      1  0.4780770000000  0.5038550000000  0.3933890000000 1.0
C      1  0.3879660000000  0.4648070000000  0.5225980000000 1.0
C      1  0.5001550000000  0.5115480000000  0.4763800000000 1.0
C      1  0.4397030000000  0.5294390000000  0.4290230000000 1.0
C      1  0.4628240000000  0.5695460000000  0.5934800000000 1.0
C      1  0.5112890000000  0.4011420000000  0.5337100000000 1.0
C      1  0.5010230000000  0.3989190000000  0.4483200000000 1.0
C      1  0.5128490000000  0.4639520000000  0.4983140000000 1.0
C      1  0.5059960000000  0.5534450000000  0.4736570000000 1.0
C      1  0.4608120000000  0.5292520000000  0.4076030000000 1.0
C      1  0.5246020000000  0.6036650000000  0.4682840000000 1.0
C      1  0.5372310000000  0.4122380000000  0.5043610000000 1.0
C      1  0.4907060000000  0.4533570000000  0.3767700000000 1.0
C      1  0.4331910000000  0.4517060000000  0.4384860000000 1.0
C      1  0.5714950000000  0.4744140000000  0.4190690000000 1.0
C      1  0.5280020000000  0.3818580000000  0.5165460000000 1.0
C      1  0.4928000000000  0.6043190000000  0.5528350000000 1.0
C      1  0.5173410000000  0.5626080000000  0.5351310000000 1.0
C      1  0.4907090000000  0.4149090000000  0.5540700000000 1.0
C      1  0.4283290000000  0.5583580000000  0.5102210000000 1.0
C      1  0.4493030000000  0.5831700000000  0.5505900000000 1.0
C      1  0.4963810000000  0.5837880000000  0.4120910000000 1.0
C      1  0.4751750000000  0.5818740000000  0.5658850000000 1.0
C      1  0.5169480000000  0.4105530000000  0.4760280000000 1.0
C      1  0.5385530000000  0.4297490000000  0.5770410000000 1.0
C      1  0.5072850000000  0.4302580000000  0.5795370000000 1.0
C      1  0.4199430000000  0.5285070000000  0.5243050000000 1.0
C      1  0.5554340000000  0.4593660000000  0.5319140000000 1.0
C      1  0.5858870000000  0.4583280000000  0.5572980000000 1.0
C      1  0.5560920000000  0.4654770000000  0.4984560000000 1.0
C      1  0.5574530000000  0.5620390000000  0.5634380000000 1.0
C      1  0.5398420000000  0.4693480000000  0.5928910000000 1.0
C      1  0.4612110000000  0.4020350000000  0.5118250000000 1.0
C      1  0.4825410000000  0.4524700000000  0.4750560000000 1.0
C      1  0.5377870000000  0.5544270000000  0.4667320000000 1.0
C      1  0.3838010000000  0.5267640000000  0.4864360000000 1.0
C      1  0.5656690000000  0.5304480000000  0.5245020000000 1.0
C      1  0.4413710000000  0.4712590000000  0.5107440000000 1.0
C      1  0.5442250000000  0.4928420000000  0.4949330000000 1.0
C      1  0.4491950000000  0.5185650000000  0.5156480000000 1.0
C      1  0.5596380000000  0.4133210000000  0.5299350000000 1.0
C      1  0.5314370000000  0.5481760000000  0.3986250000000 1.0
C      1  0.5726510000000  0.4346810000000  0.4490570000000 1.0
C      1  0.4444200000000  0.4623130000000  0.4105410000000 1.0
C      1  0.4540100000000  0.4854560000000  0.5375670000000 1.0
C      1  0.5060440000000  0.5933050000000  0.5257450000000 1.0
C      1  0.4964700000000  0.6001600000000  0.4693810000000 1.0
C      1  0.5343330000000  0.4457160000000  0.4829190000000 1.0
C      1  0.5063430000000  0.5510800000000  0.5050930000000 1.0
C      1  0.5063430000000  0.3882260000000  0.4963090000000 1.0
C      1  0.4802110000000  0.5025610000000  0.5345060000000 1.0
C      1  0.4359010000000  0.5427250000000  0.4822020000000 1.0
C      1  0.5902440000000  0.5111130000000  0.5337110000000 1.0
C      1  0.4783620000000  0.3869730000000  0.4942220000000 1.0
C      1  0.5878470000000  0.5091880000000  0.4327060000000 1.0
C      1  0.5670960000000  0.4610190000000  0.4664540000000 1.0
C      1  0.5567340000000  0.5819670000000  0.5061320000000 1.0
C      1  0.5618070000000  0.5063310000000  0.4112320000000 1.0
C      1  0.5180530000000  0.4861340000000  0.5520870000000 1.0
C      1  0.6102330000000  0.5202310000000  0.4926310000000 1.0
C      1  0.4831040000000  0.5252720000000  0.5582690000000 1.0
C      1  0.4858450000000  0.4481410000000  0.5514630000000 1.0
C      1  0.4528730000000  0.4412540000000  0.5156820000000 1.0
C      1  0.5226040000000  0.5233210000000  0.5822390000000 1.0
C      1  0.5037180000000  0.5591490000000  0.4014910000000 1.0
C      1  0.5452270000000  0.5841820000000  0.4781440000000 1.0
C      1  0.4828440000000  0.5831640000000  0.4431730000000 1.0
C      1  0.5819110000000  0.5603080000000  0.5037100000000 1.0
C      1  0.4404050000000  0.4176100000000  0.5507110000000 1.0
C      1  0.5228640000000  0.5695310000000  0.5813100000000 1.0
C      1  0.4528640000000  0.5781930000000  0.5220630000000 1.0
C      1  0.4407490000000  0.4216620000000  0.4930250000000 1.0
C      1  0.5553920000000  0.4118410000000  0.4572090000000 1.0
C      1  0.4027810000000  0.5331200000000  0.4594850000000 1.0
C      1  0.4321230000000  0.5740240000000  0.4698820000000 1.0
C      1  0.4513200000000  0.5261870000000  0.5487670000000 1.0
C      1  0.4562380000000  0.5302990000000  0.4579520000000 1.0
C      1  0.5540670000000  0.5838810000000  0.4453120000000 1.0
C      1  0.5807970000000  0.5348100000000  0.4811900000000 1.0
C      1  0.5194010000000  0.4752190000000  0.4159320000000 1.0
C      1  0.4919010000000  0.4507550000000  0.6020430000000 1.0
C      1  0.5277150000000  0.5346180000000  0.5516270000000 1.0
C      1  0.4892100000000  0.5377910000000  0.4199210000000 1.0
C      1  0.5869500000000  0.4531950000000  0.5207280000000 1.0
C      1  0.4222540000000  0.4502880000000  0.4920130000000 1.0
C      1  0.5792200000000  0.4289860000000  0.5410790000000 1.0
C      1  0.6122300000000  0.5139780000000  0.5185190000000 1.0
C      1  0.4581800000000  0.4314900000000  0.4147420000000 1.0
C      1  0.5108280000000  0.5025090000000  0.4036550000000 1.0
C      1  0.5231070000000  0.4840650000000  0.4474670000000 1.0
C      1  0.4632430000000  0.5800370000000  0.4778070000000 1.0
C      1  0.5668170000000  0.5566020000000  0.4289520000000 1.0
C      1  0.4584660000000  0.4216290000000  0.4667610000000 1.0
C      1  0.5133920000000  0.5192040000000  0.6207440000000 1.0
C      1  0.4835610000000  0.4828840000000  0.5929910000000 1.0
C      1  0.4746930000000  0.5527790000000  0.4755950000000 1.0
C      1  0.4922130000000  0.5301910000000  0.6072320000000 1.0
C      1  0.5435200000000  0.5100260000000  0.5200530000000 1.0
C      1  0.4533510000000  0.6058900000000  0.5061890000000 1.0
C      1  0.5542940000000  0.4538950000000  0.5654730000000 1.0
C      1  0.5056450000000  0.5579980000000  0.4412170000000 1.0
C      1  0.4745640000000  0.4734170000000  0.4189910000000 1.0
C      1  0.4731050000000  0.3936790000000  0.4670120000000 1.0
C      1  0.5333540000000  0.4458930000000  0.4514550000000 1.0
C      1  0.4754610000000  0.4192490000000  0.4373730000000 1.0
C      1  0.4654170000000  0.4811380000000  0.4697100000000 1.0
C      1  0.5033290000000  0.4370180000000  0.4595050000000 1.0
C      1  0.5817460000000  0.4423260000000  0.4237340000000 1.0
C      1  0.4937670000000  0.5545910000000  0.5582960000000 1.0
C      1  0.4769720000000  0.5627520000000  0.5145050000000 1.0
C      1  0.5800330000000  0.4904570000000  0.5556590000000 1.0
C      1  0.4622680000000  0.4580410000000  0.5910910000000 1.0
C      1  0.5291270000000  0.5230520000000  0.4627270000000 1.0
C      1  0.4309030000000  0.4473910000000  0.5409580000000 1.0
C      1  0.5345250000000  0.5000590000000  0.6040220000000 1.0
C      1  0.3880650000000  0.5301470000000  0.5127610000000 1.0
C      1  0.5904510000000  0.4460400000000  0.4927190000000 1.0
C      1  0.5349590000000  0.5199560000000  0.3989430000000 1.0
C      1  0.4177550000000  0.4820500000000  0.4186700000000 1.0
C      1  0.5321810000000  0.4081690000000  0.4392540000000 1.0
C      1  0.4498280000000  0.4935600000000  0.4926130000000 1.0
C      1  0.4535170000000  0.4515760000000  0.4585970000000 1.0
C      1  0.5624270000000  0.4269780000000  0.4868730000000 1.0
C      1  0.5934470000000  0.5070270000000  0.4661720000000 1.0
C      1  0.5509380000000  0.5594130000000  0.5308100000000 1.0
C      1  0.5925000000000  0.5507600000000  0.5294180000000 1.0
C      1  0.4070700000000  0.4647420000000  0.4430120000000 1.0
C      1  0.4260200000000  0.5743420000000  0.5614210000000 1.0
C      1  0.4723900000000  0.5116830000000  0.5988300000000 1.0
C      1  0.4230260000000  0.4992290000000  0.5413610000000 1.0
C      1  0.4290650000000  0.5131240000000  0.4816930000000 1.0
C      1  0.5005930000000  0.5011930000000  0.5726620000000 1.0
C      1  0.5847850000000  0.5381670000000  0.4182090000000 1.0
C      1  0.4106230000000  0.4705480000000  0.5362240000000 1.0
C      1  0.4729180000000  0.4733720000000  0.3850270000000 1.0
C      1  0.4918380000000  0.4474370000000  0.4292200000000 1.0
C      1  0.4932020000000  0.5577960000000  0.5920810000000 1.0
END
