TITL C-2848499-1157-366 0.00551682700951683 125000 -248.238361855045 0 0 46 (C1) n - 1
REM
REM in /home/bkarasulu/work/CARBON/AIRSS/Generating-Clusters/AIREBO/with-SteepDescent/Only-C1/SD-CG-opt/Try1-1.4A-POS3A/HFTN-CG
REM
REM
REM
REM
REM
REM ./C.cell (11c1c37f851c82e70ff6c80c92926a4b)
REM
REM compiler GCC version 9.2.1 20190827 (Red Hat 9.2.1-1)
REM options -cpp -mtune=generic -march=x86-64 -g -O0 -fpre-include=/usr/include/finclude/math-vector-fortran.h
REM seed 1795884321 -95267116 1128465057 533347084 -425330817 1299405139 240999236 -916025573 -847965047 1119535401 -1367528768 734754810 -638630074 -645453740 775692367 2083308483 -5331973 -529851583 -1749431082 -1314243758 1439728780 342605763 31546391 -1374057824 212017889 1656763876 -82903016 1760608394 348907109 -700125771 -1791993313 -1312271322 -106360623
REM
CELL 1.54180   50.00000   50.00000   50.00000   90.00000   90.00000   90.00000
LATT -1
SFAC C  
C      1  0.5343410000000  0.5647210000000  0.4922000000000 1.0
C      1  0.5306930000000  0.5475430000000  0.4719350000000 1.0
C      1  0.5348380000000  0.5514390000000  0.5462440000000 1.0
C      1  0.4956320000000  0.5211080000000  0.5580300000000 1.0
C      1  0.4837590000000  0.5214470000000  0.4419040000000 1.0
C      1  0.5188320000000  0.4544490000000  0.5100920000000 1.0
C      1  0.4768730000000  0.4864140000000  0.5214300000000 1.0
C      1  0.4916300000000  0.4409140000000  0.4700910000000 1.0
C      1  0.4701180000000  0.5378380000000  0.5431530000000 1.0
C      1  0.5271750000000  0.5248700000000  0.5539430000000 1.0
C      1  0.4240490000000  0.4845500000000  0.5140020000000 1.0
C      1  0.4590400000000  0.4718540000000  0.4804650000000 1.0
C      1  0.5164710000000  0.4483570000000  0.4833550000000 1.0
C      1  0.5151100000000  0.5246620000000  0.5158140000000 1.0
C      1  0.4740120000000  0.4637240000000  0.4524030000000 1.0
C      1  0.4761510000000  0.4951510000000  0.4391850000000 1.0
C      1  0.5402320000000  0.5038590000000  0.5388510000000 1.0
C      1  0.4758330000000  0.4540710000000  0.5265730000000 1.0
C      1  0.5222920000000  0.4775100000000  0.5350160000000 1.0
C      1  0.5593520000000  0.4995580000000  0.4835430000000 1.0
C      1  0.4925340000000  0.5361410000000  0.4712830000000 1.0
C      1  0.5299530000000  0.5166000000000  0.4797710000000 1.0
C      1  0.5129430000000  0.4832710000000  0.4493410000000 1.0
C      1  0.4658170000000  0.5051720000000  0.4798030000000 1.0
C      1  0.5010630000000  0.5020680000000  0.5318880000000 1.0
C      1  0.4655200000000  0.5057170000000  0.5545060000000 1.0
C      1  0.4902100000000  0.4766720000000  0.4931830000000 1.0
C      1  0.4477000000000  0.4999660000000  0.5260940000000 1.0
C      1  0.5289080000000  0.5549320000000  0.5180480000000 1.0
C      1  0.5435870000000  0.5706860000000  0.5627280000000 1.0
C      1  0.4786190000000  0.4575260000000  0.5593740000000 1.0
C      1  0.4565420000000  0.5187780000000  0.5031620000000 1.0
C      1  0.5319910000000  0.4622810000000  0.4640640000000 1.0
C      1  0.4933890000000  0.4712630000000  0.4255990000000 1.0
C      1  0.4945020000000  0.5433950000000  0.5008520000000 1.0
C      1  0.4700100000000  0.5405420000000  0.5145730000000 1.0
C      1  0.5060650000000  0.4491020000000  0.5411510000000 1.0
C      1  0.5578900000000  0.5022110000000  0.4501450000000 1.0
C      1  0.5154260000000  0.5331410000000  0.4459820000000 1.0
C      1  0.4994120000000  0.5029130000000  0.4736150000000 1.0
C      1  0.4276040000000  0.4757080000000  0.4903120000000 1.0
C      1  0.5465370000000  0.5134460000000  0.5092860000000 1.0
C      1  0.5578570000000  0.4730940000000  0.4647110000000 1.0
C      1  0.5313650000000  0.5074810000000  0.4407110000000 1.0
C      1  0.4616980000000  0.4446520000000  0.5006970000000 1.0
C      1  0.4664260000000  0.4792010000000  0.5708950000000 1.0
END
