TITL C-2848508-1660-129 9.67457453387655e-05 125000 -839.361025398228 0 0 156 (C1) n - 1
REM
REM in /home/bkarasulu/work/CARBON/AIRSS/Generating-Clusters/AIREBO/with-SteepDescent/Only-C1/SD-CG-opt/Try1-1.4A-POS3A/HFTN-CG
REM
REM
REM
REM
REM
REM ./C.cell (11c1c37f851c82e70ff6c80c92926a4b)
REM
REM compiler GCC version 9.2.1 20190827 (Red Hat 9.2.1-1)
REM options -cpp -mtune=generic -march=x86-64 -g -O0 -fpre-include=/usr/include/finclude/math-vector-fortran.h
REM seed 825287275 -265504248 1179819884 2110173248 -434082290 -521455685 162622579 -1632553481 -916603212 1543559904 1733488869 -1559059353 2068322380 -670014483 596840621 -297388977 -1550014864 -215358711 -1022325468 -1506350815 -380627096 -158119691 63526765 2079097436 68614027 -468394360 -364729944 523699372 660280664 528786991 -1855836259 -2015350466 -1873113581
REM
CELL 1.54180   50.00000   50.00000   50.00000   90.00000   90.00000   90.00000
LATT -1
SFAC C  
C      1  0.4450780000000  0.5746600000000  0.4959150000000 1.0
C      1  0.4910770000000  0.4949550000000  0.5403100000000 1.0
C      1  0.4661270000000  0.4884740000000  0.5181180000000 1.0
C      1  0.5305210000000  0.4946900000000  0.5522500000000 1.0
C      1  0.4353970000000  0.4503000000000  0.5474380000000 1.0
C      1  0.5542110000000  0.5135380000000  0.5472950000000 1.0
C      1  0.5046080000000  0.4979730000000  0.4351320000000 1.0
C      1  0.5195050000000  0.3975130000000  0.4915120000000 1.0
C      1  0.5117060000000  0.5221610000000  0.4551980000000 1.0
C      1  0.4783260000000  0.5871400000000  0.5396650000000 1.0
C      1  0.5012670000000  0.5413680000000  0.4908670000000 1.0
C      1  0.5237060000000  0.4564090000000  0.4961390000000 1.0
C      1  0.4798760000000  0.4118120000000  0.4704670000000 1.0
C      1  0.4146500000000  0.5438630000000  0.5642130000000 1.0
C      1  0.5812860000000  0.4898980000000  0.5742790000000 1.0
C      1  0.5046250000000  0.5897450000000  0.5248820000000 1.0
C      1  0.4800110000000  0.4335850000000  0.3869340000000 1.0
C      1  0.5271660000000  0.5727030000000  0.4482670000000 1.0
C      1  0.5045910000000  0.4328500000000  0.4807240000000 1.0
C      1  0.5293650000000  0.6200440000000  0.4494890000000 1.0
C      1  0.4580690000000  0.5330850000000  0.4466960000000 1.0
C      1  0.5838880000000  0.5518470000000  0.4754860000000 1.0
C      1  0.4628600000000  0.4168350000000  0.5208230000000 1.0
C      1  0.4616420000000  0.5752570000000  0.4448700000000 1.0
C      1  0.4621790000000  0.5059830000000  0.6027350000000 1.0
C      1  0.4916540000000  0.5542530000000  0.5578830000000 1.0
C      1  0.4685540000000  0.4574020000000  0.3785700000000 1.0
C      1  0.4891390000000  0.4503300000000  0.4349390000000 1.0
C      1  0.5712970000000  0.4478550000000  0.5085770000000 1.0
C      1  0.5160110000000  0.4939040000000  0.4078650000000 1.0
C      1  0.5633590000000  0.4235550000000  0.4894440000000 1.0
C      1  0.4282990000000  0.5346440000000  0.4509250000000 1.0
C      1  0.5877350000000  0.4232730000000  0.4114500000000 1.0
C      1  0.4791100000000  0.5417150000000  0.5156560000000 1.0
C      1  0.4715730000000  0.4199790000000  0.4430060000000 1.0
C      1  0.5607200000000  0.4963540000000  0.4200490000000 1.0
C      1  0.4377100000000  0.4995530000000  0.4343490000000 1.0
C      1  0.5462000000000  0.5631560000000  0.5011650000000 1.0
C      1  0.4804610000000  0.4526610000000  0.4672480000000 1.0
C      1  0.4685770000000  0.5148070000000  0.4881950000000 1.0
C      1  0.4028460000000  0.4709330000000  0.4712710000000 1.0
C      1  0.4605640000000  0.4926400000000  0.5657510000000 1.0
C      1  0.5527690000000  0.4557560000000  0.5530540000000 1.0
C      1  0.4095580000000  0.4172070000000  0.4587640000000 1.0
C      1  0.4748530000000  0.4531940000000  0.4976230000000 1.0
C      1  0.5705860000000  0.5147150000000  0.5835020000000 1.0
C      1  0.5787620000000  0.4165440000000  0.4417230000000 1.0
C      1  0.3952830000000  0.5169480000000  0.4931970000000 1.0
C      1  0.5095880000000  0.4724200000000  0.5947110000000 1.0
C      1  0.5032750000000  0.5311300000000  0.6068890000000 1.0
C      1  0.4598320000000  0.5680780000000  0.5257080000000 1.0
C      1  0.5384380000000  0.4763220000000  0.5950650000000 1.0
C      1  0.5472890000000  0.4475380000000  0.4756010000000 1.0
C      1  0.4566990000000  0.4510950000000  0.5732800000000 1.0
C      1  0.4049770000000  0.5203600000000  0.5628000000000 1.0
C      1  0.5251110000000  0.5625860000000  0.5256560000000 1.0
C      1  0.5181050000000  0.4344030000000  0.5481850000000 1.0
C      1  0.4416060000000  0.4875570000000  0.5416700000000 1.0
C      1  0.5588500000000  0.5922670000000  0.5001850000000 1.0
C      1  0.5978780000000  0.5048590000000  0.5305830000000 1.0
C      1  0.3969240000000  0.5394580000000  0.5186470000000 1.0
C      1  0.5688570000000  0.4437700000000  0.4277480000000 1.0
C      1  0.5052610000000  0.5210150000000  0.4025400000000 1.0
C      1  0.4155290000000  0.5023530000000  0.5393370000000 1.0
C      1  0.4350640000000  0.5197850000000  0.4911980000000 1.0
C      1  0.5568100000000  0.5582060000000  0.5391340000000 1.0
C      1  0.4223470000000  0.4546090000000  0.4938480000000 1.0
C      1  0.5416460000000  0.4757680000000  0.4593360000000 1.0
C      1  0.4825270000000  0.4275740000000  0.4126720000000 1.0
C      1  0.4740930000000  0.5358150000000  0.5900460000000 1.0
C      1  0.4770440000000  0.5536050000000  0.4273290000000 1.0
C      1  0.4522890000000  0.4093380000000  0.4892610000000 1.0
C      1  0.4869360000000  0.5398280000000  0.4633530000000 1.0
C      1  0.4099780000000  0.5104840000000  0.4454190000000 1.0
C      1  0.4901480000000  0.4759320000000  0.5671640000000 1.0
C      1  0.5696960000000  0.5427340000000  0.5117330000000 1.0
C      1  0.4625830000000  0.5482480000000  0.4866640000000 1.0
C      1  0.4902370000000  0.4898610000000  0.4941490000000 1.0
C      1  0.4768420000000  0.5258220000000  0.4087060000000 1.0
C      1  0.5235970000000  0.4663470000000  0.5391180000000 1.0
C      1  0.4238080000000  0.4578410000000  0.5786370000000 1.0
C      1  0.5312370000000  0.6005610000000  0.5392270000000 1.0
C      1  0.5635920000000  0.4992040000000  0.4675460000000 1.0
C      1  0.4157410000000  0.5687380000000  0.4919790000000 1.0
C      1  0.5208770000000  0.4085270000000  0.4634030000000 1.0
C      1  0.3970770000000  0.4940200000000  0.5167640000000 1.0
C      1  0.5076690000000  0.5359000000000  0.5331790000000 1.0
C      1  0.4636430000000  0.4565260000000  0.5295360000000 1.0
C      1  0.5364740000000  0.4589010000000  0.3805500000000 1.0
C      1  0.6114310000000  0.5164520000000  0.5077970000000 1.0
C      1  0.6203960000000  0.4773700000000  0.4652020000000 1.0
C      1  0.5590420000000  0.5140670000000  0.4410840000000 1.0
C      1  0.5507600000000  0.4662590000000  0.4284810000000 1.0
C      1  0.3966440000000  0.5660700000000  0.5117670000000 1.0
C      1  0.4870610000000  0.5671450000000  0.5870230000000 1.0
C      1  0.4998200000000  0.4657780000000  0.5153630000000 1.0
C      1  0.5738890000000  0.4463680000000  0.5364980000000 1.0
C      1  0.6159270000000  0.4982750000000  0.4878710000000 1.0
C      1  0.5203250000000  0.5739970000000  0.5887130000000 1.0
C      1  0.4931310000000  0.5015620000000  0.5976670000000 1.0
C      1  0.4856550000000  0.4045770000000  0.5680980000000 1.0
C      1  0.5196140000000  0.5063930000000  0.5768900000000 1.0
C      1  0.4583430000000  0.5045780000000  0.4098520000000 1.0
C      1  0.4230890000000  0.4568410000000  0.4121280000000 1.0
C      1  0.4890720000000  0.4495820000000  0.5502390000000 1.0
C      1  0.4399620000000  0.5503680000000  0.5448180000000 1.0
C      1  0.5637700000000  0.5952560000000  0.4724760000000 1.0
C      1  0.5803070000000  0.4097530000000  0.4683090000000 1.0
C      1  0.3964370000000  0.4666950000000  0.5122520000000 1.0
C      1  0.4578490000000  0.5832160000000  0.4678460000000 1.0
C      1  0.4501690000000  0.4691130000000  0.4264080000000 1.0
C      1  0.5670250000000  0.4737750000000  0.4980200000000 1.0
C      1  0.5165950000000  0.4949000000000  0.4729440000000 1.0
C      1  0.5059430000000  0.5299000000000  0.5666220000000 1.0
C      1  0.5601950000000  0.4686390000000  0.5770160000000 1.0
C      1  0.5621500000000  0.5575390000000  0.4283660000000 1.0
C      1  0.4330410000000  0.4316210000000  0.4722550000000 1.0
C      1  0.5853550000000  0.5780830000000  0.4646020000000 1.0
C      1  0.4626460000000  0.4781830000000  0.3958940000000 1.0
C      1  0.5361150000000  0.4878880000000  0.4998890000000 1.0
C      1  0.4431960000000  0.4797400000000  0.4945550000000 1.0
C      1  0.5559720000000  0.5153210000000  0.4964980000000 1.0
C      1  0.5888060000000  0.4833760000000  0.4766430000000 1.0
C      1  0.4660840000000  0.4247710000000  0.5537300000000 1.0
C      1  0.4707480000000  0.5035500000000  0.4562960000000 1.0
C      1  0.5405930000000  0.5553590000000  0.5905570000000 1.0
C      1  0.4523550000000  0.4456790000000  0.4509700000000 1.0
C      1  0.5104700000000  0.4096360000000  0.5654800000000 1.0
C      1  0.5532710000000  0.5419650000000  0.4755320000000 1.0
C      1  0.5073710000000  0.5605660000000  0.4293940000000 1.0
C      1  0.5182630000000  0.5048940000000  0.5236280000000 1.0
C      1  0.4281890000000  0.5274940000000  0.5225680000000 1.0
C      1  0.4369950000000  0.4374730000000  0.5172290000000 1.0
C      1  0.5291790000000  0.4321610000000  0.5193410000000 1.0
C      1  0.5449810000000  0.5077780000000  0.5992070000000 1.0
C      1  0.3997050000000  0.4977880000000  0.4678880000000 1.0
C      1  0.4397670000000  0.4966520000000  0.4681690000000 1.0
C      1  0.5328060000000  0.4727590000000  0.4038380000000 1.0
C      1  0.4749770000000  0.5894410000000  0.5669000000000 1.0
C      1  0.5383200000000  0.5407360000000  0.4450130000000 1.0
C      1  0.5222630000000  0.5400040000000  0.4144500000000 1.0
C      1  0.5701360000000  0.5055740000000  0.5258380000000 1.0
C      1  0.5405580000000  0.4094430000000  0.5059540000000 1.0
C      1  0.5988740000000  0.5404220000000  0.4993400000000 1.0
C      1  0.4142860000000  0.5413430000000  0.4787240000000 1.0
C      1  0.4799920000000  0.4802120000000  0.4384130000000 1.0
C      1  0.5544240000000  0.5893710000000  0.5300340000000 1.0
C      1  0.5590590000000  0.5415150000000  0.5660150000000 1.0
C      1  0.5401220000000  0.5959430000000  0.4555340000000 1.0
C      1  0.4897860000000  0.4094740000000  0.5029130000000 1.0
C      1  0.4473040000000  0.4784610000000  0.5920080000000 1.0
C      1  0.5309020000000  0.5339030000000  0.6062170000000 1.0
C      1  0.6028390000000  0.4918850000000  0.5554670000000 1.0
C      1  0.4607520000000  0.5202010000000  0.5291010000000 1.0
C      1  0.5006050000000  0.6011460000000  0.4993210000000 1.0
C      1  0.4567570000000  0.5262700000000  0.5623820000000 1.0
END
