TITL C-2847956-8218-363 -0.000140331373686041 125000 -353.723874143103 0 0 65 (C1) n - 1
REM
REM in /home/bkarasulu/work/CARBON/AIRSS/Generating-Clusters/AIREBO/with-SteepDescent/Only-C1/SD-CG-opt/Try1-1.4A-POS3A/HFTN-CG
REM
REM
REM
REM
REM
REM ./C.cell (11c1c37f851c82e70ff6c80c92926a4b)
REM
REM compiler GCC version 9.2.1 20190827 (Red Hat 9.2.1-1)
REM options -cpp -mtune=generic -march=x86-64 -g -O0 -fpre-include=/usr/include/finclude/math-vector-fortran.h
REM seed -1067548068 1641448876 816745150 -908776593 1537822329 1126026455 -1401805092 1716826653 345121099 1804374801 1272457793 1163346633 1674616225 -1459529608 -703998691 1433045712 -56423115 491123688 -1570941039 1320077130 17892424 -1611855230 1820422464 556539504 -1132906665 45861526 846076591 -901245675 -65942980 -509476566 -1808130388 1725314478 918014975
REM
CELL 1.54180   50.00000   50.00000   50.00000   90.00000   90.00000   90.00000
LATT -1
SFAC C  
C      1  0.4458370000000  0.5622360000000  0.4983790000000 1.0
C      1  0.5627580000000  0.5416100000000  0.4726930000000 1.0
C      1  0.5759140000000  0.4854540000000  0.5246860000000 1.0
C      1  0.5364420000000  0.4874190000000  0.5669790000000 1.0
C      1  0.4755230000000  0.4772080000000  0.4209400000000 1.0
C      1  0.5024670000000  0.4874360000000  0.5649440000000 1.0
C      1  0.4694340000000  0.5720580000000  0.4863300000000 1.0
C      1  0.5175840000000  0.4898310000000  0.4856110000000 1.0
C      1  0.4441350000000  0.5132610000000  0.5488510000000 1.0
C      1  0.5113880000000  0.5056810000000  0.4296470000000 1.0
C      1  0.5572930000000  0.5076460000000  0.4747490000000 1.0
C      1  0.4525070000000  0.4993230000000  0.5714720000000 1.0
C      1  0.4716650000000  0.4804130000000  0.5687910000000 1.0
C      1  0.4982420000000  0.4420130000000  0.4853530000000 1.0
C      1  0.4864270000000  0.5056150000000  0.4468410000000 1.0
C      1  0.4907550000000  0.4248160000000  0.5125630000000 1.0
C      1  0.4581160000000  0.4968170000000  0.4342730000000 1.0
C      1  0.4790530000000  0.5560970000000  0.5317040000000 1.0
C      1  0.5127700000000  0.5491360000000  0.4843630000000 1.0
C      1  0.4725800000000  0.5151620000000  0.4830980000000 1.0
C      1  0.5183190000000  0.5349810000000  0.4558680000000 1.0
C      1  0.5268200000000  0.5469740000000  0.5398900000000 1.0
C      1  0.4950990000000  0.4645420000000  0.4415730000000 1.0
C      1  0.5140310000000  0.4561060000000  0.5591190000000 1.0
C      1  0.4668410000000  0.4582510000000  0.5466990000000 1.0
C      1  0.5498260000000  0.5222430000000  0.5046760000000 1.0
C      1  0.5544200000000  0.4503750000000  0.4951510000000 1.0
C      1  0.5472310000000  0.5097250000000  0.5539480000000 1.0
C      1  0.4900200000000  0.4814560000000  0.4706360000000 1.0
C      1  0.4784300000000  0.5358850000000  0.4567840000000 1.0
C      1  0.4875710000000  0.5642350000000  0.5563000000000 1.0
C      1  0.4425270000000  0.4891010000000  0.4566280000000 1.0
C      1  0.5522700000000  0.4651150000000  0.5221360000000 1.0
C      1  0.4163600000000  0.5092770000000  0.5049180000000 1.0
C      1  0.5249190000000  0.5654270000000  0.5180380000000 1.0
C      1  0.4779730000000  0.4449330000000  0.4608700000000 1.0
C      1  0.5291410000000  0.5329970000000  0.4278880000000 1.0
C      1  0.5434430000000  0.4602670000000  0.5521540000000 1.0
C      1  0.5129970000000  0.5553670000000  0.5628880000000 1.0
C      1  0.5430710000000  0.4772610000000  0.4678490000000 1.0
C      1  0.4508990000000  0.4636540000000  0.4657430000000 1.0
C      1  0.4656250000000  0.4428840000000  0.5097910000000 1.0
C      1  0.5281510000000  0.4481930000000  0.4773060000000 1.0
C      1  0.4387690000000  0.5125950000000  0.4805490000000 1.0
C      1  0.5571740000000  0.5240930000000  0.4449890000000 1.0
C      1  0.4818580000000  0.4803880000000  0.5271240000000 1.0
C      1  0.4463300000000  0.5356600000000  0.5044050000000 1.0
C      1  0.5428510000000  0.5525170000000  0.4946260000000 1.0
C      1  0.4450100000000  0.4407310000000  0.5307300000000 1.0
C      1  0.5651900000000  0.5102340000000  0.5297670000000 1.0
C      1  0.4669710000000  0.5271700000000  0.5301490000000 1.0
C      1  0.5387410000000  0.4967110000000  0.4402970000000 1.0
C      1  0.5028850000000  0.4626240000000  0.5108460000000 1.0
C      1  0.5252080000000  0.4575350000000  0.4448250000000 1.0
C      1  0.5255600000000  0.5150290000000  0.5282900000000 1.0
C      1  0.4938340000000  0.5079730000000  0.5387360000000 1.0
C      1  0.5733250000000  0.4620150000000  0.4742940000000 1.0
C      1  0.5270000000000  0.4836970000000  0.5151350000000 1.0
C      1  0.4936080000000  0.5658590000000  0.5044190000000 1.0
C      1  0.4617930000000  0.4939630000000  0.5072720000000 1.0
C      1  0.4955440000000  0.4447960000000  0.5386990000000 1.0
C      1  0.5040830000000  0.5173910000000  0.4807420000000 1.0
C      1  0.4371270000000  0.5015700000000  0.5228370000000 1.0
C      1  0.4724520000000  0.5619410000000  0.4599230000000 1.0
C      1  0.4678120000000  0.4670290000000  0.4922240000000 1.0
END
