TITL C-2848508-1660-250 0.000668250970458973 125000 -156.800744197803 0 0 29 (C1) n - 1
REM
REM in /home/bkarasulu/work/CARBON/AIRSS/Generating-Clusters/AIREBO/with-SteepDescent/Only-C1/SD-CG-opt/Try1-1.4A-POS3A/HFTN-CG
REM
REM
REM
REM
REM
REM ./C.cell (11c1c37f851c82e70ff6c80c92926a4b)
REM
REM compiler GCC version 9.2.1 20190827 (Red Hat 9.2.1-1)
REM options -cpp -mtune=generic -march=x86-64 -g -O0 -fpre-include=/usr/include/finclude/math-vector-fortran.h
REM seed 1794660801 -424181314 -1257622904 -2116117065 -241765458 588081582 -1085476323 -2087950500 1293053349 -595924497 -606244562 -1695493580 -1523626054 -769431913 -1904987048 -1264886015 -342101266 -1694529891 621883594 970217081 -1700128317 -164801067 -695894949 -1370517545 -1077416042 1205625104 188650843 -393984320 2082268838 -1488079895 1686412734 -694315276 294222317
REM
CELL 1.54180   50.00000   50.00000   50.00000   90.00000   90.00000   90.00000
LATT -1
SFAC C  
C      1  0.5608420000000  0.5029630000000  0.5354560000000 1.0
C      1  0.4989890000000  0.5399310000000  0.5248770000000 1.0
C      1  0.4781370000000  0.5204590000000  0.5281420000000 1.0
C      1  0.4945550000000  0.4935870000000  0.5296220000000 1.0
C      1  0.5185490000000  0.5633920000000  0.4838060000000 1.0
C      1  0.5160310000000  0.5336540000000  0.5471920000000 1.0
C      1  0.5164550000000  0.5046620000000  0.5506590000000 1.0
C      1  0.4813150000000  0.4661480000000  0.5166390000000 1.0
C      1  0.5535680000000  0.5139580000000  0.5112550000000 1.0
C      1  0.4753460000000  0.4808570000000  0.4584010000000 1.0
C      1  0.5496590000000  0.4733370000000  0.4590800000000 1.0
C      1  0.4670990000000  0.5324260000000  0.4505660000000 1.0
C      1  0.5418360000000  0.4928530000000  0.5539210000000 1.0
C      1  0.4335470000000  0.4987500000000  0.4816290000000 1.0
C      1  0.4979560000000  0.4961350000000  0.4710810000000 1.0
C      1  0.5078800000000  0.4535860000000  0.5078510000000 1.0
C      1  0.4548970000000  0.5262960000000  0.5164790000000 1.0
C      1  0.4599370000000  0.4623980000000  0.4985690000000 1.0
C      1  0.5283160000000  0.4808160000000  0.4710700000000 1.0
C      1  0.5704220000000  0.4633490000000  0.4465890000000 1.0
C      1  0.5079590000000  0.5398850000000  0.4945360000000 1.0
C      1  0.5471900000000  0.4733700000000  0.5716490000000 1.0
C      1  0.4350890000000  0.4766340000000  0.4981840000000 1.0
C      1  0.5287340000000  0.5159660000000  0.5010480000000 1.0
C      1  0.4868180000000  0.5247090000000  0.4755000000000 1.0
C      1  0.4684930000000  0.4579460000000  0.4715460000000 1.0
C      1  0.5115300000000  0.4870200000000  0.5008990000000 1.0
C      1  0.4541140000000  0.5023240000000  0.4567370000000 1.0
C      1  0.4547400000000  0.5225890000000  0.4870180000000 1.0
END
