TITL C-2847945-6269-386 -0.00238067031711773 125000 -698.149135726127 0 0 128 (C1) n - 1
REM
REM in /home/bkarasulu/work/CARBON/AIRSS/Generating-Clusters/AIREBO/with-SteepDescent/Only-C1/SD-CG-opt/Try1-1.4A-POS3A/HFTN-CG
REM
REM
REM
REM
REM
REM ./C.cell (11c1c37f851c82e70ff6c80c92926a4b)
REM
REM compiler GCC version 9.2.1 20190827 (Red Hat 9.2.1-1)
REM options -cpp -mtune=generic -march=x86-64 -g -O0 -fpre-include=/usr/include/finclude/math-vector-fortran.h
REM seed 1466471415 -1382239084 -1185422900 -1030616859 -149846538 556180233 552048892 -601178817 -2130622888 1155890404 593110933 -966411361 -1182366492 482709794 1966203308 1860944474 288420458 -834862582 1562943564 1935659530 -255964153 -1935305385 -872872127 -799842241 -939304450 -536415942 -1791440615 786855064 -519271275 891252386 1820171463 432263209 504176542
REM
CELL 1.54180   50.00000   50.00000   50.00000   90.00000   90.00000   90.00000
LATT -1
SFAC C  
C      1  0.5194470000000  0.5480400000000  0.5051500000000 1.0
C      1  0.5072010000000  0.4554660000000  0.5003020000000 1.0
C      1  0.5674980000000  0.4498360000000  0.5215420000000 1.0
C      1  0.5420090000000  0.4414560000000  0.4371270000000 1.0
C      1  0.4288060000000  0.5481860000000  0.4460800000000 1.0
C      1  0.5940730000000  0.5146030000000  0.4520250000000 1.0
C      1  0.5301330000000  0.4946740000000  0.4879020000000 1.0
C      1  0.5576680000000  0.5103560000000  0.5735350000000 1.0
C      1  0.4985660000000  0.5048000000000  0.4803190000000 1.0
C      1  0.4097160000000  0.5076010000000  0.4647240000000 1.0
C      1  0.4230690000000  0.4484670000000  0.4507680000000 1.0
C      1  0.4735660000000  0.4304390000000  0.5280710000000 1.0
C      1  0.4863650000000  0.4444340000000  0.5548420000000 1.0
C      1  0.5055240000000  0.4442680000000  0.4701550000000 1.0
C      1  0.4736830000000  0.5739690000000  0.5533240000000 1.0
C      1  0.4620240000000  0.5143370000000  0.4165920000000 1.0
C      1  0.4297770000000  0.4830310000000  0.4322030000000 1.0
C      1  0.5124210000000  0.4429570000000  0.4308190000000 1.0
C      1  0.4798070000000  0.4965810000000  0.5600070000000 1.0
C      1  0.5745900000000  0.5561900000000  0.5109260000000 1.0
C      1  0.5097110000000  0.4247900000000  0.5691890000000 1.0
C      1  0.5510210000000  0.5426080000000  0.4816230000000 1.0
C      1  0.4728440000000  0.5852040000000  0.5212040000000 1.0
C      1  0.4665320000000  0.4674460000000  0.4087080000000 1.0
C      1  0.6037920000000  0.4877830000000  0.4619180000000 1.0
C      1  0.4875290000000  0.4596060000000  0.4334200000000 1.0
C      1  0.5142160000000  0.5772600000000  0.4885680000000 1.0
C      1  0.4505140000000  0.4118050000000  0.5169690000000 1.0
C      1  0.4935680000000  0.4843790000000  0.5891690000000 1.0
C      1  0.5942110000000  0.5016910000000  0.4898430000000 1.0
C      1  0.5240910000000  0.5025370000000  0.5373180000000 1.0
C      1  0.5831630000000  0.4706500000000  0.4912820000000 1.0
C      1  0.4954130000000  0.5104810000000  0.4132030000000 1.0
C      1  0.4693870000000  0.5284110000000  0.4643190000000 1.0
C      1  0.4557270000000  0.5030420000000  0.4741570000000 1.0
C      1  0.5302620000000  0.5869920000000  0.5613360000000 1.0
C      1  0.4019460000000  0.5582580000000  0.5117600000000 1.0
C      1  0.4517980000000  0.5836440000000  0.5025300000000 1.0
C      1  0.5371520000000  0.5859630000000  0.4664850000000 1.0
C      1  0.4543250000000  0.4811570000000  0.5287280000000 1.0
C      1  0.4800870000000  0.5051690000000  0.4427930000000 1.0
C      1  0.5034790000000  0.5144860000000  0.5863270000000 1.0
C      1  0.4986630000000  0.5591770000000  0.5371810000000 1.0
C      1  0.4480670000000  0.4878240000000  0.4118730000000 1.0
C      1  0.5251820000000  0.4754410000000  0.5812850000000 1.0
C      1  0.5514600000000  0.4713790000000  0.5006830000000 1.0
C      1  0.4385440000000  0.4782020000000  0.5781760000000 1.0
C      1  0.4076510000000  0.4670950000000  0.5094730000000 1.0
C      1  0.6003490000000  0.4937730000000  0.5434770000000 1.0
C      1  0.5281830000000  0.4174250000000  0.5091370000000 1.0
C      1  0.4392540000000  0.5394080000000  0.4984250000000 1.0
C      1  0.4399280000000  0.4331290000000  0.4753040000000 1.0
C      1  0.5831560000000  0.5536650000000  0.4827270000000 1.0
C      1  0.5503030000000  0.4262600000000  0.4596070000000 1.0
C      1  0.4210650000000  0.5747430000000  0.5009590000000 1.0
C      1  0.4489080000000  0.5429870000000  0.4272240000000 1.0
C      1  0.4873060000000  0.4788080000000  0.4614950000000 1.0
C      1  0.5177380000000  0.5869780000000  0.5371570000000 1.0
C      1  0.5520120000000  0.5639280000000  0.4570540000000 1.0
C      1  0.5187790000000  0.5320000000000  0.4775000000000 1.0
C      1  0.5390080000000  0.5381690000000  0.4438230000000 1.0
C      1  0.5001300000000  0.5908570000000  0.5130340000000 1.0
C      1  0.4139100000000  0.5101410000000  0.5413430000000 1.0
C      1  0.5995550000000  0.5398350000000  0.4644190000000 1.0
C      1  0.5092250000000  0.5425880000000  0.4317090000000 1.0
C      1  0.5238330000000  0.4507950000000  0.5424910000000 1.0
C      1  0.5743700000000  0.4347850000000  0.4707500000000 1.0
C      1  0.5958980000000  0.4686970000000  0.5227630000000 1.0
C      1  0.4849080000000  0.4686840000000  0.5306250000000 1.0
C      1  0.4487210000000  0.5388570000000  0.5285050000000 1.0
C      1  0.5253570000000  0.5121700000000  0.4266780000000 1.0
C      1  0.4562270000000  0.4515620000000  0.4439150000000 1.0
C      1  0.4212720000000  0.5133420000000  0.4913040000000 1.0
C      1  0.5674120000000  0.5197010000000  0.4960790000000 1.0
C      1  0.5001860000000  0.4528400000000  0.5841810000000 1.0
C      1  0.5544180000000  0.4809460000000  0.5785880000000 1.0
C      1  0.4030350000000  0.5268830000000  0.5148970000000 1.0
C      1  0.5549670000000  0.4585100000000  0.5519360000000 1.0
C      1  0.4548070000000  0.5080260000000  0.5800420000000 1.0
C      1  0.5094250000000  0.4841600000000  0.5127520000000 1.0
C      1  0.5484430000000  0.4225460000000  0.5284940000000 1.0
C      1  0.4886240000000  0.5442160000000  0.5118610000000 1.0
C      1  0.5449070000000  0.5387770000000  0.5879730000000 1.0
C      1  0.4072880000000  0.4779860000000  0.4567440000000 1.0
C      1  0.5731990000000  0.4550070000000  0.5789600000000 1.0
C      1  0.5682050000000  0.5112450000000  0.4404070000000 1.0
C      1  0.4502250000000  0.5015020000000  0.5046320000000 1.0
C      1  0.5836810000000  0.4622760000000  0.4582660000000 1.0
C      1  0.4653020000000  0.4630640000000  0.4827920000000 1.0
C      1  0.4886150000000  0.5569120000000  0.5768710000000 1.0
C      1  0.4423270000000  0.5054640000000  0.5492710000000 1.0
C      1  0.5805050000000  0.4305550000000  0.4967410000000 1.0
C      1  0.4709000000000  0.5169580000000  0.5350310000000 1.0
C      1  0.4809240000000  0.5134370000000  0.5033190000000 1.0
C      1  0.5264560000000  0.5209970000000  0.5652170000000 1.0
C      1  0.4386190000000  0.4112050000000  0.4949200000000 1.0
C      1  0.4346510000000  0.5616520000000  0.4730230000000 1.0
C      1  0.5077040000000  0.4787170000000  0.5523040000000 1.0
C      1  0.5576130000000  0.5376820000000  0.5305160000000 1.0
C      1  0.5207730000000  0.5602490000000  0.5773560000000 1.0
C      1  0.5824670000000  0.5061160000000  0.5197550000000 1.0
C      1  0.5208950000000  0.4735540000000  0.4621820000000 1.0
C      1  0.4639970000000  0.5778840000000  0.4733010000000 1.0
C      1  0.4339670000000  0.4667410000000  0.5538760000000 1.0
C      1  0.4466170000000  0.5592670000000  0.5468340000000 1.0
C      1  0.5367870000000  0.5193390000000  0.5108470000000 1.0
C      1  0.5752190000000  0.5161610000000  0.5500930000000 1.0
C      1  0.5275420000000  0.4203610000000  0.4801760000000 1.0
C      1  0.5123130000000  0.4179600000000  0.4496900000000 1.0
C      1  0.5628720000000  0.4921960000000  0.4190840000000 1.0
C      1  0.5298260000000  0.5491720000000  0.5465090000000 1.0
C      1  0.4539460000000  0.4514760000000  0.5121340000000 1.0
C      1  0.4250780000000  0.4543230000000  0.5275880000000 1.0
C      1  0.5040130000000  0.4334640000000  0.5209570000000 1.0
C      1  0.4728920000000  0.4352250000000  0.4670720000000 1.0
C      1  0.4802440000000  0.5304790000000  0.5823250000000 1.0
C      1  0.5451870000000  0.5096590000000  0.4613160000000 1.0
C      1  0.5370360000000  0.4227570000000  0.5564820000000 1.0
C      1  0.4078560000000  0.5290870000000  0.4481910000000 1.0
C      1  0.5084160000000  0.5588560000000  0.4605140000000 1.0
C      1  0.5633960000000  0.4636320000000  0.4337630000000 1.0
C      1  0.4124290000000  0.4564460000000  0.4821990000000 1.0
C      1  0.3995570000000  0.4926890000000  0.5175230000000 1.0
C      1  0.4894050000000  0.5825980000000  0.4578430000000 1.0
C      1  0.4470560000000  0.4792980000000  0.4591060000000 1.0
C      1  0.4787080000000  0.5444210000000  0.4368750000000 1.0
C      1  0.5344740000000  0.4814200000000  0.4356010000000 1.0
C      1  0.4689210000000  0.5481510000000  0.4876330000000 1.0
END
