TITL C-2847944-5688-567 8.69624634529842e-05 125000 -480.227303568574 0 0 85 (C1) n - 1
REM
REM in /home/bkarasulu/work/CARBON/AIRSS/Generating-Clusters/AIREBO/with-SteepDescent/Only-C1/SD-CG-opt/Try1-1.4A-POS3A/HFTN-CG
REM
REM
REM
REM
REM
REM ./C.cell (11c1c37f851c82e70ff6c80c92926a4b)
REM
REM compiler GCC version 9.2.1 20190827 (Red Hat 9.2.1-1)
REM options -cpp -mtune=generic -march=x86-64 -g -O0 -fpre-include=/usr/include/finclude/math-vector-fortran.h
REM seed -1017460822 -58886949 744002590 1981558713 409806822 -1083251496 -1882722464 1437171536 811423920 1678042024 1144768167 1262900392 207270730 -34199797 2104485032 1327555455 688909338 -1282915915 311655094 781774963 658860093 -442746559 -1641764232 1285365911 -1909875970 1479693104 1926907913 -810675217 -938902672 1164402280 -1829125606 -1746474989 -1542913119
REM
CELL 1.54180   50.00000   50.00000   50.00000   90.00000   90.00000   90.00000
LATT -1
SFAC C  
C      1  0.4829450000000  0.4942270000000  0.5362240000000 1.0
C      1  0.5670000000000  0.4473930000000  0.5294100000000 1.0
C      1  0.4487880000000  0.5624820000000  0.4724770000000 1.0
C      1  0.5383780000000  0.4047310000000  0.5012500000000 1.0
C      1  0.4354700000000  0.5463970000000  0.5347550000000 1.0
C      1  0.4603730000000  0.5047250000000  0.4694930000000 1.0
C      1  0.4493050000000  0.5151400000000  0.5678350000000 1.0
C      1  0.4461850000000  0.5011510000000  0.5221730000000 1.0
C      1  0.5276690000000  0.4604120000000  0.5021090000000 1.0
C      1  0.5325200000000  0.4998020000000  0.4365450000000 1.0
C      1  0.4654820000000  0.4703760000000  0.5440770000000 1.0
C      1  0.5683210000000  0.4418470000000  0.4559940000000 1.0
C      1  0.5691210000000  0.4705700000000  0.4600280000000 1.0
C      1  0.4763790000000  0.5574140000000  0.4826610000000 1.0
C      1  0.5021790000000  0.5669650000000  0.4637290000000 1.0
C      1  0.4983020000000  0.4993680000000  0.5661290000000 1.0
C      1  0.4355790000000  0.4755530000000  0.5509150000000 1.0
C      1  0.5008440000000  0.4345550000000  0.4462510000000 1.0
C      1  0.5130530000000  0.5142650000000  0.4596520000000 1.0
C      1  0.5391550000000  0.4568680000000  0.5320190000000 1.0
C      1  0.4674260000000  0.4312370000000  0.4679080000000 1.0
C      1  0.4968720000000  0.4865370000000  0.4488630000000 1.0
C      1  0.5179270000000  0.4769010000000  0.5497910000000 1.0
C      1  0.5825160000000  0.4392880000000  0.5502770000000 1.0
C      1  0.5605350000000  0.4307800000000  0.4816860000000 1.0
C      1  0.4644490000000  0.5282040000000  0.4581700000000 1.0
C      1  0.5301010000000  0.5583190000000  0.5443140000000 1.0
C      1  0.4743280000000  0.5098470000000  0.5072730000000 1.0
C      1  0.4445000000000  0.4385750000000  0.4542310000000 1.0
C      1  0.5367970000000  0.5756300000000  0.5010090000000 1.0
C      1  0.5245390000000  0.5095450000000  0.5813130000000 1.0
C      1  0.4936700000000  0.5368150000000  0.4580080000000 1.0
C      1  0.5408670000000  0.4967100000000  0.5343190000000 1.0
C      1  0.4845730000000  0.5262560000000  0.3784450000000 1.0
C      1  0.4519950000000  0.4440700000000  0.5172610000000 1.0
C      1  0.4176070000000  0.5202080000000  0.4594750000000 1.0
C      1  0.4991940000000  0.4213510000000  0.4752050000000 1.0
C      1  0.4960010000000  0.4262420000000  0.5087070000000 1.0
C      1  0.4337480000000  0.5822900000000  0.4807270000000 1.0
C      1  0.5564770000000  0.4886070000000  0.4430680000000 1.0
C      1  0.5180130000000  0.5338950000000  0.5140770000000 1.0
C      1  0.4761480000000  0.5250820000000  0.5684870000000 1.0
C      1  0.4951320000000  0.5142470000000  0.3992080000000 1.0
C      1  0.5055660000000  0.5042160000000  0.4217850000000 1.0
C      1  0.4687170000000  0.4413300000000  0.5419820000000 1.0
C      1  0.5740780000000  0.4480260000000  0.5020910000000 1.0
C      1  0.5286260000000  0.4326340000000  0.4871540000000 1.0
C      1  0.5250840000000  0.5865350000000  0.4783760000000 1.0
C      1  0.5373080000000  0.5468780000000  0.4992530000000 1.0
C      1  0.4681310000000  0.4331080000000  0.4970900000000 1.0
C      1  0.5397770000000  0.5825150000000  0.5283140000000 1.0
C      1  0.5407300000000  0.5540720000000  0.5755090000000 1.0
C      1  0.5011350000000  0.5523750000000  0.5333250000000 1.0
C      1  0.4794140000000  0.5425840000000  0.5089230000000 1.0
C      1  0.4616940000000  0.5562720000000  0.5326940000000 1.0
C      1  0.4213850000000  0.4728520000000  0.4912020000000 1.0
C      1  0.4321120000000  0.4947340000000  0.4680680000000 1.0
C      1  0.4761010000000  0.4806510000000  0.5838290000000 1.0
C      1  0.4865560000000  0.4927900000000  0.4804390000000 1.0
C      1  0.5520340000000  0.5534280000000  0.4516000000000 1.0
C      1  0.5458570000000  0.4891470000000  0.5015020000000 1.0
C      1  0.5278630000000  0.5352810000000  0.5919770000000 1.0
C      1  0.5064020000000  0.4836430000000  0.5007520000000 1.0
C      1  0.4796060000000  0.5497280000000  0.5565320000000 1.0
C      1  0.5367300000000  0.5113450000000  0.4809750000000 1.0
C      1  0.4943330000000  0.4307940000000  0.5362950000000 1.0
C      1  0.5636310000000  0.5428350000000  0.5591390000000 1.0
C      1  0.4363570000000  0.5190700000000  0.5422090000000 1.0
C      1  0.5856360000000  0.5320820000000  0.4847460000000 1.0
C      1  0.4318760000000  0.4613940000000  0.4632720000000 1.0
C      1  0.6103610000000  0.5273470000000  0.4889530000000 1.0
C      1  0.5150790000000  0.4434390000000  0.5496350000000 1.0
C      1  0.4359440000000  0.4709900000000  0.5171840000000 1.0
C      1  0.5565500000000  0.5359760000000  0.4773490000000 1.0
C      1  0.5463400000000  0.4984340000000  0.5678450000000 1.0
C      1  0.4379730000000  0.5423140000000  0.4500250000000 1.0
C      1  0.4954130000000  0.4578470000000  0.4406330000000 1.0
C      1  0.5703320000000  0.4741820000000  0.4889290000000 1.0
C      1  0.4347080000000  0.5516780000000  0.4240360000000 1.0
C      1  0.5508700000000  0.5290980000000  0.5370660000000 1.0
C      1  0.3918530000000  0.5238980000000  0.4610540000000 1.0
C      1  0.4346800000000  0.4241270000000  0.4337060000000 1.0
C      1  0.5325490000000  0.5722490000000  0.4514290000000 1.0
C      1  0.5114240000000  0.5056860000000  0.5216020000000 1.0
C      1  0.4487250000000  0.4875390000000  0.5759730000000 1.0
END
