TITL C-2847951-7423-351 0.00564596973391873 125000 -115.269046826599 0 0 22 (C1) n - 1
REM
REM in /home/bkarasulu/work/CARBON/AIRSS/Generating-Clusters/AIREBO/with-SteepDescent/Only-C1/SD-CG-opt/Try1-1.4A-POS3A/HFTN-CG
REM
REM
REM
REM
REM
REM ./C.cell (11c1c37f851c82e70ff6c80c92926a4b)
REM
REM compiler GCC version 9.2.1 20190827 (Red Hat 9.2.1-1)
REM options -cpp -mtune=generic -march=x86-64 -g -O0 -fpre-include=/usr/include/finclude/math-vector-fortran.h
REM seed -1308835303 1684723487 -513847672 117836894 -1545796869 1999243223 1757418784 1620199470 -1389765768 356217307 -429110626 573335903 -1993692301 152191272 -540216677 531649807 636718194 -1353449888 999594623 361170825 1405158450 789637945 -1444702696 -698666254 -1844879184 -1518959619 -1822788600 -40332172 -1313500152 1596965304 -187305645 -340485283 -1098427140
REM
CELL 1.54180   50.00000   50.00000   50.00000   90.00000   90.00000   90.00000
LATT -1
SFAC C  
C      1  0.4738850000000  0.4781910000000  0.5156780000000 1.0
C      1  0.4831510000000  0.5484420000000  0.4834330000000 1.0
C      1  0.5160370000000  0.5108520000000  0.5198170000000 1.0
C      1  0.4532450000000  0.4974360000000  0.4780190000000 1.0
C      1  0.4820840000000  0.4594530000000  0.4684920000000 1.0
C      1  0.5332320000000  0.4664290000000  0.4548990000000 1.0
C      1  0.4660140000000  0.5024750000000  0.5030860000000 1.0
C      1  0.4736160000000  0.4727390000000  0.5429030000000 1.0
C      1  0.5327010000000  0.4577960000000  0.4878280000000 1.0
C      1  0.5226860000000  0.4862840000000  0.5038420000000 1.0
C      1  0.4916670000000  0.4852230000000  0.5595420000000 1.0
C      1  0.4771870000000  0.5561510000000  0.4586900000000 1.0
C      1  0.4877500000000  0.5234910000000  0.5056460000000 1.0
C      1  0.4600870000000  0.4754930000000  0.4618760000000 1.0
C      1  0.5121020000000  0.4856670000000  0.4715900000000 1.0
C      1  0.5368950000000  0.5332920000000  0.5198180000000 1.0
C      1  0.5095840000000  0.5031320000000  0.5495280000000 1.0
C      1  0.4968370000000  0.5557240000000  0.5105770000000 1.0
C      1  0.4952420000000  0.4685200000000  0.4966030000000 1.0
C      1  0.5635790000000  0.5287890000000  0.5230070000000 1.0
C      1  0.5234280000000  0.5580920000000  0.5188050000000 1.0
C      1  0.5089920000000  0.4463290000000  0.4663240000000 1.0
END
