TITL C-2847951-7423-284 0.000889318778746338 125000 -709.60554844491 0 0 132 (C1) n - 1
REM
REM in /home/bkarasulu/work/CARBON/AIRSS/Generating-Clusters/AIREBO/with-SteepDescent/Only-C1/SD-CG-opt/Try1-1.4A-POS3A/HFTN-CG
REM
REM
REM
REM
REM
REM ./C.cell (11c1c37f851c82e70ff6c80c92926a4b)
REM
REM compiler GCC version 9.2.1 20190827 (Red Hat 9.2.1-1)
REM options -cpp -mtune=generic -march=x86-64 -g -O0 -fpre-include=/usr/include/finclude/math-vector-fortran.h
REM seed 595155313 166565331 128480368 -1834444085 674812019 -1377592026 182731264 1753559953 -686201834 1832012035 1834670679 480544858 1717695858 611589938 -941929306 -1533090809 763258907 900085121 1915005139 -1260407249 904905743 -1254831965 -2112934488 850186695 1155166319 -753121964 -79382604 -626122930 794446507 1679084595 1432032151 2115466424 600142739
REM
CELL 1.54180   50.00000   50.00000   50.00000   90.00000   90.00000   90.00000
LATT -1
SFAC C  
C      1  0.5312530000000  0.4104070000000  0.5165080000000 1.0
C      1  0.4823140000000  0.5801710000000  0.4999420000000 1.0
C      1  0.5006540000000  0.5041540000000  0.5586180000000 1.0
C      1  0.5824420000000  0.5775100000000  0.4880550000000 1.0
C      1  0.5220450000000  0.4557200000000  0.4231370000000 1.0
C      1  0.5696820000000  0.5679520000000  0.5148510000000 1.0
C      1  0.5287350000000  0.4836440000000  0.5592920000000 1.0
C      1  0.4733830000000  0.5415800000000  0.4016210000000 1.0
C      1  0.5823080000000  0.4762930000000  0.5478470000000 1.0
C      1  0.5152410000000  0.5572540000000  0.5624690000000 1.0
C      1  0.4997140000000  0.4975220000000  0.5088170000000 1.0
C      1  0.5473040000000  0.5603680000000  0.4925900000000 1.0
C      1  0.4693930000000  0.5518910000000  0.5340570000000 1.0
C      1  0.5536420000000  0.4536910000000  0.4849260000000 1.0
C      1  0.5064470000000  0.5445280000000  0.4653820000000 1.0
C      1  0.5783480000000  0.4689860000000  0.4522470000000 1.0
C      1  0.5578040000000  0.5770570000000  0.4670010000000 1.0
C      1  0.5313710000000  0.5016170000000  0.4980560000000 1.0
C      1  0.5215420000000  0.4892750000000  0.4287570000000 1.0
C      1  0.5167320000000  0.5325000000000  0.5936500000000 1.0
C      1  0.5156210000000  0.5170390000000  0.4475180000000 1.0
C      1  0.4149150000000  0.5284800000000  0.4489560000000 1.0
C      1  0.5492710000000  0.4736690000000  0.5391610000000 1.0
C      1  0.5277870000000  0.4354090000000  0.4725310000000 1.0
C      1  0.4433850000000  0.4141500000000  0.4817500000000 1.0
C      1  0.4726580000000  0.4498000000000  0.5274220000000 1.0
C      1  0.4495560000000  0.4593990000000  0.5812240000000 1.0
C      1  0.4633130000000  0.5539910000000  0.4299560000000 1.0
C      1  0.4784870000000  0.5714830000000  0.5580560000000 1.0
C      1  0.4956410000000  0.4793460000000  0.5813300000000 1.0
C      1  0.6056870000000  0.5131920000000  0.4865840000000 1.0
C      1  0.4898330000000  0.5082240000000  0.4641970000000 1.0
C      1  0.5602730000000  0.5587490000000  0.5414420000000 1.0
C      1  0.4341070000000  0.4979190000000  0.4656530000000 1.0
C      1  0.5102550000000  0.5358800000000  0.5113360000000 1.0
C      1  0.4798400000000  0.4904160000000  0.5354910000000 1.0
C      1  0.4366810000000  0.5695690000000  0.5193800000000 1.0
C      1  0.5775930000000  0.5459430000000  0.5747370000000 1.0
C      1  0.4811770000000  0.5231470000000  0.5785750000000 1.0
C      1  0.4603430000000  0.4645380000000  0.4663800000000 1.0
C      1  0.5070650000000  0.5867400000000  0.5472090000000 1.0
C      1  0.5393350000000  0.4714070000000  0.4596730000000 1.0
C      1  0.4653300000000  0.4809870000000  0.5878030000000 1.0
C      1  0.4111590000000  0.5490950000000  0.5263830000000 1.0
C      1  0.5160860000000  0.5308410000000  0.5487440000000 1.0
C      1  0.5041540000000  0.5011790000000  0.4019430000000 1.0
C      1  0.4907670000000  0.3897210000000  0.5376240000000 1.0
C      1  0.5229750000000  0.4413930000000  0.5071500000000 1.0
C      1  0.5286920000000  0.5167960000000  0.4006300000000 1.0
C      1  0.5308160000000  0.5330090000000  0.4849690000000 1.0
C      1  0.5385390000000  0.5793730000000  0.5577550000000 1.0
C      1  0.5064750000000  0.5969780000000  0.4838850000000 1.0
C      1  0.6061930000000  0.4520730000000  0.4941780000000 1.0
C      1  0.5127640000000  0.4364960000000  0.4420440000000 1.0
C      1  0.5095430000000  0.5764470000000  0.4569410000000 1.0
C      1  0.4548720000000  0.5732060000000  0.4571430000000 1.0
C      1  0.4855260000000  0.5491520000000  0.4921310000000 1.0
C      1  0.4406290000000  0.5627200000000  0.4861800000000 1.0
C      1  0.5367760000000  0.5118590000000  0.5768590000000 1.0
C      1  0.5831100000000  0.4695150000000  0.4846620000000 1.0
C      1  0.4302790000000  0.4956010000000  0.5546160000000 1.0
C      1  0.5107850000000  0.4561040000000  0.5627340000000 1.0
C      1  0.5258280000000  0.4078350000000  0.5658910000000 1.0
C      1  0.4575400000000  0.5910030000000  0.5083590000000 1.0
C      1  0.4777420000000  0.4507280000000  0.4895690000000 1.0
C      1  0.5837480000000  0.4984150000000  0.4960170000000 1.0
C      1  0.5426090000000  0.5619420000000  0.4249600000000 1.0
C      1  0.4267850000000  0.5362090000000  0.5000380000000 1.0
C      1  0.4488910000000  0.5102010000000  0.4023660000000 1.0
C      1  0.5788170000000  0.5045740000000  0.4330430000000 1.0
C      1  0.6161520000000  0.5170640000000  0.4615560000000 1.0
C      1  0.5176640000000  0.3985420000000  0.5408940000000 1.0
C      1  0.4193960000000  0.4498350000000  0.5237210000000 1.0
C      1  0.3930480000000  0.4743130000000  0.4669770000000 1.0
C      1  0.4755540000000  0.5104640000000  0.4922190000000 1.0
C      1  0.4531250000000  0.4267780000000  0.4558490000000 1.0
C      1  0.5372780000000  0.5318720000000  0.4266330000000 1.0
C      1  0.6047280000000  0.5126430000000  0.4369510000000 1.0
C      1  0.5556140000000  0.5171380000000  0.4469260000000 1.0
C      1  0.4512480000000  0.4264130000000  0.5290270000000 1.0
C      1  0.4462990000000  0.4960300000000  0.4947470000000 1.0
C      1  0.4230150000000  0.5226120000000  0.5379530000000 1.0
C      1  0.5690660000000  0.5747680000000  0.5701190000000 1.0
C      1  0.4841580000000  0.4628280000000  0.4349420000000 1.0
C      1  0.3953090000000  0.4902090000000  0.4909260000000 1.0
C      1  0.5333660000000  0.3845470000000  0.4492560000000 1.0
C      1  0.5461180000000  0.5006780000000  0.4674330000000 1.0
C      1  0.4187620000000  0.4737420000000  0.4549030000000 1.0
C      1  0.4076360000000  0.4747800000000  0.5154360000000 1.0
C      1  0.5033360000000  0.4486920000000  0.5339460000000 1.0
C      1  0.5108980000000  0.4059990000000  0.4929830000000 1.0
C      1  0.4499910000000  0.4778440000000  0.5458750000000 1.0
C      1  0.4848900000000  0.5784900000000  0.4317450000000 1.0
C      1  0.4947540000000  0.4774050000000  0.4821370000000 1.0
C      1  0.4635250000000  0.5182800000000  0.5366960000000 1.0
C      1  0.4911720000000  0.5523230000000  0.5831240000000 1.0
C      1  0.4402570000000  0.4483780000000  0.5506350000000 1.0
C      1  0.6244990000000  0.4375390000000  0.5044260000000 1.0
C      1  0.4693150000000  0.4890690000000  0.4489590000000 1.0
C      1  0.4873110000000  0.4208240000000  0.4926590000000 1.0
C      1  0.5199130000000  0.4916080000000  0.5972810000000 1.0
C      1  0.5072520000000  0.5914730000000  0.5177530000000 1.0
C      1  0.4651420000000  0.4755950000000  0.5086370000000 1.0
C      1  0.4125320000000  0.5178890000000  0.4811950000000 1.0
C      1  0.4558600000000  0.5094710000000  0.5856150000000 1.0
C      1  0.5269380000000  0.4860580000000  0.6216990000000 1.0
C      1  0.5197450000000  0.5658350000000  0.5045370000000 1.0
C      1  0.4589640000000  0.5340940000000  0.5071300000000 1.0
C      1  0.4657600000000  0.3976400000000  0.5273290000000 1.0
C      1  0.5549180000000  0.5289410000000  0.5571140000000 1.0
C      1  0.4792430000000  0.5120740000000  0.3974530000000 1.0
C      1  0.4802970000000  0.5930190000000  0.4621390000000 1.0
C      1  0.4460520000000  0.5313110000000  0.5614080000000 1.0
C      1  0.4355330000000  0.4516510000000  0.4552800000000 1.0
C      1  0.5392720000000  0.4709500000000  0.5104560000000 1.0
C      1  0.5077090000000  0.4736820000000  0.4556270000000 1.0
C      1  0.4395430000000  0.5300670000000  0.4254740000000 1.0
C      1  0.5546360000000  0.4807580000000  0.4308920000000 1.0
C      1  0.4282990000000  0.4278690000000  0.5039800000000 1.0
C      1  0.5249220000000  0.4027970000000  0.4668980000000 1.0
C      1  0.5395300000000  0.5278970000000  0.5267940000000 1.0
C      1  0.5587150000000  0.4248470000000  0.5022160000000 1.0
C      1  0.4251020000000  0.4993980000000  0.5155180000000 1.0
C      1  0.5199440000000  0.4313450000000  0.5781800000000 1.0
C      1  0.4790430000000  0.4323330000000  0.4407000000000 1.0
C      1  0.5622600000000  0.5094970000000  0.5098890000000 1.0
C      1  0.4536110000000  0.5191030000000  0.4517500000000 1.0
C      1  0.4622330000000  0.5425300000000  0.4682490000000 1.0
C      1  0.4651020000000  0.4047710000000  0.4983840000000 1.0
C      1  0.5697300000000  0.4491850000000  0.5509150000000 1.0
C      1  0.5388690000000  0.5776050000000  0.4468720000000 1.0
C      1  0.4452380000000  0.5645400000000  0.5519820000000 1.0
END
