TITL C-2847959-7740-400 -0.00108336133573639 125000 -319.561798726597 0 0 63 (C1) n - 1
REM
REM in /home/bkarasulu/work/CARBON/AIRSS/Generating-Clusters/AIREBO/with-SteepDescent/Only-C1/SD-CG-opt/Try1-1.4A-POS3A/HFTN-CG
REM
REM
REM
REM
REM
REM ./C.cell (11c1c37f851c82e70ff6c80c92926a4b)
REM
REM compiler GCC version 9.2.1 20190827 (Red Hat 9.2.1-1)
REM options -cpp -mtune=generic -march=x86-64 -g -O0 -fpre-include=/usr/include/finclude/math-vector-fortran.h
REM seed -1579327964 -1520471740 -997555498 830000270 -816257217 2107971742 662348268 -978844166 -873109627 -780072488 1512425381 -811151882 484455025 266993292 -723431106 532232991 -1796646796 -1145745247 1267844210 -1931312869 159676172 811582568 -434105884 -1254141285 1106946435 -1469036135 923803553 -599224198 -1644101849 940186521 -1962376139 1623948888 413064901
REM
CELL 1.54180   50.00000   50.00000   50.00000   90.00000   90.00000   90.00000
LATT -1
SFAC C  
C      1  0.5445440000000  0.4946460000000  0.5722020000000 1.0
C      1  0.4926840000000  0.5421380000000  0.4235820000000 1.0
C      1  0.5700920000000  0.4809890000000  0.4879050000000 1.0
C      1  0.4921530000000  0.4738310000000  0.4765350000000 1.0
C      1  0.5438580000000  0.5163060000000  0.5110490000000 1.0
C      1  0.5163640000000  0.5707310000000  0.5245870000000 1.0
C      1  0.4897450000000  0.4477230000000  0.4949550000000 1.0
C      1  0.5227890000000  0.5542720000000  0.4736810000000 1.0
C      1  0.5069090000000  0.4655690000000  0.5641840000000 1.0
C      1  0.4288490000000  0.5102390000000  0.4608030000000 1.0
C      1  0.5565980000000  0.4978450000000  0.5343880000000 1.0
C      1  0.4648550000000  0.4826300000000  0.5404050000000 1.0
C      1  0.5170270000000  0.5465830000000  0.5016980000000 1.0
C      1  0.4911190000000  0.4433250000000  0.4507740000000 1.0
C      1  0.4857790000000  0.4153300000000  0.5045520000000 1.0
C      1  0.5624160000000  0.4725640000000  0.5168350000000 1.0
C      1  0.5119480000000  0.4700340000000  0.4514380000000 1.0
C      1  0.5587510000000  0.5093830000000  0.4822390000000 1.0
C      1  0.4602720000000  0.5089260000000  0.5491250000000 1.0
C      1  0.4937020000000  0.5515590000000  0.4562450000000 1.0
C      1  0.4561760000000  0.4600590000000  0.5174610000000 1.0
C      1  0.4765000000000  0.5666940000000  0.4949960000000 1.0
C      1  0.4773180000000  0.5344970000000  0.5345460000000 1.0
C      1  0.5405950000000  0.5144740000000  0.4538000000000 1.0
C      1  0.5794990000000  0.5356650000000  0.4762980000000 1.0
C      1  0.4563740000000  0.4456170000000  0.4887190000000 1.0
C      1  0.5103700000000  0.4569790000000  0.5199330000000 1.0
C      1  0.4644220000000  0.4842330000000  0.4640530000000 1.0
C      1  0.4829390000000  0.5244490000000  0.4740290000000 1.0
C      1  0.4589390000000  0.5100850000000  0.4457310000000 1.0
C      1  0.5217850000000  0.5394360000000  0.4413730000000 1.0
C      1  0.4865850000000  0.5644550000000  0.5213570000000 1.0
C      1  0.4482160000000  0.5325110000000  0.5170770000000 1.0
C      1  0.5027570000000  0.4231600000000  0.4753440000000 1.0
C      1  0.4479510000000  0.5384750000000  0.4608180000000 1.0
C      1  0.5532150000000  0.5442950000000  0.4641750000000 1.0
C      1  0.5260150000000  0.4448470000000  0.4695120000000 1.0
C      1  0.5133190000000  0.4950440000000  0.5735850000000 1.0
C      1  0.4716580000000  0.4312620000000  0.5271380000000 1.0
C      1  0.5340540000000  0.4756350000000  0.5460330000000 1.0
C      1  0.5238300000000  0.4962010000000  0.4966240000000 1.0
C      1  0.4280400000000  0.4885340000000  0.4796220000000 1.0
C      1  0.5427240000000  0.5394480000000  0.5561720000000 1.0
C      1  0.5309100000000  0.4738370000000  0.4862470000000 1.0
C      1  0.4329330000000  0.4606820000000  0.4706620000000 1.0
C      1  0.4907920000000  0.5142440000000  0.4425570000000 1.0
C      1  0.5061070000000  0.4886330000000  0.5316300000000 1.0
C      1  0.4584000000000  0.5411350000000  0.4906390000000 1.0
C      1  0.4455370000000  0.5149060000000  0.5715360000000 1.0
C      1  0.5552390000000  0.4505680000000  0.4847010000000 1.0
C      1  0.4858970000000  0.4565490000000  0.5435390000000 1.0
C      1  0.5163190000000  0.4976380000000  0.4410380000000 1.0
C      1  0.4650700000000  0.5684810000000  0.4630040000000 1.0
C      1  0.4931790000000  0.5281210000000  0.5051440000000 1.0
C      1  0.4903800000000  0.4958900000000  0.5023520000000 1.0
C      1  0.5597110000000  0.5174550000000  0.5600280000000 1.0
C      1  0.4571850000000  0.4873090000000  0.4971450000000 1.0
C      1  0.5413970000000  0.4494760000000  0.5158510000000 1.0
C      1  0.4624690000000  0.4512550000000  0.4560120000000 1.0
C      1  0.5182360000000  0.5355830000000  0.5680210000000 1.0
C      1  0.4379040000000  0.5071410000000  0.5160990000000 1.0
C      1  0.4996480000000  0.5150430000000  0.5512520000000 1.0
C      1  0.5389530000000  0.5453770000000  0.5269660000000 1.0
END
