TITL C-2848506-1665-144 0.0023489244747503 125000 -986.143710114502 0 0 188 (C1) n - 1
REM
REM in /home/bkarasulu/work/CARBON/AIRSS/Generating-Clusters/AIREBO/with-SteepDescent/Only-C1/SD-CG-opt/Try1-1.4A-POS3A/HFTN-CG
REM
REM
REM
REM
REM
REM ./C.cell (11c1c37f851c82e70ff6c80c92926a4b)
REM
REM compiler GCC version 9.2.1 20190827 (Red Hat 9.2.1-1)
REM options -cpp -mtune=generic -march=x86-64 -g -O0 -fpre-include=/usr/include/finclude/math-vector-fortran.h
REM seed -2119603959 -1476999205 -1192092757 520336857 1864790969 43109849 909774480 -468760510 903322120 823258726 1338210665 1439414001 -227876691 -14971773 1874293815 323558626 -446120770 -1287493621 -733816065 -842244806 -1265514399 1267845029 -1477355899 -1128047548 1181053120 607689574 1233177556 308607370 -616184427 -127667264 -133827898 -319892146 1227259867
REM
CELL 1.54180   50.00000   50.00000   50.00000   90.00000   90.00000   90.00000
LATT -1
SFAC C  
C      1  0.5881200000000  0.4377250000000  0.5149450000000 1.0
C      1  0.4341510000000  0.5208080000000  0.4263060000000 1.0
C      1  0.5301890000000  0.4560100000000  0.4555680000000 1.0
C      1  0.5644000000000  0.4053870000000  0.4793100000000 1.0
C      1  0.5098740000000  0.4988050000000  0.5565550000000 1.0
C      1  0.5456330000000  0.4430900000000  0.5885260000000 1.0
C      1  0.5055670000000  0.5753840000000  0.5171800000000 1.0
C      1  0.4899830000000  0.6139180000000  0.4813600000000 1.0
C      1  0.4648060000000  0.5304930000000  0.4373830000000 1.0
C      1  0.6083840000000  0.5234400000000  0.4548670000000 1.0
C      1  0.5410690000000  0.4092280000000  0.4337690000000 1.0
C      1  0.4727950000000  0.4654290000000  0.5768930000000 1.0
C      1  0.5147170000000  0.4937840000000  0.3805860000000 1.0
C      1  0.4856700000000  0.5079950000000  0.4627790000000 1.0
C      1  0.5780850000000  0.4348950000000  0.4821930000000 1.0
C      1  0.5152260000000  0.4820540000000  0.6125100000000 1.0
C      1  0.4826850000000  0.3957900000000  0.4835080000000 1.0
C      1  0.4347610000000  0.5932130000000  0.4839060000000 1.0
C      1  0.4673970000000  0.4856270000000  0.4913950000000 1.0
C      1  0.4910320000000  0.4878300000000  0.5304590000000 1.0
C      1  0.5602850000000  0.5520850000000  0.4360090000000 1.0
C      1  0.5081020000000  0.4648900000000  0.5582610000000 1.0
C      1  0.4162160000000  0.5712840000000  0.4709130000000 1.0
C      1  0.5160510000000  0.4469510000000  0.5304800000000 1.0
C      1  0.4385570000000  0.4878900000000  0.5337300000000 1.0
C      1  0.5151490000000  0.5340000000000  0.4105610000000 1.0
C      1  0.5203150000000  0.5970250000000  0.4451150000000 1.0
C      1  0.5368990000000  0.4694410000000  0.5716940000000 1.0
C      1  0.4245840000000  0.5451320000000  0.5709340000000 1.0
C      1  0.6144250000000  0.5256930000000  0.5339550000000 1.0
C      1  0.5289510000000  0.5493300000000  0.4980440000000 1.0
C      1  0.4382660000000  0.4301280000000  0.4653840000000 1.0
C      1  0.4381670000000  0.4951920000000  0.4042920000000 1.0
C      1  0.4579370000000  0.3969390000000  0.5040380000000 1.0
C      1  0.5007840000000  0.4967420000000  0.4109240000000 1.0
C      1  0.5829970000000  0.5600480000000  0.5243940000000 1.0
C      1  0.4235130000000  0.4691610000000  0.4770320000000 1.0
C      1  0.5516720000000  0.4890530000000  0.5402720000000 1.0
C      1  0.5926850000000  0.4713620000000  0.5123000000000 1.0
C      1  0.5571000000000  0.4968950000000  0.4572920000000 1.0
C      1  0.5597680000000  0.4178900000000  0.4513910000000 1.0
C      1  0.5849210000000  0.4821710000000  0.5390270000000 1.0
C      1  0.5181630000000  0.4545590000000  0.6034670000000 1.0
C      1  0.4359070000000  0.5708320000000  0.5536040000000 1.0
C      1  0.5099180000000  0.4574020000000  0.3960920000000 1.0
C      1  0.5588480000000  0.5124830000000  0.4017990000000 1.0
C      1  0.5961150000000  0.5130390000000  0.5911920000000 1.0
C      1  0.4730720000000  0.4283880000000  0.4846000000000 1.0
C      1  0.3880920000000  0.4924280000000  0.5014870000000 1.0
C      1  0.5515200000000  0.4256830000000  0.5648830000000 1.0
C      1  0.5564080000000  0.5599440000000  0.4810210000000 1.0
C      1  0.5428820000000  0.4835670000000  0.4295230000000 1.0
C      1  0.5186410000000  0.4878980000000  0.4529910000000 1.0
C      1  0.4344690000000  0.5594250000000  0.4383680000000 1.0
C      1  0.4958230000000  0.4441320000000  0.5900310000000 1.0
C      1  0.4606510000000  0.5897850000000  0.4695930000000 1.0
C      1  0.5264020000000  0.5829500000000  0.4934640000000 1.0
C      1  0.4780520000000  0.5126100000000  0.5112450000000 1.0
C      1  0.4710440000000  0.3949720000000  0.5355330000000 1.0
C      1  0.4923440000000  0.5484760000000  0.3933280000000 1.0
C      1  0.5702560000000  0.4312920000000  0.5402630000000 1.0
C      1  0.5281430000000  0.5803050000000  0.5738590000000 1.0
C      1  0.5234410000000  0.4795720000000  0.5242820000000 1.0
C      1  0.4040460000000  0.5431620000000  0.4671790000000 1.0
C      1  0.5489360000000  0.4422970000000  0.5083970000000 1.0
C      1  0.4662240000000  0.4856490000000  0.6000290000000 1.0
C      1  0.5384180000000  0.5012690000000  0.6032990000000 1.0
C      1  0.4003030000000  0.4459260000000  0.4726200000000 1.0
C      1  0.5220390000000  0.5605310000000  0.5397490000000 1.0
C      1  0.5439390000000  0.5801880000000  0.4355850000000 1.0
C      1  0.3979270000000  0.4905020000000  0.4389410000000 1.0
C      1  0.4439060000000  0.4983470000000  0.5856820000000 1.0
C      1  0.4959520000000  0.5943350000000  0.4303570000000 1.0
C      1  0.5844650000000  0.5122150000000  0.5407510000000 1.0
C      1  0.5286610000000  0.4566230000000  0.4891450000000 1.0
C      1  0.5568020000000  0.5335000000000  0.5744050000000 1.0
C      1  0.4850200000000  0.4285100000000  0.5134230000000 1.0
C      1  0.5236020000000  0.5198210000000  0.4648540000000 1.0
C      1  0.4772750000000  0.5209570000000  0.5503080000000 1.0
C      1  0.4803560000000  0.4484530000000  0.5484160000000 1.0
C      1  0.4464150000000  0.5103120000000  0.4809530000000 1.0
C      1  0.5447470000000  0.5202460000000  0.5058360000000 1.0
C      1  0.5004120000000  0.5922830000000  0.5528840000000 1.0
C      1  0.5169210000000  0.4440780000000  0.4266130000000 1.0
C      1  0.5563690000000  0.5283210000000  0.4684990000000 1.0
C      1  0.4694400000000  0.5586960000000  0.4066060000000 1.0
C      1  0.4567180000000  0.4355710000000  0.4160790000000 1.0
C      1  0.4292020000000  0.4818350000000  0.5658830000000 1.0
C      1  0.5175610000000  0.6007780000000  0.4732230000000 1.0
C      1  0.4978790000000  0.4719740000000  0.4312400000000 1.0
C      1  0.5320610000000  0.3933970000000  0.5328510000000 1.0
C      1  0.4422320000000  0.5500910000000  0.4110280000000 1.0
C      1  0.5264190000000  0.6065310000000  0.5439450000000 1.0
C      1  0.4794060000000  0.5422210000000  0.5863410000000 1.0
C      1  0.3984030000000  0.5066220000000  0.5259790000000 1.0
C      1  0.5638160000000  0.4507360000000  0.4554670000000 1.0
C      1  0.4208850000000  0.4329680000000  0.5142850000000 1.0
C      1  0.4937840000000  0.5249230000000  0.6046160000000 1.0
C      1  0.5956410000000  0.4953870000000  0.4907300000000 1.0
C      1  0.4256130000000  0.4535830000000  0.5716360000000 1.0
C      1  0.5413140000000  0.5030800000000  0.5694660000000 1.0
C      1  0.4790660000000  0.6162460000000  0.5118620000000 1.0
C      1  0.5231450000000  0.4209100000000  0.5511850000000 1.0
C      1  0.5752300000000  0.4736520000000  0.4329870000000 1.0
C      1  0.5330710000000  0.5154650000000  0.3950250000000 1.0
C      1  0.5880280000000  0.4723620000000  0.5687710000000 1.0
C      1  0.4250710000000  0.4665430000000  0.5109170000000 1.0
C      1  0.5212260000000  0.5280020000000  0.6007770000000 1.0
C      1  0.4840390000000  0.5500390000000  0.5393760000000 1.0
C      1  0.4720200000000  0.4592970000000  0.4131280000000 1.0
C      1  0.4382520000000  0.5208090000000  0.5423020000000 1.0
C      1  0.5490220000000  0.5591600000000  0.5233240000000 1.0
C      1  0.5261280000000  0.3797220000000  0.4789250000000 1.0
C      1  0.5028540000000  0.5355770000000  0.5149970000000 1.0
C      1  0.5240770000000  0.4221140000000  0.5086790000000 1.0
C      1  0.5300370000000  0.5385190000000  0.4371700000000 1.0
C      1  0.5021280000000  0.5609460000000  0.4709380000000 1.0
C      1  0.5760170000000  0.5192750000000  0.4947650000000 1.0
C      1  0.4691030000000  0.4177940000000  0.5578800000000 1.0
C      1  0.5661180000000  0.5835230000000  0.4967590000000 1.0
C      1  0.6042690000000  0.5207350000000  0.5653530000000 1.0
C      1  0.5707760000000  0.5536360000000  0.5560150000000 1.0
C      1  0.5600380000000  0.5291650000000  0.5349650000000 1.0
C      1  0.4508350000000  0.4394730000000  0.5774230000000 1.0
C      1  0.4706680000000  0.6181450000000  0.4550650000000 1.0
C      1  0.4390950000000  0.5916410000000  0.5110160000000 1.0
C      1  0.4630690000000  0.5583900000000  0.4567490000000 1.0
C      1  0.4664120000000  0.4896760000000  0.5538390000000 1.0
C      1  0.4869110000000  0.5808870000000  0.4892740000000 1.0
C      1  0.4411980000000  0.4765690000000  0.4469500000000 1.0
C      1  0.4881550000000  0.4737290000000  0.3800270000000 1.0
C      1  0.4091230000000  0.5556590000000  0.5423540000000 1.0
C      1  0.4054390000000  0.5235620000000  0.5507790000000 1.0
C      1  0.4995200000000  0.4825740000000  0.4806230000000 1.0
C      1  0.5796960000000  0.5283250000000  0.4437410000000 1.0
C      1  0.5678490000000  0.4637320000000  0.4930620000000 1.0
C      1  0.4163330000000  0.5445870000000  0.5148690000000 1.0
C      1  0.5961460000000  0.5380390000000  0.5126890000000 1.0
C      1  0.4639910000000  0.4703940000000  0.5194530000000 1.0
C      1  0.5006270000000  0.4026930000000  0.5238170000000 1.0
C      1  0.6140400000000  0.5022200000000  0.4718110000000 1.0
C      1  0.3946590000000  0.4328520000000  0.4939720000000 1.0
C      1  0.5046410000000  0.3915390000000  0.4667870000000 1.0
C      1  0.5339500000000  0.4763350000000  0.4025740000000 1.0
C      1  0.4805190000000  0.5921050000000  0.5281350000000 1.0
C      1  0.4523370000000  0.5266360000000  0.5727100000000 1.0
C      1  0.4028610000000  0.4937110000000  0.4716210000000 1.0
C      1  0.4942250000000  0.5194420000000  0.4318350000000 1.0
C      1  0.4549450000000  0.5347710000000  0.5175980000000 1.0
C      1  0.5303050000000  0.5614310000000  0.4601300000000 1.0
C      1  0.5483240000000  0.4820020000000  0.4801030000000 1.0
C      1  0.5427860000000  0.3965090000000  0.5003170000000 1.0
C      1  0.5543800000000  0.4572060000000  0.5350380000000 1.0
C      1  0.4211410000000  0.4830410000000  0.4260030000000 1.0
C      1  0.4724480000000  0.4643610000000  0.4524850000000 1.0
C      1  0.5691930000000  0.5145310000000  0.5975260000000 1.0
C      1  0.4990300000000  0.4469730000000  0.4622140000000 1.0
C      1  0.5110980000000  0.4145280000000  0.4425810000000 1.0
C      1  0.5514570000000  0.5929680000000  0.5260080000000 1.0
C      1  0.4572870000000  0.5672820000000  0.5273990000000 1.0
C      1  0.5678890000000  0.4758560000000  0.5841220000000 1.0
C      1  0.4336670000000  0.5543750000000  0.4913420000000 1.0
C      1  0.4368440000000  0.5994500000000  0.5393170000000 1.0
C      1  0.4322640000000  0.4132010000000  0.4887850000000 1.0
C      1  0.5993010000000  0.4604630000000  0.4193660000000 1.0
C      1  0.4044210000000  0.5274110000000  0.4927080000000 1.0
C      1  0.5163520000000  0.5274450000000  0.5451380000000 1.0
C      1  0.4532630000000  0.4229840000000  0.4411830000000 1.0
C      1  0.4891660000000  0.4970850000000  0.6114350000000 1.0
C      1  0.4477300000000  0.4493330000000  0.5388720000000 1.0
C      1  0.4162550000000  0.4390660000000  0.5470980000000 1.0
C      1  0.4611810000000  0.4813670000000  0.3948890000000 1.0
C      1  0.4259640000000  0.5056520000000  0.5075490000000 1.0
C      1  0.4992770000000  0.4564890000000  0.5024560000000 1.0
C      1  0.5528780000000  0.5798010000000  0.5573340000000 1.0
C      1  0.5265290000000  0.5399630000000  0.5737270000000 1.0
C      1  0.5009140000000  0.5612020000000  0.5667150000000 1.0
C      1  0.4538370000000  0.4262800000000  0.5193480000000 1.0
C      1  0.4635560000000  0.5394140000000  0.4850040000000 1.0
C      1  0.4579010000000  0.5014100000000  0.4516820000000 1.0
C      1  0.4985220000000  0.4215930000000  0.5717430000000 1.0
C      1  0.5257830000000  0.4954370000000  0.4979880000000 1.0
C      1  0.4808990000000  0.4203360000000  0.4525030000000 1.0
C      1  0.4550900000000  0.4566180000000  0.4785250000000 1.0
C      1  0.4223370000000  0.5181560000000  0.4582250000000 1.0
C      1  0.4770900000000  0.5735690000000  0.4297310000000 1.0
C      1  0.4966460000000  0.5320360000000  0.4817270000000 1.0
C      1  0.5748490000000  0.5061280000000  0.4228460000000 1.0
END
