TITL C-2848497-6229-558 -0.000897285930558011 125000 -1070.45536654625 0 0 200 (C1) n - 1
REM
REM in /home/bkarasulu/work/CARBON/AIRSS/Generating-Clusters/AIREBO/with-SteepDescent/Only-C1/SD-CG-opt/Try1-1.4A-POS3A/HFTN-CG
REM
REM
REM
REM
REM
REM ./C.cell (11c1c37f851c82e70ff6c80c92926a4b)
REM
REM compiler GCC version 9.2.1 20190827 (Red Hat 9.2.1-1)
REM options -cpp -mtune=generic -march=x86-64 -g -O0 -fpre-include=/usr/include/finclude/math-vector-fortran.h
REM seed -749929061 973124963 -763398859 -2063089030 -554636908 -557830722 1473927909 -1194284666 1988326356 -1816159487 800385541 -1244460711 2005046597 1076595990 -1874222312 -250439642 -236510698 -1619640156 -1212375310 -1541238056 870881272 861675247 -1137130804 256176212 -312568324 -2032954447 -829544140 -1008889239 2042293848 1024682656 2105956828 561936717 506311168
REM
CELL 1.54180   50.00000   50.00000   50.00000   90.00000   90.00000   90.00000
LATT -1
SFAC C  
C      1  0.3764080000000  0.4588360000000  0.4871350000000 1.0
C      1  0.4731500000000  0.5640380000000  0.5278910000000 1.0
C      1  0.4829640000000  0.4917220000000  0.4750930000000 1.0
C      1  0.5653260000000  0.4167220000000  0.5525910000000 1.0
C      1  0.5661470000000  0.5117120000000  0.4631350000000 1.0
C      1  0.5565150000000  0.5579060000000  0.5251880000000 1.0
C      1  0.4645300000000  0.5839130000000  0.4365100000000 1.0
C      1  0.5026940000000  0.5315210000000  0.4996590000000 1.0
C      1  0.5042420000000  0.4266620000000  0.4263310000000 1.0
C      1  0.4977630000000  0.4353220000000  0.5927690000000 1.0
C      1  0.5419270000000  0.4413840000000  0.5567980000000 1.0
C      1  0.4467990000000  0.5933780000000  0.5282440000000 1.0
C      1  0.4534010000000  0.5302710000000  0.5618680000000 1.0
C      1  0.4613420000000  0.4980890000000  0.4275270000000 1.0
C      1  0.4523290000000  0.4988990000000  0.5118590000000 1.0
C      1  0.4544980000000  0.4609160000000  0.5279650000000 1.0
C      1  0.4870680000000  0.4774060000000  0.3823790000000 1.0
C      1  0.4054210000000  0.4810650000000  0.5220350000000 1.0
C      1  0.4750280000000  0.5899760000000  0.5470720000000 1.0
C      1  0.4483750000000  0.5818470000000  0.4962580000000 1.0
C      1  0.4137690000000  0.5568370000000  0.5280710000000 1.0
C      1  0.4195410000000  0.4198300000000  0.5250710000000 1.0
C      1  0.4962530000000  0.4464600000000  0.5606750000000 1.0
C      1  0.4387050000000  0.5775780000000  0.4451340000000 1.0
C      1  0.4999090000000  0.6174280000000  0.5322910000000 1.0
C      1  0.5087500000000  0.4950450000000  0.5526240000000 1.0
C      1  0.3893350000000  0.4739150000000  0.4657000000000 1.0
C      1  0.5301060000000  0.5499420000000  0.3959830000000 1.0
C      1  0.4968840000000  0.4901740000000  0.4436890000000 1.0
C      1  0.5471810000000  0.4506900000000  0.4509320000000 1.0
C      1  0.4967370000000  0.5833610000000  0.5965740000000 1.0
C      1  0.4310330000000  0.4746500000000  0.5011190000000 1.0
C      1  0.5951490000000  0.5017050000000  0.5700210000000 1.0
C      1  0.5811830000000  0.4080930000000  0.4930740000000 1.0
C      1  0.4722790000000  0.5143980000000  0.5829380000000 1.0
C      1  0.4594830000000  0.4612980000000  0.6149490000000 1.0
C      1  0.4628780000000  0.4527010000000  0.4743670000000 1.0
C      1  0.4280590000000  0.5108210000000  0.4649080000000 1.0
C      1  0.5472420000000  0.5377780000000  0.4513860000000 1.0
C      1  0.5157640000000  0.5966560000000  0.5489890000000 1.0
C      1  0.4837740000000  0.4667530000000  0.4116640000000 1.0
C      1  0.5990980000000  0.5631060000000  0.5066610000000 1.0
C      1  0.4770100000000  0.5459610000000  0.4370400000000 1.0
C      1  0.4709580000000  0.4727160000000  0.5006390000000 1.0
C      1  0.4502310000000  0.4856490000000  0.6323950000000 1.0
C      1  0.5629830000000  0.5005650000000  0.4097830000000 1.0
C      1  0.4672680000000  0.4397900000000  0.6001230000000 1.0
C      1  0.5289060000000  0.5159760000000  0.5349280000000 1.0
C      1  0.5423160000000  0.3960160000000  0.4820890000000 1.0
C      1  0.3961910000000  0.5032490000000  0.4740480000000 1.0
C      1  0.4357530000000  0.4177900000000  0.5035330000000 1.0
C      1  0.5831710000000  0.4444080000000  0.4264980000000 1.0
C      1  0.4964580000000  0.5366980000000  0.5450180000000 1.0
C      1  0.5192220000000  0.5665390000000  0.4904080000000 1.0
C      1  0.4729260000000  0.5400350000000  0.5071070000000 1.0
C      1  0.6006780000000  0.4504640000000  0.5032190000000 1.0
C      1  0.4348420000000  0.4155800000000  0.4470780000000 1.0
C      1  0.5219340000000  0.5148610000000  0.6003400000000 1.0
C      1  0.4153070000000  0.4330020000000  0.4640860000000 1.0
C      1  0.5578280000000  0.4480420000000  0.4124940000000 1.0
C      1  0.4245070000000  0.5809140000000  0.4720590000000 1.0
C      1  0.4983990000000  0.6081610000000  0.5039430000000 1.0
C      1  0.4133590000000  0.5210970000000  0.4360070000000 1.0
C      1  0.5014540000000  0.4007760000000  0.5715980000000 1.0
C      1  0.4847520000000  0.4145120000000  0.4589780000000 1.0
C      1  0.5789710000000  0.4791730000000  0.5805890000000 1.0
C      1  0.5343940000000  0.4781590000000  0.6097310000000 1.0
C      1  0.4713860000000  0.5010220000000  0.3825460000000 1.0
C      1  0.5922630000000  0.5315270000000  0.5049290000000 1.0
C      1  0.4809060000000  0.3864450000000  0.4871100000000 1.0
C      1  0.4885080000000  0.5185440000000  0.4268940000000 1.0
C      1  0.4335740000000  0.4794000000000  0.4693580000000 1.0
C      1  0.5676350000000  0.5740360000000  0.5525370000000 1.0
C      1  0.5302710000000  0.6098930000000  0.5719560000000 1.0
C      1  0.5427410000000  0.4762500000000  0.4185720000000 1.0
C      1  0.5943200000000  0.5736390000000  0.5314670000000 1.0
C      1  0.4390060000000  0.4459550000000  0.5545040000000 1.0
C      1  0.5136290000000  0.5612870000000  0.5979070000000 1.0
C      1  0.4558960000000  0.4472590000000  0.4116460000000 1.0
C      1  0.5268630000000  0.4647440000000  0.4732870000000 1.0
C      1  0.5320660000000  0.4062180000000  0.5050570000000 1.0
C      1  0.4608850000000  0.4241100000000  0.4397110000000 1.0
C      1  0.5397890000000  0.4762660000000  0.5320300000000 1.0
C      1  0.5049920000000  0.4080110000000  0.5104130000000 1.0
C      1  0.4874020000000  0.5213460000000  0.3937950000000 1.0
C      1  0.5047080000000  0.5805410000000  0.3599250000000 1.0
C      1  0.5908810000000  0.4698000000000  0.5280420000000 1.0
C      1  0.4956310000000  0.4545590000000  0.5154310000000 1.0
C      1  0.5228290000000  0.6141260000000  0.4872830000000 1.0
C      1  0.4561190000000  0.5422340000000  0.4586840000000 1.0
C      1  0.4745840000000  0.4112360000000  0.5635550000000 1.0
C      1  0.5927440000000  0.4345840000000  0.4531410000000 1.0
C      1  0.4068610000000  0.4580450000000  0.4486300000000 1.0
C      1  0.5624760000000  0.5839330000000  0.4811120000000 1.0
C      1  0.5109680000000  0.4874470000000  0.4128220000000 1.0
C      1  0.4904100000000  0.4266440000000  0.4870100000000 1.0
C      1  0.5201330000000  0.5588040000000  0.4580610000000 1.0
C      1  0.4773510000000  0.4993970000000  0.5538150000000 1.0
C      1  0.5039280000000  0.4862290000000  0.5968750000000 1.0
C      1  0.5754120000000  0.4120300000000  0.4665290000000 1.0
C      1  0.4393560000000  0.4937170000000  0.6552990000000 1.0
C      1  0.4119450000000  0.4500040000000  0.5342520000000 1.0
C      1  0.5707750000000  0.4582760000000  0.5630540000000 1.0
C      1  0.5533680000000  0.4541700000000  0.4917850000000 1.0
C      1  0.4660320000000  0.5563940000000  0.4822290000000 1.0
C      1  0.4611780000000  0.5096540000000  0.4572860000000 1.0
C      1  0.3958060000000  0.5357570000000  0.5085600000000 1.0
C      1  0.4525170000000  0.4831290000000  0.5485450000000 1.0
C      1  0.4774730000000  0.5930160000000  0.5797400000000 1.0
C      1  0.5185650000000  0.5182680000000  0.4005030000000 1.0
C      1  0.4834620000000  0.4703860000000  0.5803630000000 1.0
C      1  0.4531860000000  0.5574490000000  0.5546620000000 1.0
C      1  0.5741650000000  0.4228690000000  0.5147750000000 1.0
C      1  0.4721740000000  0.4299710000000  0.5142900000000 1.0
C      1  0.4164650000000  0.4758830000000  0.5738340000000 1.0
C      1  0.4240310000000  0.5814170000000  0.5417790000000 1.0
C      1  0.5495400000000  0.5589670000000  0.4947090000000 1.0
C      1  0.5772390000000  0.5751100000000  0.4533690000000 1.0
C      1  0.4940640000000  0.3829080000000  0.4605550000000 1.0
C      1  0.5191500000000  0.5228510000000  0.4409910000000 1.0
C      1  0.4561320000000  0.4698380000000  0.4457810000000 1.0
C      1  0.4607080000000  0.4024580000000  0.4982310000000 1.0
C      1  0.5467170000000  0.4899990000000  0.5597620000000 1.0
C      1  0.6101000000000  0.5270440000000  0.4762860000000 1.0
C      1  0.5575690000000  0.4896610000000  0.5980830000000 1.0
C      1  0.5559080000000  0.5113320000000  0.5218590000000 1.0
C      1  0.3941080000000  0.5080910000000  0.5047800000000 1.0
C      1  0.4345350000000  0.4435840000000  0.4868500000000 1.0
C      1  0.5494210000000  0.5907890000000  0.5282740000000 1.0
C      1  0.4833300000000  0.4496590000000  0.4401360000000 1.0
C      1  0.5102380000000  0.4246800000000  0.4009880000000 1.0
C      1  0.3932480000000  0.4176850000000  0.4728560000000 1.0
C      1  0.5850310000000  0.4947330000000  0.4857670000000 1.0
C      1  0.4019070000000  0.5581450000000  0.4833330000000 1.0
C      1  0.4994910000000  0.5000740000000  0.5030990000000 1.0
C      1  0.3952210000000  0.5155730000000  0.5567680000000 1.0
C      1  0.4335470000000  0.5754180000000  0.5694390000000 1.0
C      1  0.5176020000000  0.5410470000000  0.6162040000000 1.0
C      1  0.5235200000000  0.4944460000000  0.4602800000000 1.0
C      1  0.5850070000000  0.4731070000000  0.4278900000000 1.0
C      1  0.5178730000000  0.5651380000000  0.3765480000000 1.0
C      1  0.4052040000000  0.5032100000000  0.4138180000000 1.0
C      1  0.4872190000000  0.6011010000000  0.4539310000000 1.0
C      1  0.5629840000000  0.5591430000000  0.4361620000000 1.0
C      1  0.4496180000000  0.4690390000000  0.5771320000000 1.0
C      1  0.6096160000000  0.4772720000000  0.4749260000000 1.0
C      1  0.5155640000000  0.4061540000000  0.4474370000000 1.0
C      1  0.5253250000000  0.5500330000000  0.5691340000000 1.0
C      1  0.5135490000000  0.6182780000000  0.4612610000000 1.0
C      1  0.4236330000000  0.4850290000000  0.4060560000000 1.0
C      1  0.4789890000000  0.5142050000000  0.5264240000000 1.0
C      1  0.5253800000000  0.4813690000000  0.5022160000000 1.0
C      1  0.5242170000000  0.4483270000000  0.5285960000000 1.0
C      1  0.4570270000000  0.4923850000000  0.6007250000000 1.0
C      1  0.4006610000000  0.4879650000000  0.5549870000000 1.0
C      1  0.5497210000000  0.5157310000000  0.3917130000000 1.0
C      1  0.5754560000000  0.5332410000000  0.5349840000000 1.0
C      1  0.5589950000000  0.4824150000000  0.4472750000000 1.0
C      1  0.5247900000000  0.4525840000000  0.5976560000000 1.0
C      1  0.5202580000000  0.5747030000000  0.5234090000000 1.0
C      1  0.5870600000000  0.5045960000000  0.4284490000000 1.0
C      1  0.5860820000000  0.4399020000000  0.5388790000000 1.0
C      1  0.5441290000000  0.4172680000000  0.4565930000000 1.0
C      1  0.4967310000000  0.4532560000000  0.4711770000000 1.0
C      1  0.5582280000000  0.5430770000000  0.5630180000000 1.0
C      1  0.4304680000000  0.5530730000000  0.4999460000000 1.0
C      1  0.5181210000000  0.5438140000000  0.5232750000000 1.0
C      1  0.5165210000000  0.4763830000000  0.3811400000000 1.0
C      1  0.5647270000000  0.4809500000000  0.5093930000000 1.0
C      1  0.6160380000000  0.4560070000000  0.4632560000000 1.0
C      1  0.5862060000000  0.5287870000000  0.5760720000000 1.0
C      1  0.5223800000000  0.4673300000000  0.5668560000000 1.0
C      1  0.5142380000000  0.5311220000000  0.4725310000000 1.0
C      1  0.5225740000000  0.4202280000000  0.5750780000000 1.0
C      1  0.4292120000000  0.4622770000000  0.4264250000000 1.0
C      1  0.5535730000000  0.5582590000000  0.4095510000000 1.0
C      1  0.5607930000000  0.5279080000000  0.4925730000000 1.0
C      1  0.4958160000000  0.5702790000000  0.4431900000000 1.0
C      1  0.6109890000000  0.4987270000000  0.5466350000000 1.0
C      1  0.4878100000000  0.5761770000000  0.4992830000000 1.0
C      1  0.4397980000000  0.5116120000000  0.5408180000000 1.0
C      1  0.3966940000000  0.5352530000000  0.4615360000000 1.0
C      1  0.5042200000000  0.5216830000000  0.5732670000000 1.0
C      1  0.5471900000000  0.6044810000000  0.4981420000000 1.0
C      1  0.5938910000000  0.5762520000000  0.4825140000000 1.0
C      1  0.5488930000000  0.5153280000000  0.5803420000000 1.0
C      1  0.5821970000000  0.4477850000000  0.4826510000000 1.0
C      1  0.4992420000000  0.5683210000000  0.5572210000000 1.0
C      1  0.4567840000000  0.4290640000000  0.5753950000000 1.0
C      1  0.4266030000000  0.5477880000000  0.4498280000000 1.0
C      1  0.5448000000000  0.4317850000000  0.5120740000000 1.0
C      1  0.4387770000000  0.5241630000000  0.4936610000000 1.0
C      1  0.3849780000000  0.4555310000000  0.5129340000000 1.0
C      1  0.4487050000000  0.4966800000000  0.3995780000000 1.0
C      1  0.5341480000000  0.5104550000000  0.4869380000000 1.0
C      1  0.4930270000000  0.4223700000000  0.5390070000000 1.0
C      1  0.4726600000000  0.6016500000000  0.4826030000000 1.0
C      1  0.5990820000000  0.5001960000000  0.5162440000000 1.0
C      1  0.4141420000000  0.5294480000000  0.5434820000000 1.0
C      1  0.5965340000000  0.5193590000000  0.4533130000000 1.0
END
