TITL C-2848505-4874-454 -0.00109217590220702 125000 -829.434837294877 0 0 151 (C1) n - 1
REM
REM in /home/bkarasulu/work/CARBON/AIRSS/Generating-Clusters/AIREBO/with-SteepDescent/Only-C1/SD-CG-opt/Try1-1.4A-POS3A/HFTN-CG
REM
REM
REM
REM
REM
REM ./C.cell (11c1c37f851c82e70ff6c80c92926a4b)
REM
REM compiler GCC version 9.2.1 20190827 (Red Hat 9.2.1-1)
REM options -cpp -mtune=generic -march=x86-64 -g -O0 -fpre-include=/usr/include/finclude/math-vector-fortran.h
REM seed -753439586 -1448324825 -116880316 -1465868318 -44762675 -46415383 1461066964 439803585 -1215422979 -491667493 1899342243 1508198089 1365802172 -1743925005 911981540 -1554350471 -680203947 1402332258 -81370214 1732037522 1047688584 245392292 178215578 578295608 -1550695515 118573334 -147300651 -1922955763 1651111096 2101968906 714776253 -2044477836 -624333259
REM
CELL 1.54180   50.00000   50.00000   50.00000   90.00000   90.00000   90.00000
LATT -1
SFAC C  
C      1  0.5139310000000  0.4489750000000  0.5689880000000 1.0
C      1  0.5788620000000  0.4526700000000  0.5030960000000 1.0
C      1  0.4121830000000  0.4967860000000  0.4203270000000 1.0
C      1  0.5113320000000  0.5155640000000  0.4050100000000 1.0
C      1  0.4978540000000  0.5122120000000  0.4348670000000 1.0
C      1  0.4356140000000  0.5636730000000  0.4746670000000 1.0
C      1  0.5677280000000  0.4582080000000  0.4275110000000 1.0
C      1  0.4319280000000  0.4968010000000  0.5336880000000 1.0
C      1  0.4998740000000  0.4023780000000  0.5466590000000 1.0
C      1  0.5342290000000  0.4536420000000  0.5256740000000 1.0
C      1  0.5647180000000  0.4919500000000  0.4245980000000 1.0
C      1  0.4442620000000  0.5875060000000  0.5383250000000 1.0
C      1  0.5313480000000  0.5560090000000  0.5284140000000 1.0
C      1  0.4641350000000  0.5310240000000  0.5084580000000 1.0
C      1  0.5559940000000  0.4917670000000  0.5033060000000 1.0
C      1  0.4815840000000  0.5134010000000  0.4851880000000 1.0
C      1  0.5637370000000  0.5541420000000  0.4702430000000 1.0
C      1  0.5611930000000  0.4960830000000  0.5519690000000 1.0
C      1  0.4095810000000  0.4950660000000  0.5007030000000 1.0
C      1  0.4751310000000  0.5636430000000  0.5769120000000 1.0
C      1  0.5018750000000  0.4640970000000  0.4510800000000 1.0
C      1  0.4698890000000  0.4923050000000  0.5338170000000 1.0
C      1  0.5125100000000  0.5033820000000  0.5347480000000 1.0
C      1  0.5471930000000  0.4613450000000  0.4961730000000 1.0
C      1  0.4783560000000  0.5892660000000  0.5077380000000 1.0
C      1  0.4836360000000  0.5570020000000  0.4983900000000 1.0
C      1  0.5623480000000  0.5334730000000  0.4951140000000 1.0
C      1  0.4891830000000  0.5796710000000  0.5532630000000 1.0
C      1  0.4154430000000  0.4761120000000  0.5550880000000 1.0
C      1  0.4107900000000  0.5211940000000  0.4329110000000 1.0
C      1  0.5271700000000  0.5097660000000  0.5047170000000 1.0
C      1  0.4908630000000  0.6031130000000  0.4858570000000 1.0
C      1  0.5663400000000  0.4233470000000  0.4604450000000 1.0
C      1  0.5298520000000  0.4574410000000  0.4695900000000 1.0
C      1  0.4544320000000  0.4131720000000  0.5059700000000 1.0
C      1  0.4024810000000  0.5219300000000  0.4611450000000 1.0
C      1  0.5046170000000  0.5433030000000  0.4005560000000 1.0
C      1  0.5923540000000  0.5249350000000  0.4950360000000 1.0
C      1  0.4781910000000  0.3970950000000  0.4948720000000 1.0
C      1  0.5170450000000  0.5168890000000  0.4608710000000 1.0
C      1  0.4748020000000  0.4425210000000  0.4075370000000 1.0
C      1  0.5426920000000  0.5069850000000  0.4075190000000 1.0
C      1  0.5592790000000  0.5315400000000  0.4244770000000 1.0
C      1  0.4086380000000  0.5455860000000  0.4836890000000 1.0
C      1  0.4821390000000  0.4701880000000  0.4240590000000 1.0
C      1  0.4587700000000  0.5481230000000  0.4236560000000 1.0
C      1  0.6038730000000  0.5280240000000  0.5209160000000 1.0
C      1  0.4833290000000  0.5898150000000  0.4572420000000 1.0
C      1  0.5089530000000  0.4863240000000  0.4957880000000 1.0
C      1  0.4832540000000  0.4539680000000  0.5404700000000 1.0
C      1  0.5195840000000  0.5979500000000  0.4911180000000 1.0
C      1  0.5145080000000  0.4306750000000  0.4331720000000 1.0
C      1  0.4007140000000  0.5297190000000  0.5407030000000 1.0
C      1  0.4621560000000  0.5466600000000  0.6000580000000 1.0
C      1  0.4356880000000  0.5493120000000  0.5048290000000 1.0
C      1  0.5114480000000  0.5398070000000  0.5077500000000 1.0
C      1  0.5023370000000  0.4771060000000  0.5537980000000 1.0
C      1  0.5384020000000  0.4816340000000  0.5375710000000 1.0
C      1  0.5862360000000  0.4399500000000  0.5516030000000 1.0
C      1  0.5205690000000  0.4825830000000  0.3990190000000 1.0
C      1  0.5168360000000  0.5874540000000  0.4531390000000 1.0
C      1  0.4606350000000  0.4611710000000  0.4833300000000 1.0
C      1  0.5278810000000  0.5250720000000  0.5964870000000 1.0
C      1  0.5802280000000  0.5138540000000  0.4442120000000 1.0
C      1  0.4418830000000  0.5055680000000  0.5023650000000 1.0
C      1  0.5746210000000  0.5485430000000  0.4037830000000 1.0
C      1  0.5991880000000  0.5121380000000  0.4710540000000 1.0
C      1  0.5208010000000  0.5815150000000  0.5570990000000 1.0
C      1  0.5723270000000  0.4242220000000  0.4885220000000 1.0
C      1  0.4151000000000  0.4860810000000  0.5814240000000 1.0
C      1  0.4115220000000  0.4645710000000  0.4924750000000 1.0
C      1  0.4765410000000  0.5313640000000  0.5663160000000 1.0
C      1  0.5072730000000  0.4533540000000  0.4108340000000 1.0
C      1  0.5618360000000  0.5151030000000  0.5237730000000 1.0
C      1  0.5284800000000  0.4049980000000  0.5396990000000 1.0
C      1  0.5121190000000  0.4014970000000  0.4937720000000 1.0
C      1  0.4300070000000  0.4387910000000  0.4551060000000 1.0
C      1  0.4693500000000  0.4856020000000  0.5004880000000 1.0
C      1  0.4738930000000  0.4843730000000  0.5908620000000 1.0
C      1  0.4861160000000  0.4380590000000  0.5771020000000 1.0
C      1  0.5375410000000  0.5258590000000  0.5397150000000 1.0
C      1  0.4471210000000  0.5418790000000  0.5528600000000 1.0
C      1  0.4653440000000  0.4582630000000  0.5801030000000 1.0
C      1  0.5345920000000  0.3972420000000  0.5137330000000 1.0
C      1  0.5474610000000  0.5851020000000  0.4509970000000 1.0
C      1  0.3913390000000  0.5111260000000  0.5172390000000 1.0
C      1  0.4668110000000  0.5639630000000  0.4696720000000 1.0
C      1  0.5424750000000  0.5519700000000  0.4450630000000 1.0
C      1  0.4451590000000  0.5144950000000  0.4696170000000 1.0
C      1  0.5421870000000  0.4422770000000  0.5860860000000 1.0
C      1  0.4941740000000  0.4656150000000  0.5123720000000 1.0
C      1  0.5604090000000  0.4034290000000  0.5037460000000 1.0
C      1  0.4683790000000  0.5794190000000  0.4322850000000 1.0
C      1  0.5543910000000  0.5975210000000  0.5105980000000 1.0
C      1  0.5617090000000  0.4961270000000  0.4641750000000 1.0
C      1  0.4790100000000  0.5363710000000  0.4618300000000 1.0
C      1  0.4366650000000  0.4488920000000  0.5040950000000 1.0
C      1  0.4265340000000  0.5207770000000  0.5543830000000 1.0
C      1  0.5897400000000  0.4860450000000  0.5409780000000 1.0
C      1  0.5359160000000  0.4329410000000  0.5481020000000 1.0
C      1  0.5137750000000  0.4405700000000  0.5020550000000 1.0
C      1  0.4977530000000  0.4906300000000  0.4683800000000 1.0
C      1  0.4476210000000  0.4516020000000  0.5582130000000 1.0
C      1  0.4368830000000  0.5335430000000  0.4444830000000 1.0
C      1  0.4992370000000  0.4294350000000  0.5283420000000 1.0
C      1  0.4468740000000  0.4673730000000  0.5307550000000 1.0
C      1  0.5427420000000  0.5169710000000  0.4753590000000 1.0
C      1  0.5901240000000  0.4595140000000  0.5315860000000 1.0
C      1  0.5002020000000  0.5522710000000  0.5380120000000 1.0
C      1  0.4598790000000  0.5137940000000  0.5902090000000 1.0
C      1  0.4776410000000  0.4174970000000  0.5595900000000 1.0
C      1  0.5403580000000  0.4265170000000  0.4467930000000 1.0
C      1  0.5618940000000  0.5269720000000  0.5954400000000 1.0
C      1  0.5779570000000  0.5296110000000  0.5659210000000 1.0
C      1  0.5951280000000  0.5162030000000  0.5458120000000 1.0
C      1  0.5231110000000  0.4257650000000  0.4754890000000 1.0
C      1  0.4387610000000  0.5606930000000  0.5334050000000 1.0
C      1  0.5090820000000  0.5482950000000  0.4513440000000 1.0
C      1  0.5866310000000  0.5670260000000  0.4662310000000 1.0
C      1  0.5504350000000  0.5433750000000  0.5612050000000 1.0
C      1  0.4297790000000  0.5093830000000  0.5825700000000 1.0
C      1  0.4252580000000  0.4215200000000  0.5213170000000 1.0
C      1  0.4711600000000  0.5935280000000  0.5340170000000 1.0
C      1  0.4301800000000  0.4730090000000  0.4328700000000 1.0
C      1  0.5087450000000  0.5680450000000  0.4790300000000 1.0
C      1  0.4406200000000  0.4271730000000  0.4782290000000 1.0
C      1  0.5256270000000  0.4946120000000  0.5925520000000 1.0
C      1  0.4598680000000  0.4298580000000  0.5351150000000 1.0
C      1  0.5540140000000  0.4999920000000  0.5804330000000 1.0
C      1  0.4843220000000  0.5224100000000  0.5344480000000 1.0
C      1  0.4115460000000  0.4648590000000  0.4597880000000 1.0
C      1  0.5014290000000  0.4853660000000  0.5835910000000 1.0
C      1  0.4515590000000  0.4460020000000  0.4321360000000 1.0
C      1  0.5180200000000  0.4862910000000  0.4311370000000 1.0
C      1  0.6113970000000  0.4856840000000  0.4743960000000 1.0
C      1  0.3938840000000  0.5420620000000  0.5111830000000 1.0
C      1  0.4726200000000  0.4484010000000  0.4584510000000 1.0
C      1  0.5284850000000  0.5582340000000  0.5717620000000 1.0
C      1  0.5063580000000  0.5390410000000  0.5808700000000 1.0
C      1  0.4917200000000  0.5558830000000  0.4230610000000 1.0
C      1  0.4917920000000  0.4025960000000  0.4665390000000 1.0
C      1  0.4682280000000  0.5087880000000  0.4463820000000 1.0
C      1  0.5806840000000  0.4789950000000  0.4835800000000 1.0
C      1  0.4022180000000  0.4956850000000  0.4707120000000 1.0
C      1  0.5473720000000  0.5985940000000  0.4805770000000 1.0
C      1  0.5396090000000  0.5859640000000  0.5316620000000 1.0
C      1  0.4925160000000  0.4243820000000  0.4498590000000 1.0
C      1  0.5442340000000  0.4754280000000  0.4461680000000 1.0
C      1  0.5629570000000  0.4356610000000  0.5657850000000 1.0
C      1  0.4589570000000  0.4859230000000  0.4304050000000 1.0
C      1  0.4380010000000  0.5675230000000  0.4423070000000 1.0
END
