TITL C-2848501-3133-708 0.00127472062962356 125000 -891.42607780074 0 0 160 (C1) n - 1
REM
REM in /home/bkarasulu/work/CARBON/AIRSS/Generating-Clusters/AIREBO/with-SteepDescent/Only-C1/SD-CG-opt/Try1-1.4A-POS3A/HFTN-CG
REM
REM
REM
REM
REM
REM ./C.cell (11c1c37f851c82e70ff6c80c92926a4b)
REM
REM compiler GCC version 9.2.1 20190827 (Red Hat 9.2.1-1)
REM options -cpp -mtune=generic -march=x86-64 -g -O0 -fpre-include=/usr/include/finclude/math-vector-fortran.h
REM seed 575971487 26069448 -2111582105 -1497187750 -737902540 -1251102542 1699879594 -2083295548 -317773026 -1907165590 260623146 535734592 73267070 -1217896087 -909676104 -2055593812 -326480364 -236078078 -989326365 -283269342 -975663919 -2055316602 1421848333 630694847 1839396180 -498245719 439840187 -1008198811 -756206351 -697013574 1317480194 1721238592 -343508564
REM
CELL 1.54180   50.00000   50.00000   50.00000   90.00000   90.00000   90.00000
LATT -1
SFAC C  
C      1  0.5199750000000  0.5054380000000  0.5594070000000 1.0
C      1  0.4109590000000  0.5092550000000  0.5353140000000 1.0
C      1  0.6063270000000  0.5029030000000  0.4672670000000 1.0
C      1  0.5200450000000  0.5501070000000  0.5397500000000 1.0
C      1  0.4891020000000  0.6163010000000  0.4801480000000 1.0
C      1  0.5420340000000  0.5431630000000  0.4734400000000 1.0
C      1  0.4286440000000  0.5200860000000  0.5083310000000 1.0
C      1  0.4864630000000  0.4887780000000  0.3917900000000 1.0
C      1  0.5575040000000  0.4448050000000  0.4499880000000 1.0
C      1  0.5431800000000  0.6012660000000  0.5208790000000 1.0
C      1  0.4485700000000  0.5220120000000  0.4808480000000 1.0
C      1  0.4435190000000  0.4194970000000  0.5073940000000 1.0
C      1  0.5077600000000  0.4972510000000  0.4116400000000 1.0
C      1  0.4759930000000  0.4514080000000  0.4232130000000 1.0
C      1  0.5262040000000  0.4924820000000  0.4810660000000 1.0
C      1  0.4895820000000  0.4575910000000  0.5547130000000 1.0
C      1  0.4531530000000  0.4670860000000  0.4182400000000 1.0
C      1  0.4706130000000  0.5373530000000  0.4074340000000 1.0
C      1  0.5222360000000  0.4964310000000  0.5921280000000 1.0
C      1  0.5307780000000  0.5262580000000  0.4263980000000 1.0
C      1  0.5593860000000  0.5230380000000  0.5810800000000 1.0
C      1  0.5028960000000  0.5825990000000  0.5784710000000 1.0
C      1  0.5521400000000  0.4281720000000  0.5319900000000 1.0
C      1  0.5774000000000  0.4848500000000  0.5536040000000 1.0
C      1  0.5703440000000  0.5046220000000  0.4840620000000 1.0
C      1  0.5536000000000  0.4972100000000  0.5918310000000 1.0
C      1  0.4905370000000  0.5992720000000  0.4578600000000 1.0
C      1  0.5560290000000  0.5856990000000  0.5647550000000 1.0
C      1  0.4456260000000  0.5427140000000  0.4384960000000 1.0
C      1  0.5564320000000  0.4954070000000  0.4552470000000 1.0
C      1  0.5495400000000  0.5949030000000  0.4901860000000 1.0
C      1  0.4417290000000  0.4531830000000  0.5818420000000 1.0
C      1  0.5537360000000  0.4227550000000  0.4983160000000 1.0
C      1  0.4725410000000  0.5616130000000  0.5077360000000 1.0
C      1  0.5009650000000  0.4533810000000  0.4919250000000 1.0
C      1  0.5810450000000  0.5586260000000  0.4487370000000 1.0
C      1  0.5280660000000  0.4730520000000  0.5528730000000 1.0
C      1  0.4183420000000  0.5770530000000  0.5093520000000 1.0
C      1  0.5806510000000  0.5605260000000  0.5341090000000 1.0
C      1  0.6055260000000  0.4825290000000  0.5348670000000 1.0
C      1  0.4265480000000  0.5598720000000  0.4301010000000 1.0
C      1  0.4898540000000  0.5056340000000  0.5435940000000 1.0
C      1  0.4075150000000  0.5174010000000  0.4818160000000 1.0
C      1  0.4449580000000  0.4469270000000  0.4731160000000 1.0
C      1  0.5292300000000  0.4472000000000  0.5749760000000 1.0
C      1  0.4555070000000  0.4770630000000  0.5900350000000 1.0
C      1  0.5931520000000  0.4509850000000  0.5393120000000 1.0
C      1  0.5562530000000  0.5591240000000  0.5655920000000 1.0
C      1  0.5914080000000  0.4780260000000  0.4812800000000 1.0
C      1  0.4428140000000  0.5014850000000  0.5832930000000 1.0
C      1  0.4476570000000  0.3972360000000  0.4917940000000 1.0
C      1  0.4580440000000  0.4178240000000  0.5512940000000 1.0
C      1  0.5111340000000  0.4697440000000  0.5889520000000 1.0
C      1  0.4652190000000  0.5154690000000  0.4328910000000 1.0
C      1  0.5856310000000  0.4555230000000  0.4625470000000 1.0
C      1  0.4587910000000  0.4018400000000  0.4658740000000 1.0
C      1  0.4522870000000  0.4911200000000  0.4945850000000 1.0
C      1  0.5583900000000  0.5165420000000  0.4197750000000 1.0
C      1  0.5022350000000  0.4036860000000  0.5111110000000 1.0
C      1  0.5169280000000  0.3776420000000  0.5544630000000 1.0
C      1  0.4830990000000  0.5043870000000  0.4905290000000 1.0
C      1  0.5802420000000  0.4292160000000  0.4788710000000 1.0
C      1  0.4992950000000  0.5217490000000  0.4659630000000 1.0
C      1  0.5379920000000  0.5378590000000  0.5038440000000 1.0
C      1  0.4198020000000  0.4932560000000  0.5616070000000 1.0
C      1  0.5056110000000  0.4842400000000  0.5054660000000 1.0
C      1  0.5913220000000  0.5121390000000  0.5445110000000 1.0
C      1  0.5392680000000  0.4702420000000  0.4460770000000 1.0
C      1  0.4596100000000  0.4696270000000  0.4575920000000 1.0
C      1  0.5033860000000  0.4552870000000  0.4055750000000 1.0
C      1  0.5004360000000  0.5795360000000  0.5104820000000 1.0
C      1  0.5908940000000  0.4661010000000  0.5089390000000 1.0
C      1  0.4266500000000  0.5055320000000  0.4307270000000 1.0
C      1  0.5805710000000  0.5365680000000  0.5579920000000 1.0
C      1  0.4560090000000  0.5979990000000  0.5076410000000 1.0
C      1  0.5860510000000  0.5104530000000  0.4480090000000 1.0
C      1  0.5381090000000  0.6020390000000  0.5498410000000 1.0
C      1  0.4404480000000  0.5200150000000  0.4026620000000 1.0
C      1  0.4813950000000  0.4731070000000  0.5829380000000 1.0
C      1  0.5080870000000  0.5607500000000  0.4851640000000 1.0
C      1  0.4837850000000  0.5302750000000  0.5946120000000 1.0
C      1  0.6074140000000  0.5199620000000  0.4904370000000 1.0
C      1  0.4942380000000  0.4653260000000  0.3755300000000 1.0
C      1  0.5128150000000  0.6030990000000  0.5630350000000 1.0
C      1  0.4446430000000  0.5713570000000  0.4912760000000 1.0
C      1  0.4700690000000  0.4265150000000  0.5226880000000 1.0
C      1  0.3886230000000  0.5330880000000  0.4988790000000 1.0
C      1  0.5308120000000  0.5175290000000  0.4585220000000 1.0
C      1  0.5103680000000  0.5722630000000  0.4264470000000 1.0
C      1  0.3970620000000  0.5368800000000  0.5260070000000 1.0
C      1  0.4864160000000  0.4767830000000  0.5325260000000 1.0
C      1  0.5154280000000  0.4411600000000  0.4313660000000 1.0
C      1  0.4675750000000  0.4501440000000  0.4983590000000 1.0
C      1  0.5038360000000  0.5304420000000  0.4103190000000 1.0
C      1  0.5713920000000  0.5715730000000  0.4783990000000 1.0
C      1  0.5324230000000  0.5751600000000  0.4707370000000 1.0
C      1  0.4587450000000  0.4737360000000  0.5198640000000 1.0
C      1  0.4376640000000  0.5517360000000  0.5444710000000 1.0
C      1  0.5428280000000  0.4242220000000  0.4661450000000 1.0
C      1  0.5058540000000  0.5400420000000  0.5120110000000 1.0
C      1  0.4824070000000  0.6037070000000  0.5043200000000 1.0
C      1  0.5799230000000  0.5348560000000  0.4329300000000 1.0
C      1  0.5015690000000  0.4194460000000  0.4899030000000 1.0
C      1  0.5094320000000  0.3982730000000  0.5390380000000 1.0
C      1  0.4488410000000  0.4997890000000  0.4558490000000 1.0
C      1  0.4692770000000  0.4366270000000  0.5721760000000 1.0
C      1  0.5531070000000  0.5141810000000  0.5185360000000 1.0
C      1  0.5226330000000  0.4446300000000  0.5358580000000 1.0
C      1  0.4610120000000  0.4936420000000  0.4071440000000 1.0
C      1  0.4689500000000  0.5805780000000  0.4525170000000 1.0
C      1  0.4580950000000  0.5517530000000  0.4669470000000 1.0
C      1  0.4416260000000  0.4212500000000  0.4561070000000 1.0
C      1  0.5660400000000  0.5655890000000  0.5114390000000 1.0
C      1  0.4817930000000  0.5236610000000  0.5173500000000 1.0
C      1  0.5235020000000  0.5050250000000  0.5255790000000 1.0
C      1  0.4203790000000  0.4592990000000  0.5637150000000 1.0
C      1  0.4444220000000  0.5472960000000  0.5709780000000 1.0
C      1  0.5598020000000  0.4870020000000  0.4163390000000 1.0
C      1  0.4990500000000  0.4379760000000  0.5880350000000 1.0
C      1  0.5291820000000  0.4754010000000  0.4153050000000 1.0
C      1  0.4566790000000  0.5262050000000  0.5855130000000 1.0
C      1  0.4937660000000  0.5351200000000  0.5537520000000 1.0
C      1  0.4824700000000  0.4448160000000  0.4532970000000 1.0
C      1  0.4169450000000  0.4397860000000  0.5437720000000 1.0
C      1  0.4287590000000  0.4716350000000  0.4323550000000 1.0
C      1  0.4306770000000  0.4154130000000  0.5514700000000 1.0
C      1  0.4541360000000  0.5382300000000  0.5216350000000 1.0
C      1  0.3950230000000  0.4377590000000  0.4937660000000 1.0
C      1  0.5595160000000  0.4625550000000  0.5131330000000 1.0
C      1  0.4823840000000  0.5567970000000  0.4317130000000 1.0
C      1  0.5180030000000  0.4196930000000  0.4531460000000 1.0
C      1  0.5714390000000  0.4373280000000  0.5507200000000 1.0
C      1  0.4134660000000  0.5592080000000  0.5311170000000 1.0
C      1  0.4947800000000  0.5045780000000  0.4391250000000 1.0
C      1  0.3947150000000  0.4487580000000  0.4708110000000 1.0
C      1  0.4212580000000  0.4410000000000  0.5124040000000 1.0
C      1  0.5865850000000  0.5114840000000  0.5131350000000 1.0
C      1  0.5728090000000  0.5377770000000  0.4818500000000 1.0
C      1  0.4852850000000  0.4850950000000  0.4629210000000 1.0
C      1  0.4405560000000  0.4826990000000  0.5388420000000 1.0
C      1  0.5026350000000  0.5518410000000  0.5807920000000 1.0
C      1  0.5154530000000  0.5882820000000  0.4485410000000 1.0
C      1  0.4244650000000  0.4719860000000  0.4985820000000 1.0
C      1  0.5320670000000  0.4481590000000  0.5046280000000 1.0
C      1  0.4958950000000  0.4273100000000  0.5427090000000 1.0
C      1  0.5749960000000  0.4650760000000  0.4290240000000 1.0
C      1  0.5539650000000  0.4837730000000  0.5339710000000 1.0
C      1  0.5598120000000  0.4488940000000  0.5749440000000 1.0
C      1  0.5007200000000  0.5130710000000  0.6081200000000 1.0
C      1  0.5325080000000  0.5694120000000  0.5156320000000 1.0
C      1  0.5310090000000  0.5364590000000  0.5680010000000 1.0
C      1  0.5126660000000  0.4586010000000  0.4604300000000 1.0
C      1  0.4063260000000  0.5750920000000  0.4232730000000 1.0
C      1  0.5676810000000  0.4759600000000  0.5796270000000 1.0
C      1  0.4869250000000  0.4126160000000  0.4627950000000 1.0
C      1  0.4093500000000  0.5005460000000  0.4595850000000 1.0
C      1  0.4199750000000  0.4685480000000  0.4650500000000 1.0
C      1  0.6048560000000  0.5486890000000  0.4850630000000 1.0
C      1  0.4046100000000  0.4883410000000  0.5117720000000 1.0
C      1  0.4907980000000  0.5490130000000  0.4637300000000 1.0
END
