TITL C-2847956-8218-131 0.000249148447475846 125000 -502.622150312652 0 0 90 (C1) n - 1
REM
REM in /home/bkarasulu/work/CARBON/AIRSS/Generating-Clusters/AIREBO/with-SteepDescent/Only-C1/SD-CG-opt/Try1-1.4A-POS3A/HFTN-CG
REM
REM
REM
REM
REM
REM ./C.cell (11c1c37f851c82e70ff6c80c92926a4b)
REM
REM compiler GCC version 9.2.1 20190827 (Red Hat 9.2.1-1)
REM options -cpp -mtune=generic -march=x86-64 -g -O0 -fpre-include=/usr/include/finclude/math-vector-fortran.h
REM seed 1980551935 -356472405 1597946262 440856446 -1795679495 2015600107 -1925581807 1323280419 -1019021844 1175298616 -347946142 561411077 1073412081 -822365166 -2050698491 -1296247106 465851693 -604587625 866622132 2005644836 2092309662 -24113414 -905875210 1668499378 -1098655624 66310442 -703246937 1298430029 -181659347 701665840 -1285056817 2029548677 -810441826
REM
CELL 1.54180   50.00000   50.00000   50.00000   90.00000   90.00000   90.00000
LATT -1
SFAC C  
C      1  0.5590260000000  0.4390500000000  0.5398240000000 1.0
C      1  0.5491520000000  0.4843050000000  0.4800490000000 1.0
C      1  0.4712510000000  0.4317870000000  0.5083270000000 1.0
C      1  0.5678640000000  0.4624330000000  0.5256740000000 1.0
C      1  0.5533020000000  0.4364420000000  0.4859060000000 1.0
C      1  0.5320270000000  0.4855400000000  0.5083480000000 1.0
C      1  0.4504210000000  0.4264520000000  0.4872630000000 1.0
C      1  0.5393910000000  0.5332120000000  0.4800100000000 1.0
C      1  0.4535740000000  0.5058310000000  0.5535200000000 1.0
C      1  0.5074410000000  0.5004320000000  0.5945460000000 1.0
C      1  0.5361240000000  0.5644460000000  0.4669620000000 1.0
C      1  0.5488240000000  0.5149050000000  0.5056220000000 1.0
C      1  0.4409430000000  0.5913160000000  0.4967320000000 1.0
C      1  0.4986460000000  0.5404700000000  0.4484920000000 1.0
C      1  0.5326330000000  0.4843600000000  0.5817190000000 1.0
C      1  0.4641730000000  0.4718110000000  0.5550020000000 1.0
C      1  0.4882540000000  0.5806120000000  0.4811340000000 1.0
C      1  0.4323650000000  0.5649850000000  0.4948570000000 1.0
C      1  0.4743050000000  0.4753140000000  0.4255490000000 1.0
C      1  0.4292850000000  0.4781770000000  0.5119440000000 1.0
C      1  0.5200850000000  0.5443470000000  0.5056990000000 1.0
C      1  0.5160200000000  0.5444360000000  0.5394660000000 1.0
C      1  0.5679360000000  0.4879170000000  0.5390620000000 1.0
C      1  0.4271890000000  0.5333380000000  0.5002350000000 1.0
C      1  0.5341220000000  0.4180190000000  0.5014720000000 1.0
C      1  0.4842510000000  0.5626490000000  0.5813980000000 1.0
C      1  0.4899470000000  0.5801120000000  0.5218100000000 1.0
C      1  0.4617270000000  0.4581630000000  0.5239260000000 1.0
C      1  0.5004890000000  0.5375150000000  0.3955100000000 1.0
C      1  0.5160660000000  0.4871420000000  0.4717370000000 1.0
C      1  0.4532100000000  0.5253250000000  0.5357820000000 1.0
C      1  0.4554720000000  0.5441780000000  0.4848500000000 1.0
C      1  0.4507680000000  0.5243530000000  0.4348930000000 1.0
C      1  0.4900770000000  0.5541940000000  0.5021940000000 1.0
C      1  0.4630160000000  0.4703910000000  0.4681260000000 1.0
C      1  0.5692040000000  0.4936570000000  0.4578980000000 1.0
C      1  0.4698790000000  0.5307240000000  0.5099210000000 1.0
C      1  0.4578890000000  0.4912710000000  0.5821810000000 1.0
C      1  0.5049870000000  0.4991380000000  0.5224710000000 1.0
C      1  0.5630250000000  0.5402600000000  0.5366480000000 1.0
C      1  0.4750710000000  0.5562540000000  0.4652360000000 1.0
C      1  0.5740960000000  0.5135340000000  0.5254520000000 1.0
C      1  0.5026000000000  0.5105570000000  0.3893780000000 1.0
C      1  0.5467440000000  0.5315150000000  0.5612960000000 1.0
C      1  0.4656540000000  0.6006640000000  0.4884380000000 1.0
C      1  0.5615710000000  0.4606480000000  0.4985160000000 1.0
C      1  0.5091110000000  0.4326080000000  0.5405580000000 1.0
C      1  0.5046660000000  0.4942200000000  0.5551470000000 1.0
C      1  0.4628900000000  0.5491040000000  0.4344240000000 1.0
C      1  0.4882620000000  0.4172500000000  0.5317550000000 1.0
C      1  0.4807700000000  0.4501660000000  0.4472910000000 1.0
C      1  0.5326970000000  0.5820380000000  0.5096180000000 1.0
C      1  0.4688580000000  0.5017740000000  0.4445150000000 1.0
C      1  0.5038070000000  0.4331790000000  0.4985830000000 1.0
C      1  0.5129930000000  0.4615620000000  0.5874980000000 1.0
C      1  0.5168400000000  0.5207230000000  0.5715720000000 1.0
C      1  0.5553090000000  0.4657120000000  0.4452560000000 1.0
C      1  0.5969100000000  0.4912380000000  0.4617560000000 1.0
C      1  0.5012200000000  0.5020150000000  0.4378990000000 1.0
C      1  0.5197380000000  0.4572070000000  0.4799590000000 1.0
C      1  0.5647450000000  0.5426350000000  0.4372590000000 1.0
C      1  0.4909260000000  0.5475300000000  0.4196020000000 1.0
C      1  0.4559410000000  0.4317730000000  0.4607070000000 1.0
C      1  0.4983010000000  0.5458150000000  0.5683490000000 1.0
C      1  0.5446420000000  0.4919000000000  0.5572220000000 1.0
C      1  0.5124140000000  0.4611060000000  0.5127110000000 1.0
C      1  0.5050150000000  0.5750990000000  0.5421000000000 1.0
C      1  0.4801350000000  0.4964420000000  0.5986940000000 1.0
C      1  0.4498370000000  0.4533360000000  0.4344930000000 1.0
C      1  0.4605000000000  0.4797850000000  0.5000750000000 1.0
C      1  0.5323230000000  0.5148680000000  0.5353570000000 1.0
C      1  0.4815860000000  0.5036220000000  0.5047280000000 1.0
C      1  0.4205100000000  0.5083730000000  0.5050810000000 1.0
C      1  0.4321090000000  0.4714110000000  0.4544570000000 1.0
C      1  0.4140830000000  0.4580330000000  0.4949970000000 1.0
C      1  0.4984010000000  0.4915720000000  0.4092960000000 1.0
C      1  0.4918000000000  0.4598880000000  0.5708590000000 1.0
C      1  0.4100550000000  0.4679800000000  0.4690050000000 1.0
C      1  0.5423390000000  0.4465960000000  0.4598920000000 1.0
C      1  0.4853540000000  0.4958510000000  0.4737120000000 1.0
C      1  0.5355940000000  0.3908410000000  0.4955240000000 1.0
C      1  0.4238050000000  0.4313480000000  0.4960770000000 1.0
C      1  0.5204890000000  0.5802640000000  0.4839670000000 1.0
C      1  0.5601850000000  0.5226370000000  0.4552230000000 1.0
C      1  0.4332080000000  0.4664850000000  0.5419810000000 1.0
C      1  0.5346410000000  0.4269530000000  0.5315380000000 1.0
C      1  0.5480280000000  0.5576400000000  0.5198180000000 1.0
C      1  0.5519900000000  0.5665560000000  0.4436490000000 1.0
C      1  0.5010150000000  0.4637220000000  0.5405590000000 1.0
C      1  0.5158630000000  0.5189620000000  0.4621580000000 1.0
END
