TITL C-2848494-1720-376 -7.47746092519921e-05 125000 -280.596033711181 0 0 51 (C1) n - 1
REM
REM in /home/bkarasulu/work/CARBON/AIRSS/Generating-Clusters/AIREBO/with-SteepDescent/Only-C1/SD-CG-opt/Try1-1.4A-POS3A/HFTN-CG
REM
REM
REM
REM
REM
REM ./C.cell (11c1c37f851c82e70ff6c80c92926a4b)
REM
REM compiler GCC version 9.2.1 20190827 (Red Hat 9.2.1-1)
REM options -cpp -mtune=generic -march=x86-64 -g -O0 -fpre-include=/usr/include/finclude/math-vector-fortran.h
REM seed 1335809379 -132412663 -1721517291 -1610672818 -1479405456 1176532656 -753455274 -1849157578 1231958411 -902743386 851821404 -2120256616 207408928 -1801240442 1674994478 1044940318 -389958770 86538448 308419447 -142816961 509732859 1430070748 -535603736 1043315479 -683474992 1805423451 -296807370 1586521454 -274237786 644387889 -1411104584 2099652196 -1731597352
REM
CELL 1.54180   50.00000   50.00000   50.00000   90.00000   90.00000   90.00000
LATT -1
SFAC C  
C      1  0.4929570000000  0.5338400000000  0.5709360000000 1.0
C      1  0.5322990000000  0.5252430000000  0.4703930000000 1.0
C      1  0.4688960000000  0.5139970000000  0.4888960000000 1.0
C      1  0.5007480000000  0.4645940000000  0.4593890000000 1.0
C      1  0.4820830000000  0.5505160000000  0.5273140000000 1.0
C      1  0.4394390000000  0.4732780000000  0.4983190000000 1.0
C      1  0.4857950000000  0.5597390000000  0.4704930000000 1.0
C      1  0.5165410000000  0.5439700000000  0.4942350000000 1.0
C      1  0.5284850000000  0.4713750000000  0.4778520000000 1.0
C      1  0.5404340000000  0.5088630000000  0.5612860000000 1.0
C      1  0.4651960000000  0.4658370000000  0.5491200000000 1.0
C      1  0.5034980000000  0.5601280000000  0.5108360000000 1.0
C      1  0.5541040000000  0.4937000000000  0.5355500000000 1.0
C      1  0.5123580000000  0.4477100000000  0.4936430000000 1.0
C      1  0.5510040000000  0.4493200000000  0.5155680000000 1.0
C      1  0.4813760000000  0.5547850000000  0.5554010000000 1.0
C      1  0.4411160000000  0.5197240000000  0.4711540000000 1.0
C      1  0.5345570000000  0.4498680000000  0.4447640000000 1.0
C      1  0.4454080000000  0.5234540000000  0.4437240000000 1.0
C      1  0.4490930000000  0.4747860000000  0.5282440000000 1.0
C      1  0.4587940000000  0.4415680000000  0.4563780000000 1.0
C      1  0.5433000000000  0.4770710000000  0.5079270000000 1.0
C      1  0.4741260000000  0.5215040000000  0.5205940000000 1.0
C      1  0.5604320000000  0.5200080000000  0.4790370000000 1.0
C      1  0.4655470000000  0.4823730000000  0.4300840000000 1.0
C      1  0.4682130000000  0.5104300000000  0.4319200000000 1.0
C      1  0.5361700000000  0.5233650000000  0.4190080000000 1.0
C      1  0.5667960000000  0.4915300000000  0.4878470000000 1.0
C      1  0.4605420000000  0.4842020000000  0.4797550000000 1.0
C      1  0.4927970000000  0.4913550000000  0.5625340000000 1.0
C      1  0.4302830000000  0.5055090000000  0.4948280000000 1.0
C      1  0.4766170000000  0.5117070000000  0.5833980000000 1.0
C      1  0.5749480000000  0.5361970000000  0.5012870000000 1.0
C      1  0.5024050000000  0.4605340000000  0.5162900000000 1.0
C      1  0.4925930000000  0.4566580000000  0.5428750000000 1.0
C      1  0.4887070000000  0.5294990000000  0.4699360000000 1.0
C      1  0.4811060000000  0.5848600000000  0.4697780000000 1.0
C      1  0.5169730000000  0.5225810000000  0.5572680000000 1.0
C      1  0.4715090000000  0.4670670000000  0.4567940000000 1.0
C      1  0.5131240000000  0.4676540000000  0.5630650000000 1.0
C      1  0.5231130000000  0.5119260000000  0.4411650000000 1.0
C      1  0.5720550000000  0.5076190000000  0.5149630000000 1.0
C      1  0.4469530000000  0.5049470000000  0.5210010000000 1.0
C      1  0.4628440000000  0.4831110000000  0.5747320000000 1.0
C      1  0.5128440000000  0.4913710000000  0.5129180000000 1.0
C      1  0.4974360000000  0.5066190000000  0.5347000000000 1.0
C      1  0.5087770000000  0.5119400000000  0.4910350000000 1.0
C      1  0.5189700000000  0.4347390000000  0.4654240000000 1.0
C      1  0.4926740000000  0.5186570000000  0.4426340000000 1.0
C      1  0.5249830000000  0.4816480000000  0.4427090000000 1.0
C      1  0.5389840000000  0.4770250000000  0.5609980000000 1.0
END
