TITL C-2848504-8560-382 -0.00496388131048732 125000 -909.59970908008 0 0 171 (C1) n - 1
REM
REM in /home/bkarasulu/work/CARBON/AIRSS/Generating-Clusters/AIREBO/with-SteepDescent/Only-C1/SD-CG-opt/Try1-1.4A-POS3A/HFTN-CG
REM
REM
REM
REM
REM
REM ./C.cell (11c1c37f851c82e70ff6c80c92926a4b)
REM
REM compiler GCC version 9.2.1 20190827 (Red Hat 9.2.1-1)
REM options -cpp -mtune=generic -march=x86-64 -g -O0 -fpre-include=/usr/include/finclude/math-vector-fortran.h
REM seed -1686796824 1573176884 315915412 998428817 500111204 -1177306875 -252238774 54312547 -520580980 638362464 253486793 -218372388 -1648546137 -94536017 1705986020 -1804934816 1922945446 979692662 544777876 -1625820292 1647983830 514603076 469397539 293944643 1188377492 -1464068290 878687455 2087396379 -1657861267 -1350535345 1980859339 180366862 770538242
REM
CELL 1.54180   50.00000   50.00000   50.00000   90.00000   90.00000   90.00000
LATT -1
SFAC C  
C      1  0.5401920000000  0.4619610000000  0.4949350000000 1.0
C      1  0.4943870000000  0.5292090000000  0.3984730000000 1.0
C      1  0.4357270000000  0.5356770000000  0.5330050000000 1.0
C      1  0.6071200000000  0.4652190000000  0.5301200000000 1.0
C      1  0.5517100000000  0.4736460000000  0.5928310000000 1.0
C      1  0.5575410000000  0.4678690000000  0.5200990000000 1.0
C      1  0.5472200000000  0.5302650000000  0.5451090000000 1.0
C      1  0.5871110000000  0.4800980000000  0.4720550000000 1.0
C      1  0.4439180000000  0.5382470000000  0.4810360000000 1.0
C      1  0.4634050000000  0.4418600000000  0.4150010000000 1.0
C      1  0.4737900000000  0.4284720000000  0.5220420000000 1.0
C      1  0.5137580000000  0.4776110000000  0.4907100000000 1.0
C      1  0.3986250000000  0.4704750000000  0.5264900000000 1.0
C      1  0.5224850000000  0.4273760000000  0.5593290000000 1.0
C      1  0.5369980000000  0.5024430000000  0.4918010000000 1.0
C      1  0.5025840000000  0.4117320000000  0.4378090000000 1.0
C      1  0.5259290000000  0.5305150000000  0.4760950000000 1.0
C      1  0.5570980000000  0.5741550000000  0.6102050000000 1.0
C      1  0.4559710000000  0.4349480000000  0.4688750000000 1.0
C      1  0.5857330000000  0.4046630000000  0.4640920000000 1.0
C      1  0.4440190000000  0.4490320000000  0.4421350000000 1.0
C      1  0.5552760000000  0.4556700000000  0.4680530000000 1.0
C      1  0.4343000000000  0.4091520000000  0.4642270000000 1.0
C      1  0.4827260000000  0.4537300000000  0.5396990000000 1.0
C      1  0.5206330000000  0.5045090000000  0.5215330000000 1.0
C      1  0.4989400000000  0.4521130000000  0.4748050000000 1.0
C      1  0.4966000000000  0.5004400000000  0.4164640000000 1.0
C      1  0.4107560000000  0.5019330000000  0.4651370000000 1.0
C      1  0.5301960000000  0.4689080000000  0.3857270000000 1.0
C      1  0.4387100000000  0.5026670000000  0.5398650000000 1.0
C      1  0.5087690000000  0.4905520000000  0.5578340000000 1.0
C      1  0.4939780000000  0.4679320000000  0.4261330000000 1.0
C      1  0.4193210000000  0.4505450000000  0.4656680000000 1.0
C      1  0.5993060000000  0.4983010000000  0.5308590000000 1.0
C      1  0.4543670000000  0.4052760000000  0.5338490000000 1.0
C      1  0.5372620000000  0.4440420000000  0.4443600000000 1.0
C      1  0.5142200000000  0.4546730000000  0.4022400000000 1.0
C      1  0.4151380000000  0.4567550000000  0.5777360000000 1.0
C      1  0.4437870000000  0.5994970000000  0.5331470000000 1.0
C      1  0.4238270000000  0.5873260000000  0.5180050000000 1.0
C      1  0.5773050000000  0.4812650000000  0.4388540000000 1.0
C      1  0.4961130000000  0.5752170000000  0.4254340000000 1.0
C      1  0.4515440000000  0.5482710000000  0.4499160000000 1.0
C      1  0.5453240000000  0.4145420000000  0.5373900000000 1.0
C      1  0.6317490000000  0.5115940000000  0.4724490000000 1.0
C      1  0.5042530000000  0.4048860000000  0.5091140000000 1.0
C      1  0.5678660000000  0.4360430000000  0.5274450000000 1.0
C      1  0.4713870000000  0.4644910000000  0.5947120000000 1.0
C      1  0.5704840000000  0.4985250000000  0.5584940000000 1.0
C      1  0.4934230000000  0.4343220000000  0.4208830000000 1.0
C      1  0.4735220000000  0.4159460000000  0.5599220000000 1.0
C      1  0.4106090000000  0.5133950000000  0.5857020000000 1.0
C      1  0.4812880000000  0.5892000000000  0.4466600000000 1.0
C      1  0.5152360000000  0.4308650000000  0.4957290000000 1.0
C      1  0.4961840000000  0.6025260000000  0.4718000000000 1.0
C      1  0.4424430000000  0.5248750000000  0.4105150000000 1.0
C      1  0.4692270000000  0.4051270000000  0.4752590000000 1.0
C      1  0.4855250000000  0.3963590000000  0.4522830000000 1.0
C      1  0.4397520000000  0.4707210000000  0.5026790000000 1.0
C      1  0.5749330000000  0.5309000000000  0.4598270000000 1.0
C      1  0.4306700000000  0.5525320000000  0.5590060000000 1.0
C      1  0.4796670000000  0.5461090000000  0.4674560000000 1.0
C      1  0.4635170000000  0.4755830000000  0.4360670000000 1.0
C      1  0.5404760000000  0.5422430000000  0.4163190000000 1.0
C      1  0.4730940000000  0.5174230000000  0.6012450000000 1.0
C      1  0.4591600000000  0.5526220000000  0.5151070000000 1.0
C      1  0.5073300000000  0.4991990000000  0.4578590000000 1.0
C      1  0.4329640000000  0.4501540000000  0.5289140000000 1.0
C      1  0.4562660000000  0.5114730000000  0.4640510000000 1.0
C      1  0.4851460000000  0.5936510000000  0.5024820000000 1.0
C      1  0.4715550000000  0.4860950000000  0.3984640000000 1.0
C      1  0.4724150000000  0.5217110000000  0.5559870000000 1.0
C      1  0.5456460000000  0.5529050000000  0.5106420000000 1.0
C      1  0.4221180000000  0.4245740000000  0.4874660000000 1.0
C      1  0.5658160000000  0.5199310000000  0.5786700000000 1.0
C      1  0.5249150000000  0.4921060000000  0.5880710000000 1.0
C      1  0.4095670000000  0.5367500000000  0.5763610000000 1.0
C      1  0.5547580000000  0.5484240000000  0.4781910000000 1.0
C      1  0.5252280000000  0.5273390000000  0.3928320000000 1.0
C      1  0.5142380000000  0.5522890000000  0.4998710000000 1.0
C      1  0.4263490000000  0.4879040000000  0.5844240000000 1.0
C      1  0.5274140000000  0.4169020000000  0.4487480000000 1.0
C      1  0.5379080000000  0.5775780000000  0.4518210000000 1.0
C      1  0.5698510000000  0.5270840000000  0.4160440000000 1.0
C      1  0.5397080000000  0.5197240000000  0.5912060000000 1.0
C      1  0.5929950000000  0.4474710000000  0.5137530000000 1.0
C      1  0.4618940000000  0.6115920000000  0.5159040000000 1.0
C      1  0.4791120000000  0.4427580000000  0.5777400000000 1.0
C      1  0.5149760000000  0.4686140000000  0.4513710000000 1.0
C      1  0.5699130000000  0.4626700000000  0.5753650000000 1.0
C      1  0.4634830000000  0.5414920000000  0.4061440000000 1.0
C      1  0.5552690000000  0.4895660000000  0.4708640000000 1.0
C      1  0.5903870000000  0.4490470000000  0.4855630000000 1.0
C      1  0.5476520000000  0.5609610000000  0.5899470000000 1.0
C      1  0.5203070000000  0.5574820000000  0.5573840000000 1.0
C      1  0.4098780000000  0.4752290000000  0.4469830000000 1.0
C      1  0.5129840000000  0.5353320000000  0.5251660000000 1.0
C      1  0.4304730000000  0.5351160000000  0.4332560000000 1.0
C      1  0.5212500000000  0.5597210000000  0.4354530000000 1.0
C      1  0.4194160000000  0.4358550000000  0.5566310000000 1.0
C      1  0.4872560000000  0.5467920000000  0.5914220000000 1.0
C      1  0.5903440000000  0.5296340000000  0.5211420000000 1.0
C      1  0.5435140000000  0.4834200000000  0.4419550000000 1.0
C      1  0.4864880000000  0.5618340000000  0.4021510000000 1.0
C      1  0.4685190000000  0.5541080000000  0.5464180000000 1.0
C      1  0.5317520000000  0.4184630000000  0.5869560000000 1.0
C      1  0.4680700000000  0.4667360000000  0.4687110000000 1.0
C      1  0.5908750000000  0.5594660000000  0.5048010000000 1.0
C      1  0.5633420000000  0.5912460000000  0.5270600000000 1.0
C      1  0.4987760000000  0.5124090000000  0.4856400000000 1.0
C      1  0.5828540000000  0.4851860000000  0.5054130000000 1.0
C      1  0.5596150000000  0.5561900000000  0.5633030000000 1.0
C      1  0.4935040000000  0.4898300000000  0.5274320000000 1.0
C      1  0.5114610000000  0.4390070000000  0.5285530000000 1.0
C      1  0.5402870000000  0.4968530000000  0.3944950000000 1.0
C      1  0.4576800000000  0.4754840000000  0.5475210000000 1.0
C      1  0.5523440000000  0.4993920000000  0.5317890000000 1.0
C      1  0.4758070000000  0.4940630000000  0.5654010000000 1.0
C      1  0.5964440000000  0.5499180000000  0.4767200000000 1.0
C      1  0.5950270000000  0.4784680000000  0.5589860000000 1.0
C      1  0.4730270000000  0.5285170000000  0.4957940000000 1.0
C      1  0.4805530000000  0.4788140000000  0.4979730000000 1.0
C      1  0.4989940000000  0.4031680000000  0.5566200000000 1.0
C      1  0.4253820000000  0.5132810000000  0.5112830000000 1.0
C      1  0.4784270000000  0.5770900000000  0.5773090000000 1.0
C      1  0.4465690000000  0.4957170000000  0.4142280000000 1.0
C      1  0.5439550000000  0.5268090000000  0.4464200000000 1.0
C      1  0.5742980000000  0.5826760000000  0.5037190000000 1.0
C      1  0.4894510000000  0.5681000000000  0.5150550000000 1.0
C      1  0.5192550000000  0.5456070000000  0.5892360000000 1.0
C      1  0.4083790000000  0.4605500000000  0.4963140000000 1.0
C      1  0.4504610000000  0.5807140000000  0.5574850000000 1.0
C      1  0.5310570000000  0.4621910000000  0.5406570000000 1.0
C      1  0.4552700000000  0.5802470000000  0.4517890000000 1.0
C      1  0.4556370000000  0.5011620000000  0.5039820000000 1.0
C      1  0.5540180000000  0.5809430000000  0.4810440000000 1.0
C      1  0.4823490000000  0.5137010000000  0.4443560000000 1.0
C      1  0.5046420000000  0.5385090000000  0.4512490000000 1.0
C      1  0.4930490000000  0.4907070000000  0.5945130000000 1.0
C      1  0.4352910000000  0.4237030000000  0.5125500000000 1.0
C      1  0.5573250000000  0.4487200000000  0.5549690000000 1.0
C      1  0.5177240000000  0.3984400000000  0.5324080000000 1.0
C      1  0.4737080000000  0.4004880000000  0.5049160000000 1.0
C      1  0.4080540000000  0.5283750000000  0.4503840000000 1.0
C      1  0.5294500000000  0.5047320000000  0.4250020000000 1.0
C      1  0.5601870000000  0.5225770000000  0.5081810000000 1.0
C      1  0.4197980000000  0.4792380000000  0.4214710000000 1.0
C      1  0.4030390000000  0.5047100000000  0.4946550000000 1.0
C      1  0.5823670000000  0.5361300000000  0.5536800000000 1.0
C      1  0.5384560000000  0.4205390000000  0.4765650000000 1.0
C      1  0.4957250000000  0.5712800000000  0.5486020000000 1.0
C      1  0.4570050000000  0.5436950000000  0.5768490000000 1.0
C      1  0.3851870000000  0.4904910000000  0.5090980000000 1.0
C      1  0.4835520000000  0.6257060000000  0.4937450000000 1.0
C      1  0.5714100000000  0.4263990000000  0.4735930000000 1.0
C      1  0.5675530000000  0.4989830000000  0.4141950000000 1.0
C      1  0.4649630000000  0.4594950000000  0.3933690000000 1.0
C      1  0.4351460000000  0.5670210000000  0.4972610000000 1.0
C      1  0.4851230000000  0.5221120000000  0.5269260000000 1.0
C      1  0.5446880000000  0.5694080000000  0.5386760000000 1.0
C      1  0.4079440000000  0.5579180000000  0.4571640000000 1.0
C      1  0.4649260000000  0.4500670000000  0.5046160000000 1.0
C      1  0.5065690000000  0.4571110000000  0.5637020000000 1.0
C      1  0.4535090000000  0.4897620000000  0.5981160000000 1.0
C      1  0.6132150000000  0.5243580000000  0.4965370000000 1.0
C      1  0.5989030000000  0.5108390000000  0.4691610000000 1.0
C      1  0.4393980000000  0.4847800000000  0.4717040000000 1.0
C      1  0.5162350000000  0.5237420000000  0.5561470000000 1.0
C      1  0.5262680000000  0.5984820000000  0.4714290000000 1.0
C      1  0.4283780000000  0.5750190000000  0.4679310000000 1.0
C      1  0.4228040000000  0.4749060000000  0.5500190000000 1.0
END
