TITL C-2848508-1660-229 0.000922708144206577 125000 -371.620700582069 0 0 70 (C1) n - 1
REM
REM in /home/bkarasulu/work/CARBON/AIRSS/Generating-Clusters/AIREBO/with-SteepDescent/Only-C1/SD-CG-opt/Try1-1.4A-POS3A/HFTN-CG
REM
REM
REM
REM
REM
REM ./C.cell (11c1c37f851c82e70ff6c80c92926a4b)
REM
REM compiler GCC version 9.2.1 20190827 (Red Hat 9.2.1-1)
REM options -cpp -mtune=generic -march=x86-64 -g -O0 -fpre-include=/usr/include/finclude/math-vector-fortran.h
REM seed 1432732643 -1290681084 804955826 -1912227653 1137354846 -896170930 44675675 -533474517 -1241392124 -261804836 -547189113 267455682 -911887431 1901485090 75407487 -2105852428 -1463938365 -582469261 -1202486616 358154154 -812915198 1481173385 -1111276373 -46135419 205573218 -972482751 1781169506 -1230190217 -623811733 -1787893652 -70669800 149252902 -297587783
REM
CELL 1.54180   50.00000   50.00000   50.00000   90.00000   90.00000   90.00000
LATT -1
SFAC C  
C      1  0.5524520000000  0.4507350000000  0.4676950000000 1.0
C      1  0.5512880000000  0.4563600000000  0.4991430000000 1.0
C      1  0.4425920000000  0.5422970000000  0.5141510000000 1.0
C      1  0.4622590000000  0.4878650000000  0.4975960000000 1.0
C      1  0.4563680000000  0.5046390000000  0.4272020000000 1.0
C      1  0.5074590000000  0.4947970000000  0.5886610000000 1.0
C      1  0.4601530000000  0.5136990000000  0.5196180000000 1.0
C      1  0.4292630000000  0.4960010000000  0.4990810000000 1.0
C      1  0.5302090000000  0.4543080000000  0.5663080000000 1.0
C      1  0.5111120000000  0.5399350000000  0.5251950000000 1.0
C      1  0.4782880000000  0.5815280000000  0.4871410000000 1.0
C      1  0.4878220000000  0.5050130000000  0.4401430000000 1.0
C      1  0.4889460000000  0.4769900000000  0.5138250000000 1.0
C      1  0.4636750000000  0.5490450000000  0.5377730000000 1.0
C      1  0.4387020000000  0.5242010000000  0.4382950000000 1.0
C      1  0.4400030000000  0.5294870000000  0.4661370000000 1.0
C      1  0.4922860000000  0.4518190000000  0.4377080000000 1.0
C      1  0.5036430000000  0.4804500000000  0.4847930000000 1.0
C      1  0.5320800000000  0.4987860000000  0.5177190000000 1.0
C      1  0.4995330000000  0.4499040000000  0.4701000000000 1.0
C      1  0.4981050000000  0.4775210000000  0.5635490000000 1.0
C      1  0.5441370000000  0.5447000000000  0.5176340000000 1.0
C      1  0.4983260000000  0.4757630000000  0.4263480000000 1.0
C      1  0.4914450000000  0.5435800000000  0.4501070000000 1.0
C      1  0.4877370000000  0.5343730000000  0.4229840000000 1.0
C      1  0.5711040000000  0.5297610000000  0.5030960000000 1.0
C      1  0.5192740000000  0.5452920000000  0.4865640000000 1.0
C      1  0.4540440000000  0.4641460000000  0.5441810000000 1.0
C      1  0.5251220000000  0.4379810000000  0.5107160000000 1.0
C      1  0.5184750000000  0.5285420000000  0.5541910000000 1.0
C      1  0.5676000000000  0.5013930000000  0.4607460000000 1.0
C      1  0.4714320000000  0.4990010000000  0.4693290000000 1.0
C      1  0.4483040000000  0.4773550000000  0.4313840000000 1.0
C      1  0.4582930000000  0.4704620000000  0.4569950000000 1.0
C      1  0.4874440000000  0.5613140000000  0.5301190000000 1.0
C      1  0.5303330000000  0.5699790000000  0.5042890000000 1.0
C      1  0.5700430000000  0.4738780000000  0.4529270000000 1.0
C      1  0.5483400000000  0.5171480000000  0.4480080000000 1.0
C      1  0.4875160000000  0.4927260000000  0.5393820000000 1.0
C      1  0.4645670000000  0.4455460000000  0.5220030000000 1.0
C      1  0.4982610000000  0.5175280000000  0.5697580000000 1.0
C      1  0.5421390000000  0.5139710000000  0.5430990000000 1.0
C      1  0.5149180000000  0.5118830000000  0.4913120000000 1.0
C      1  0.4681080000000  0.4473010000000  0.4690040000000 1.0
C      1  0.4692330000000  0.5184540000000  0.5520540000000 1.0
C      1  0.5238180000000  0.4764000000000  0.5412820000000 1.0
C      1  0.5246810000000  0.4354700000000  0.4787810000000 1.0
C      1  0.5299120000000  0.4749160000000  0.4639190000000 1.0
C      1  0.4727970000000  0.5326500000000  0.4741050000000 1.0
C      1  0.4699190000000  0.4633510000000  0.5665070000000 1.0
C      1  0.5389430000000  0.5446530000000  0.4430050000000 1.0
C      1  0.5259970000000  0.4692370000000  0.5908440000000 1.0
C      1  0.4996870000000  0.5719210000000  0.5042930000000 1.0
C      1  0.5232730000000  0.4867860000000  0.4369840000000 1.0
C      1  0.4874350000000  0.5270880000000  0.5043380000000 1.0
C      1  0.5553490000000  0.4866370000000  0.5031500000000 1.0
C      1  0.4443990000000  0.4884190000000  0.5360300000000 1.0
C      1  0.4293240000000  0.5240370000000  0.4928520000000 1.0
C      1  0.5694330000000  0.5327070000000  0.5362950000000 1.0
C      1  0.4474410000000  0.5139860000000  0.5707420000000 1.0
C      1  0.4536690000000  0.4381050000000  0.4913690000000 1.0
C      1  0.5512200000000  0.4593310000000  0.5320700000000 1.0
C      1  0.4393900000000  0.4637950000000  0.5049670000000 1.0
C      1  0.5164380000000  0.5517730000000  0.4584640000000 1.0
C      1  0.5203000000000  0.4367380000000  0.5433610000000 1.0
C      1  0.4600880000000  0.5631680000000  0.4820700000000 1.0
C      1  0.4957200000000  0.4469310000000  0.5220110000000 1.0
C      1  0.5718920000000  0.5068040000000  0.5581020000000 1.0
C      1  0.5699280000000  0.5057650000000  0.4890640000000 1.0
C      1  0.5165110000000  0.5118720000000  0.4573340000000 1.0
END
