TITL C-2847953-8112-66 -0.00342917824459055 125000 -903.140286292851 0 0 170 (C1) n - 1
REM
REM in /home/bkarasulu/work/CARBON/AIRSS/Generating-Clusters/AIREBO/with-SteepDescent/Only-C1/SD-CG-opt/Try1-1.4A-POS3A/HFTN-CG
REM
REM
REM
REM
REM
REM ./C.cell (11c1c37f851c82e70ff6c80c92926a4b)
REM
REM compiler GCC version 9.2.1 20190827 (Red Hat 9.2.1-1)
REM options -cpp -mtune=generic -march=x86-64 -g -O0 -fpre-include=/usr/include/finclude/math-vector-fortran.h
REM seed -1268641190 1788042050 767780442 -243709523 -266100639 -633826689 1612788352 696702600 -935635082 -1129784532 -1222655653 -1939266040 -1596946604 565800988 -1583593207 -656957611 -1718160772 330239482 218009334 -459629950 -45944932 -707967570 -1717366721 -506980241 1932116157 1308292938 -1935823782 -2124342482 1354471084 1262969016 1041817395 -207197804 -1994845238
REM
CELL 1.54180   50.00000   50.00000   50.00000   90.00000   90.00000   90.00000
LATT -1
SFAC C  
C      1  0.4762560000000  0.5568840000000  0.4878040000000 1.0
C      1  0.5312240000000  0.5777280000000  0.4576750000000 1.0
C      1  0.4519910000000  0.4184850000000  0.5759820000000 1.0
C      1  0.5212210000000  0.4971390000000  0.5685330000000 1.0
C      1  0.4079580000000  0.5417160000000  0.4525360000000 1.0
C      1  0.5660290000000  0.4818070000000  0.4183080000000 1.0
C      1  0.4526470000000  0.5556140000000  0.5221930000000 1.0
C      1  0.5562890000000  0.4335630000000  0.5507100000000 1.0
C      1  0.4355960000000  0.4507050000000  0.4260640000000 1.0
C      1  0.4761310000000  0.3895950000000  0.4985820000000 1.0
C      1  0.5801970000000  0.4877880000000  0.4431980000000 1.0
C      1  0.5707870000000  0.5165200000000  0.4525750000000 1.0
C      1  0.4590570000000  0.5296390000000  0.5750750000000 1.0
C      1  0.4959720000000  0.4369040000000  0.5343200000000 1.0
C      1  0.4863930000000  0.5566450000000  0.5263420000000 1.0
C      1  0.5569870000000  0.5961900000000  0.4724260000000 1.0
C      1  0.4095850000000  0.4427110000000  0.4920690000000 1.0
C      1  0.4607280000000  0.5134170000000  0.4669770000000 1.0
C      1  0.5779410000000  0.4277390000000  0.4949280000000 1.0
C      1  0.4526430000000  0.5482240000000  0.4343190000000 1.0
C      1  0.5632140000000  0.4065650000000  0.4821170000000 1.0
C      1  0.5922170000000  0.5385050000000  0.4616200000000 1.0
C      1  0.5192120000000  0.4580530000000  0.4418190000000 1.0
C      1  0.4828670000000  0.4416960000000  0.4394710000000 1.0
C      1  0.4776420000000  0.4628100000000  0.5932850000000 1.0
C      1  0.4680330000000  0.4647010000000  0.5349610000000 1.0
C      1  0.4317010000000  0.4617160000000  0.5812840000000 1.0
C      1  0.5649250000000  0.4349520000000  0.5218920000000 1.0
C      1  0.5795020000000  0.5251730000000  0.4968870000000 1.0
C      1  0.4521260000000  0.4491150000000  0.4812980000000 1.0
C      1  0.4330930000000  0.4965240000000  0.4773400000000 1.0
C      1  0.5340790000000  0.4521660000000  0.5754750000000 1.0
C      1  0.5421030000000  0.5012010000000  0.5950560000000 1.0
C      1  0.5837280000000  0.4505450000000  0.4788080000000 1.0
C      1  0.5401100000000  0.5809390000000  0.5312880000000 1.0
C      1  0.4855920000000  0.4644390000000  0.5612380000000 1.0
C      1  0.5244050000000  0.5636090000000  0.4881540000000 1.0
C      1  0.5374680000000  0.4673990000000  0.4937780000000 1.0
C      1  0.4225740000000  0.5478250000000  0.4301600000000 1.0
C      1  0.4255750000000  0.4400930000000  0.5388860000000 1.0
C      1  0.5717120000000  0.5260510000000  0.5281980000000 1.0
C      1  0.4690600000000  0.5193410000000  0.4376680000000 1.0
C      1  0.5010420000000  0.4470740000000  0.4677070000000 1.0
C      1  0.4506460000000  0.4773610000000  0.5979350000000 1.0
C      1  0.5061570000000  0.5221560000000  0.4648890000000 1.0
C      1  0.4836920000000  0.5186300000000  0.3892740000000 1.0
C      1  0.4491590000000  0.4115170000000  0.4665430000000 1.0
C      1  0.5485210000000  0.5125050000000  0.5575410000000 1.0
C      1  0.4322620000000  0.4372440000000  0.5688470000000 1.0
C      1  0.4923410000000  0.4685250000000  0.3906960000000 1.0
C      1  0.4470170000000  0.4512600000000  0.5148570000000 1.0
C      1  0.4258200000000  0.5112000000000  0.5276600000000 1.0
C      1  0.4100190000000  0.5455020000000  0.5002340000000 1.0
C      1  0.5469300000000  0.5270850000000  0.4307450000000 1.0
C      1  0.4233980000000  0.5208950000000  0.4989830000000 1.0
C      1  0.5582160000000  0.4764330000000  0.5960580000000 1.0
C      1  0.5281860000000  0.5547400000000  0.5737110000000 1.0
C      1  0.4459680000000  0.4802360000000  0.4502660000000 1.0
C      1  0.4398020000000  0.4136110000000  0.5282780000000 1.0
C      1  0.4226880000000  0.5131970000000  0.5761030000000 1.0
C      1  0.4964700000000  0.5162180000000  0.4266970000000 1.0
C      1  0.4242640000000  0.4204570000000  0.4822060000000 1.0
C      1  0.5255790000000  0.4688970000000  0.5256110000000 1.0
C      1  0.4275590000000  0.4543010000000  0.4586140000000 1.0
C      1  0.5475080000000  0.5972510000000  0.5029420000000 1.0
C      1  0.5861080000000  0.5587100000000  0.4400790000000 1.0
C      1  0.5147510000000  0.4696190000000  0.5567040000000 1.0
C      1  0.5085840000000  0.5177890000000  0.6330170000000 1.0
C      1  0.5100000000000  0.5030450000000  0.6062980000000 1.0
C      1  0.4438480000000  0.5319260000000  0.5449480000000 1.0
C      1  0.4501830000000  0.5155820000000  0.4107710000000 1.0
C      1  0.4617990000000  0.4199310000000  0.4958390000000 1.0
C      1  0.5212260000000  0.4504380000000  0.6026350000000 1.0
C      1  0.5787960000000  0.4609500000000  0.5171980000000 1.0
C      1  0.4720860000000  0.4903440000000  0.4042740000000 1.0
C      1  0.5131160000000  0.5034640000000  0.3971860000000 1.0
C      1  0.3940530000000  0.4896160000000  0.4812340000000 1.0
C      1  0.4463260000000  0.5055030000000  0.5953850000000 1.0
C      1  0.4568820000000  0.5906050000000  0.4787120000000 1.0
C      1  0.5655960000000  0.4618310000000  0.5670610000000 1.0
C      1  0.5137660000000  0.5299040000000  0.5667530000000 1.0
C      1  0.4814310000000  0.4125380000000  0.5597720000000 1.0
C      1  0.5049230000000  0.5137570000000  0.5034940000000 1.0
C      1  0.4189460000000  0.5601590000000  0.5218380000000 1.0
C      1  0.5616140000000  0.5551700000000  0.4242270000000 1.0
C      1  0.5861200000000  0.4829090000000  0.5499440000000 1.0
C      1  0.4799320000000  0.4290730000000  0.5894490000000 1.0
C      1  0.5944270000000  0.4768000000000  0.4662260000000 1.0
C      1  0.5478700000000  0.5472910000000  0.5311910000000 1.0
C      1  0.5147900000000  0.6075540000000  0.4587110000000 1.0
C      1  0.4836530000000  0.5677660000000  0.5576030000000 1.0
C      1  0.5103470000000  0.5752900000000  0.5752300000000 1.0
C      1  0.5701070000000  0.5693850000000  0.5423680000000 1.0
C      1  0.5366120000000  0.4066640000000  0.5233350000000 1.0
C      1  0.4703000000000  0.4154460000000  0.5284240000000 1.0
C      1  0.4787130000000  0.4151030000000  0.4599170000000 1.0
C      1  0.5070500000000  0.5423220000000  0.3928680000000 1.0
C      1  0.5567500000000  0.5537970000000  0.5695280000000 1.0
C      1  0.5637430000000  0.5256400000000  0.5850940000000 1.0
C      1  0.5020660000000  0.5990120000000  0.5264430000000 1.0
C      1  0.5025600000000  0.4830510000000  0.5044610000000 1.0
C      1  0.4317170000000  0.5052610000000  0.4373930000000 1.0
C      1  0.4537940000000  0.5608530000000  0.5616190000000 1.0
C      1  0.4004960000000  0.4925560000000  0.5146010000000 1.0
C      1  0.5307840000000  0.4021300000000  0.4901290000000 1.0
C      1  0.5610940000000  0.4868160000000  0.5282630000000 1.0
C      1  0.4240400000000  0.5915850000000  0.4738670000000 1.0
C      1  0.5325680000000  0.4384850000000  0.5120510000000 1.0
C      1  0.5066850000000  0.4270530000000  0.6061130000000 1.0
C      1  0.6009440000000  0.4994630000000  0.4908170000000 1.0
C      1  0.4881010000000  0.4573040000000  0.5105760000000 1.0
C      1  0.5087450000000  0.4079800000000  0.4648760000000 1.0
C      1  0.4949240000000  0.6168500000000  0.5028730000000 1.0
C      1  0.4864310000000  0.4947670000000  0.4699280000000 1.0
C      1  0.5330910000000  0.5203670000000  0.4855730000000 1.0
C      1  0.5081220000000  0.4014580000000  0.5409110000000 1.0
C      1  0.5188350000000  0.5497090000000  0.5187980000000 1.0
C      1  0.5012960000000  0.4021720000000  0.5070700000000 1.0
C      1  0.4240680000000  0.4721700000000  0.5009770000000 1.0
C      1  0.4077710000000  0.5113760000000  0.4601650000000 1.0
C      1  0.5172600000000  0.5407410000000  0.4212830000000 1.0
C      1  0.5087900000000  0.5219950000000  0.5350110000000 1.0
C      1  0.4712500000000  0.4923860000000  0.5673000000000 1.0
C      1  0.5971180000000  0.5026800000000  0.5245290000000 1.0
C      1  0.5279850000000  0.5051490000000  0.4485210000000 1.0
C      1  0.4795340000000  0.5129840000000  0.5437670000000 1.0
C      1  0.5445140000000  0.5766170000000  0.4263910000000 1.0
C      1  0.4539460000000  0.5853720000000  0.5379810000000 1.0
C      1  0.5725330000000  0.4859160000000  0.4981200000000 1.0
C      1  0.4639390000000  0.4653790000000  0.4261920000000 1.0
C      1  0.4542470000000  0.4941210000000  0.5313650000000 1.0
C      1  0.4884600000000  0.5464800000000  0.4595020000000 1.0
C      1  0.5198840000000  0.6104420000000  0.4877880000000 1.0
C      1  0.5044150000000  0.4329350000000  0.4956390000000 1.0
C      1  0.4198990000000  0.4724900000000  0.5347390000000 1.0
C      1  0.5132430000000  0.4866470000000  0.4261690000000 1.0
C      1  0.5071820000000  0.5609510000000  0.4404540000000 1.0
C      1  0.5537350000000  0.5467360000000  0.4915550000000 1.0
C      1  0.5224650000000  0.4301250000000  0.5522870000000 1.0
C      1  0.5344300000000  0.5012610000000  0.5311360000000 1.0
C      1  0.4669430000000  0.5012260000000  0.5040740000000 1.0
C      1  0.5459970000000  0.5042930000000  0.4062330000000 1.0
C      1  0.4373600000000  0.4870720000000  0.5600330000000 1.0
C      1  0.4698730000000  0.5444000000000  0.4066610000000 1.0
C      1  0.5384190000000  0.4661570000000  0.4149430000000 1.0
C      1  0.4140790000000  0.5603890000000  0.4744770000000 1.0
C      1  0.4763520000000  0.4654390000000  0.4716040000000 1.0
C      1  0.4777700000000  0.5266320000000  0.4924160000000 1.0
C      1  0.4965500000000  0.5770240000000  0.5010910000000 1.0
C      1  0.5513450000000  0.4365240000000  0.4494350000000 1.0
C      1  0.5558940000000  0.4976620000000  0.4755300000000 1.0
C      1  0.4891380000000  0.5161960000000  0.5835590000000 1.0
C      1  0.5179590000000  0.4852810000000  0.4742290000000 1.0
C      1  0.4658360000000  0.6007210000000  0.5099350000000 1.0
C      1  0.3985250000000  0.4631250000000  0.4716050000000 1.0
C      1  0.5118350000000  0.4529460000000  0.4013290000000 1.0
C      1  0.5667780000000  0.4142950000000  0.4548680000000 1.0
C      1  0.4998030000000  0.5919160000000  0.4376040000000 1.0
C      1  0.5698760000000  0.5715240000000  0.5083590000000 1.0
C      1  0.4765420000000  0.5754870000000  0.4193270000000 1.0
C      1  0.4448920000000  0.5616470000000  0.4896310000000 1.0
C      1  0.5564610000000  0.4644190000000  0.4683060000000 1.0
C      1  0.5015750000000  0.5939230000000  0.5520130000000 1.0
C      1  0.5617420000000  0.5637980000000  0.4632510000000 1.0
C      1  0.5034610000000  0.4729480000000  0.6075690000000 1.0
C      1  0.5817750000000  0.5150840000000  0.5586960000000 1.0
C      1  0.4680970000000  0.5727100000000  0.4521580000000 1.0
C      1  0.5222760000000  0.4245990000000  0.4425720000000 1.0
C      1  0.5029230000000  0.4314180000000  0.4169970000000 1.0
C      1  0.5926990000000  0.5546740000000  0.4892520000000 1.0
END
