TITL C-2847955-7945-646 0.000172795120170925 125000 -368.048575489047 0 0 68 (C1) n - 1
REM
REM in /home/bkarasulu/work/CARBON/AIRSS/Generating-Clusters/AIREBO/with-SteepDescent/Only-C1/SD-CG-opt/Try1-1.4A-POS3A/HFTN-CG
REM
REM
REM
REM
REM
REM ./C.cell (11c1c37f851c82e70ff6c80c92926a4b)
REM
REM compiler GCC version 9.2.1 20190827 (Red Hat 9.2.1-1)
REM options -cpp -mtune=generic -march=x86-64 -g -O0 -fpre-include=/usr/include/finclude/math-vector-fortran.h
REM seed -1309316802 -1440434366 362232223 -140267093 -1708541936 390332693 -787504739 414835661 -1936690205 1655466873 -1726353516 -1739201849 1302907626 540357926 -559783287 356265614 698485016 1947094736 928125385 -702369683 -613607527 1054077202 1468328955 -463784655 2079670795 540431340 1443437054 -982885752 -535609926 -788647555 1873619354 1815249263 701088707
REM
CELL 1.54180   50.00000   50.00000   50.00000   90.00000   90.00000   90.00000
LATT -1
SFAC C  
C      1  0.4639190000000  0.4535880000000  0.5678570000000 1.0
C      1  0.5252500000000  0.5025720000000  0.4465690000000 1.0
C      1  0.4996440000000  0.4343120000000  0.5077750000000 1.0
C      1  0.5192020000000  0.4406410000000  0.4806110000000 1.0
C      1  0.5311650000000  0.4744170000000  0.5207140000000 1.0
C      1  0.5460460000000  0.4820360000000  0.4639600000000 1.0
C      1  0.4925080000000  0.4542030000000  0.5546450000000 1.0
C      1  0.4279420000000  0.5354770000000  0.4837680000000 1.0
C      1  0.5611850000000  0.4200200000000  0.5102380000000 1.0
C      1  0.5217250000000  0.5706270000000  0.4127730000000 1.0
C      1  0.5451810000000  0.5259410000000  0.5721020000000 1.0
C      1  0.4685530000000  0.5504550000000  0.5116230000000 1.0
C      1  0.4922670000000  0.4987560000000  0.4391620000000 1.0
C      1  0.5378900000000  0.4448570000000  0.5052190000000 1.0
C      1  0.4733380000000  0.4636260000000  0.4552960000000 1.0
C      1  0.5273910000000  0.5147760000000  0.4770820000000 1.0
C      1  0.4524570000000  0.4714540000000  0.4884540000000 1.0
C      1  0.5663450000000  0.4724960000000  0.5394400000000 1.0
C      1  0.5576100000000  0.5143840000000  0.5506400000000 1.0
C      1  0.5599970000000  0.5598140000000  0.5356090000000 1.0
C      1  0.5388150000000  0.4733240000000  0.5538270000000 1.0
C      1  0.5013250000000  0.5285330000000  0.5153250000000 1.0
C      1  0.5028010000000  0.5625060000000  0.4749460000000 1.0
C      1  0.5098200000000  0.4677150000000  0.4356680000000 1.0
C      1  0.4566680000000  0.5342030000000  0.5372170000000 1.0
C      1  0.5039110000000  0.5014950000000  0.5663290000000 1.0
C      1  0.4988640000000  0.4767120000000  0.5299550000000 1.0
C      1  0.4564620000000  0.5031450000000  0.5344520000000 1.0
C      1  0.5230510000000  0.6090860000000  0.5141400000000 1.0
C      1  0.5214230000000  0.4919300000000  0.4951630000000 1.0
C      1  0.4574520000000  0.5553000000000  0.5583070000000 1.0
C      1  0.4166340000000  0.5117060000000  0.4884090000000 1.0
C      1  0.4818730000000  0.4407950000000  0.5273420000000 1.0
C      1  0.4936120000000  0.4236120000000  0.4700180000000 1.0
C      1  0.5072800000000  0.5612400000000  0.5441310000000 1.0
C      1  0.5275280000000  0.4593710000000  0.4567780000000 1.0
C      1  0.4378970000000  0.4752980000000  0.5284210000000 1.0
C      1  0.5344870000000  0.5555400000000  0.5245530000000 1.0
C      1  0.4508230000000  0.4398580000000  0.4913110000000 1.0
C      1  0.4778490000000  0.5214310000000  0.4600190000000 1.0
C      1  0.4729410000000  0.4840260000000  0.5118150000000 1.0
C      1  0.5033360000000  0.5450520000000  0.4142190000000 1.0
C      1  0.4619320000000  0.4837790000000  0.4355430000000 1.0
C      1  0.4808050000000  0.5657040000000  0.5394480000000 1.0
C      1  0.5197740000000  0.5838050000000  0.5140870000000 1.0
C      1  0.5228490000000  0.4889070000000  0.4155250000000 1.0
C      1  0.4289780000000  0.4863760000000  0.4726910000000 1.0
C      1  0.4944190000000  0.5200180000000  0.4131890000000 1.0
C      1  0.5140290000000  0.4750140000000  0.5667960000000 1.0
C      1  0.5642960000000  0.4467250000000  0.5252650000000 1.0
C      1  0.5918380000000  0.4978610000000  0.4678080000000 1.0
C      1  0.5695420000000  0.4878060000000  0.4791000000000 1.0
C      1  0.4423800000000  0.4587400000000  0.5560460000000 1.0
C      1  0.4185750000000  0.4836620000000  0.5054120000000 1.0
C      1  0.4773260000000  0.5138600000000  0.4989490000000 1.0
C      1  0.4586630000000  0.5376310000000  0.4833570000000 1.0
C      1  0.5678660000000  0.4815940000000  0.5067050000000 1.0
C      1  0.5329010000000  0.5277580000000  0.5080240000000 1.0
C      1  0.4355710000000  0.4883280000000  0.4422800000000 1.0
C      1  0.5001530000000  0.5609940000000  0.5047810000000 1.0
C      1  0.5479830000000  0.5038980000000  0.5230350000000 1.0
C      1  0.4723340000000  0.4922110000000  0.4731470000000 1.0
C      1  0.4558010000000  0.4475810000000  0.5200720000000 1.0
C      1  0.5060640000000  0.5334030000000  0.4627300000000 1.0
C      1  0.5123370000000  0.5594860000000  0.4433610000000 1.0
C      1  0.5190310000000  0.5210840000000  0.5796060000000 1.0
C      1  0.4898860000000  0.5081610000000  0.5385490000000 1.0
C      1  0.4701970000000  0.4392830000000  0.4686130000000 1.0
END
