TITL C-2847949-8115-214 -0.00193303272356925 125000 -583.51953501645 0 0 107 (C1) n - 1
REM
REM in /home/bkarasulu/work/CARBON/AIRSS/Generating-Clusters/AIREBO/with-SteepDescent/Only-C1/SD-CG-opt/Try1-1.4A-POS3A/HFTN-CG
REM
REM
REM
REM
REM
REM ./C.cell (11c1c37f851c82e70ff6c80c92926a4b)
REM
REM compiler GCC version 9.2.1 20190827 (Red Hat 9.2.1-1)
REM options -cpp -mtune=generic -march=x86-64 -g -O0 -fpre-include=/usr/include/finclude/math-vector-fortran.h
REM seed -2008124189 -1599503122 -975991505 1987756882 -859775941 1369516428 -280003455 586547153 1021062695 1347894934 1552746553 1612786146 -1577456922 1798717997 708072687 2016303301 -27430161 -822554836 -2134615621 -411507903 -428239770 -843333827 -1605305978 -1089490854 1543170177 -17374850 -834158577 1236870419 1956736836 154642085 2132989783 712123218 -1585429233
REM
CELL 1.54180   50.00000   50.00000   50.00000   90.00000   90.00000   90.00000
LATT -1
SFAC C  
C      1  0.5808770000000  0.5820320000000  0.4796410000000 1.0
C      1  0.4343660000000  0.4433970000000  0.5240050000000 1.0
C      1  0.4179880000000  0.5041340000000  0.4703340000000 1.0
C      1  0.5270130000000  0.4754830000000  0.5070050000000 1.0
C      1  0.5133400000000  0.4109430000000  0.5199940000000 1.0
C      1  0.4912450000000  0.5801950000000  0.5319180000000 1.0
C      1  0.4367060000000  0.4543100000000  0.4715800000000 1.0
C      1  0.5989210000000  0.5155490000000  0.4824910000000 1.0
C      1  0.5261150000000  0.4367120000000  0.4422550000000 1.0
C      1  0.4474530000000  0.4779190000000  0.4255980000000 1.0
C      1  0.4303420000000  0.5221210000000  0.4508130000000 1.0
C      1  0.4808610000000  0.4734700000000  0.5931710000000 1.0
C      1  0.5966030000000  0.4570100000000  0.5054320000000 1.0
C      1  0.5554590000000  0.4595340000000  0.4981040000000 1.0
C      1  0.4723400000000  0.4328280000000  0.4979840000000 1.0
C      1  0.5463100000000  0.5198660000000  0.5654380000000 1.0
C      1  0.4614890000000  0.4641520000000  0.4533450000000 1.0
C      1  0.4593640000000  0.5536150000000  0.5577220000000 1.0
C      1  0.5804840000000  0.4438750000000  0.5250700000000 1.0
C      1  0.4687990000000  0.5354480000000  0.4601060000000 1.0
C      1  0.4435730000000  0.4399880000000  0.4940500000000 1.0
C      1  0.5117770000000  0.4607970000000  0.5914120000000 1.0
C      1  0.4539080000000  0.5156370000000  0.4834880000000 1.0
C      1  0.5571670000000  0.4303710000000  0.5130680000000 1.0
C      1  0.5291060000000  0.4724360000000  0.5728230000000 1.0
C      1  0.4617800000000  0.5716180000000  0.4755080000000 1.0
C      1  0.5572210000000  0.5297030000000  0.4493030000000 1.0
C      1  0.4135930000000  0.4702920000000  0.4709860000000 1.0
C      1  0.5686470000000  0.4634430000000  0.5421840000000 1.0
C      1  0.4964250000000  0.4902680000000  0.5053260000000 1.0
C      1  0.5748860000000  0.4588600000000  0.4338770000000 1.0
C      1  0.5424430000000  0.4797400000000  0.4443580000000 1.0
C      1  0.4676380000000  0.5156450000000  0.5390590000000 1.0
C      1  0.4468070000000  0.4896980000000  0.5438880000000 1.0
C      1  0.5366730000000  0.4554190000000  0.5475610000000 1.0
C      1  0.4703850000000  0.4905540000000  0.4728440000000 1.0
C      1  0.5351430000000  0.4258780000000  0.5306900000000 1.0
C      1  0.5006680000000  0.5121900000000  0.5611730000000 1.0
C      1  0.4976470000000  0.5189130000000  0.4590710000000 1.0
C      1  0.4410680000000  0.5697280000000  0.5119310000000 1.0
C      1  0.5398290000000  0.5777700000000  0.5202630000000 1.0
C      1  0.5089420000000  0.4555810000000  0.5278480000000 1.0
C      1  0.4764940000000  0.5015360000000  0.5753910000000 1.0
C      1  0.4815990000000  0.5472470000000  0.4885300000000 1.0
C      1  0.4528440000000  0.5411320000000  0.5024380000000 1.0
C      1  0.5596400000000  0.4949100000000  0.4769780000000 1.0
C      1  0.4384840000000  0.5507680000000  0.4617710000000 1.0
C      1  0.4216850000000  0.4933260000000  0.5665170000000 1.0
C      1  0.5557600000000  0.4421080000000  0.4446310000000 1.0
C      1  0.5204740000000  0.5326120000000  0.5156410000000 1.0
C      1  0.4999020000000  0.5957710000000  0.4678120000000 1.0
C      1  0.4841890000000  0.4502200000000  0.5462600000000 1.0
C      1  0.4412600000000  0.5365140000000  0.5340690000000 1.0
C      1  0.5010930000000  0.5816970000000  0.4916460000000 1.0
C      1  0.5110630000000  0.5166530000000  0.4311890000000 1.0
C      1  0.5806020000000  0.4888240000000  0.5386080000000 1.0
C      1  0.4452830000000  0.4725190000000  0.5173780000000 1.0
C      1  0.5866660000000  0.5168850000000  0.4578510000000 1.0
C      1  0.5296720000000  0.4851870000000  0.4162500000000 1.0
C      1  0.5054610000000  0.5442050000000  0.5631140000000 1.0
C      1  0.5363260000000  0.5154940000000  0.4907410000000 1.0
C      1  0.4969390000000  0.5127160000000  0.5275200000000 1.0
C      1  0.5184940000000  0.4767120000000  0.4649580000000 1.0
C      1  0.5175030000000  0.5904590000000  0.5281850000000 1.0
C      1  0.5426220000000  0.4998210000000  0.5202560000000 1.0
C      1  0.5420330000000  0.5478580000000  0.5317060000000 1.0
C      1  0.5738680000000  0.5387890000000  0.5235920000000 1.0
C      1  0.4952770000000  0.4138390000000  0.4976340000000 1.0
C      1  0.5272380000000  0.5001690000000  0.5708300000000 1.0
C      1  0.4557100000000  0.4317060000000  0.5419480000000 1.0
C      1  0.5891980000000  0.5103040000000  0.5135620000000 1.0
C      1  0.4627880000000  0.6095950000000  0.4356450000000 1.0
C      1  0.5338810000000  0.5456780000000  0.5611340000000 1.0
C      1  0.5125900000000  0.4582830000000  0.4282490000000 1.0
C      1  0.4796010000000  0.4648790000000  0.4245620000000 1.0
C      1  0.5120770000000  0.5499540000000  0.4909860000000 1.0
C      1  0.4875350000000  0.4428410000000  0.5792870000000 1.0
C      1  0.4858090000000  0.5617840000000  0.5529130000000 1.0
C      1  0.4455610000000  0.5083920000000  0.4318080000000 1.0
C      1  0.4713270000000  0.5811730000000  0.5067970000000 1.0
C      1  0.5075140000000  0.4511570000000  0.4934320000000 1.0
C      1  0.4718540000000  0.4678750000000  0.4981660000000 1.0
C      1  0.5117780000000  0.4258060000000  0.4711150000000 1.0
C      1  0.4203810000000  0.5097780000000  0.5363760000000 1.0
C      1  0.4936570000000  0.4596240000000  0.4634060000000 1.0
C      1  0.4662700000000  0.4721480000000  0.5625470000000 1.0
C      1  0.4655350000000  0.4227430000000  0.5682710000000 1.0
C      1  0.4373500000000  0.4910800000000  0.4950500000000 1.0
C      1  0.5353000000000  0.5430090000000  0.4707930000000 1.0
C      1  0.5108550000000  0.5014570000000  0.4793000000000 1.0
C      1  0.4199650000000  0.5635860000000  0.5322120000000 1.0
C      1  0.4554790000000  0.5246470000000  0.5695130000000 1.0
C      1  0.5733000000000  0.4895450000000  0.4463050000000 1.0
C      1  0.3976470000000  0.4897490000000  0.4923810000000 1.0
C      1  0.5445490000000  0.4577790000000  0.4705930000000 1.0
C      1  0.4744860000000  0.5892010000000  0.4500480000000 1.0
C      1  0.5797410000000  0.4833610000000  0.4979970000000 1.0
C      1  0.4963920000000  0.4921560000000  0.4154420000000 1.0
C      1  0.4762850000000  0.5590890000000  0.4376790000000 1.0
C      1  0.5410560000000  0.5155850000000  0.4269220000000 1.0
C      1  0.4871520000000  0.4311220000000  0.4482740000000 1.0
C      1  0.5652150000000  0.5555630000000  0.4703120000000 1.0
C      1  0.3984490000000  0.4993090000000  0.5173090000000 1.0
C      1  0.5604780000000  0.5135210000000  0.5406720000000 1.0
C      1  0.5655000000000  0.5631120000000  0.5034650000000 1.0
C      1  0.4080830000000  0.4372200000000  0.5303500000000 1.0
C      1  0.4757780000000  0.5010960000000  0.4409650000000 1.0
END
