TITL C-2847953-8112-17 0.001303012873441 125000 -432.326594005425 0 0 80 (C1) n - 1
REM
REM in /home/bkarasulu/work/CARBON/AIRSS/Generating-Clusters/AIREBO/with-SteepDescent/Only-C1/SD-CG-opt/Try1-1.4A-POS3A/HFTN-CG
REM
REM
REM
REM
REM
REM ./C.cell (11c1c37f851c82e70ff6c80c92926a4b)
REM
REM compiler GCC version 9.2.1 20190827 (Red Hat 9.2.1-1)
REM options -cpp -mtune=generic -march=x86-64 -g -O0 -fpre-include=/usr/include/finclude/math-vector-fortran.h
REM seed -455590048 596920742 537032270 -234478125 -348882385 -806789303 -474348648 417803398 -1388437204 -184129089 688357705 1049917537 -965288089 1022543832 -1773330656 811809959 2020633077 -2051891439 -148473940 1807861412 1655759006 -1162622505 126768312 -406512040 1392771581 -859809048 -908927014 -254757210 912863472 361635028 1972996762 -2067556143 2067218698
REM
CELL 1.54180   50.00000   50.00000   50.00000   90.00000   90.00000   90.00000
LATT -1
SFAC C  
C      1  0.5310160000000  0.4932160000000  0.5534200000000 1.0
C      1  0.5681080000000  0.5527680000000  0.5457100000000 1.0
C      1  0.5528930000000  0.5336400000000  0.4458860000000 1.0
C      1  0.4895840000000  0.4615610000000  0.4862510000000 1.0
C      1  0.4446320000000  0.4896620000000  0.5564390000000 1.0
C      1  0.4749620000000  0.5555570000000  0.5659510000000 1.0
C      1  0.5358000000000  0.4559940000000  0.4370310000000 1.0
C      1  0.4693680000000  0.5202400000000  0.4664940000000 1.0
C      1  0.4602920000000  0.4485320000000  0.4911460000000 1.0
C      1  0.4963430000000  0.5090560000000  0.5864330000000 1.0
C      1  0.5054850000000  0.5500480000000  0.4929180000000 1.0
C      1  0.5447120000000  0.5113310000000  0.4309160000000 1.0
C      1  0.4467790000000  0.4463470000000  0.4631540000000 1.0
C      1  0.4646820000000  0.5469060000000  0.4481010000000 1.0
C      1  0.6039870000000  0.4872300000000  0.5407750000000 1.0
C      1  0.4162840000000  0.5126380000000  0.4657050000000 1.0
C      1  0.4555680000000  0.4797260000000  0.5027230000000 1.0
C      1  0.5109870000000  0.5075690000000  0.4288070000000 1.0
C      1  0.4499780000000  0.5005630000000  0.4825180000000 1.0
C      1  0.5663380000000  0.5260700000000  0.4740830000000 1.0
C      1  0.5830990000000  0.5123900000000  0.5008310000000 1.0
C      1  0.4846150000000  0.5530760000000  0.4302310000000 1.0
C      1  0.4466400000000  0.5498700000000  0.5033210000000 1.0
C      1  0.5493930000000  0.4972410000000  0.4741590000000 1.0
C      1  0.4321580000000  0.5533900000000  0.5303700000000 1.0
C      1  0.5611030000000  0.4896910000000  0.4301390000000 1.0
C      1  0.4717200000000  0.5097470000000  0.4357160000000 1.0
C      1  0.4865950000000  0.5780240000000  0.5541850000000 1.0
C      1  0.4868140000000  0.4836050000000  0.4310190000000 1.0
C      1  0.4170000000000  0.4867490000000  0.5103910000000 1.0
C      1  0.5099780000000  0.5414070000000  0.4324110000000 1.0
C      1  0.5019780000000  0.4266870000000  0.4711850000000 1.0
C      1  0.4337950000000  0.4599400000000  0.5185510000000 1.0
C      1  0.4764210000000  0.5412480000000  0.5095640000000 1.0
C      1  0.4955190000000  0.5858570000000  0.5294490000000 1.0
C      1  0.5454910000000  0.4463290000000  0.5334870000000 1.0
C      1  0.5173720000000  0.4942210000000  0.5167490000000 1.0
C      1  0.5418740000000  0.5490330000000  0.5348620000000 1.0
C      1  0.4915030000000  0.5135580000000  0.5117850000000 1.0
C      1  0.4359370000000  0.4849970000000  0.4575020000000 1.0
C      1  0.4644480000000  0.5763930000000  0.4947050000000 1.0
C      1  0.5227540000000  0.4827170000000  0.4482100000000 1.0
C      1  0.4854730000000  0.4519060000000  0.4553690000000 1.0
C      1  0.4954420000000  0.5212190000000  0.4810830000000 1.0
C      1  0.5224110000000  0.5606100000000  0.5518380000000 1.0
C      1  0.5388430000000  0.4715670000000  0.5032060000000 1.0
C      1  0.5126410000000  0.4448180000000  0.5312070000000 1.0
C      1  0.4338450000000  0.5303810000000  0.4850940000000 1.0
C      1  0.5337250000000  0.5708580000000  0.4741850000000 1.0
C      1  0.5015300000000  0.4662700000000  0.5164730000000 1.0
C      1  0.5298510000000  0.4231100000000  0.5134200000000 1.0
C      1  0.5597360000000  0.4703530000000  0.4560760000000 1.0
C      1  0.4128550000000  0.4857080000000  0.4824740000000 1.0
C      1  0.4781770000000  0.4873580000000  0.5202330000000 1.0
C      1  0.4737440000000  0.4796700000000  0.5497390000000 1.0
C      1  0.5049390000000  0.5053850000000  0.6122380000000 1.0
C      1  0.4585300000000  0.4680760000000  0.4423730000000 1.0
C      1  0.5360250000000  0.5382510000000  0.4835410000000 1.0
C      1  0.5268890000000  0.4402320000000  0.5617350000000 1.0
C      1  0.4791360000000  0.4334370000000  0.5126850000000 1.0
C      1  0.5170420000000  0.4749630000000  0.4808580000000 1.0
C      1  0.5518830000000  0.5091500000000  0.5059080000000 1.0
C      1  0.4909830000000  0.5774970000000  0.5028710000000 1.0
C      1  0.5024500000000  0.4235690000000  0.4989500000000 1.0
C      1  0.4445430000000  0.4406770000000  0.5337190000000 1.0
C      1  0.4213620000000  0.4897310000000  0.5415730000000 1.0
C      1  0.5322670000000  0.5532980000000  0.4468010000000 1.0
C      1  0.5170610000000  0.4298830000000  0.4452320000000 1.0
C      1  0.5819810000000  0.4921730000000  0.5251830000000 1.0
C      1  0.5411040000000  0.5611810000000  0.5061180000000 1.0
C      1  0.5607380000000  0.4609200000000  0.4864040000000 1.0
C      1  0.5167330000000  0.5058570000000  0.4702580000000 1.0
C      1  0.5034150000000  0.4552550000000  0.4266910000000 1.0
C      1  0.4748670000000  0.4461100000000  0.5439940000000 1.0
C      1  0.4843920000000  0.5326480000000  0.5778580000000 1.0
C      1  0.4405030000000  0.5534920000000  0.5549580000000 1.0
C      1  0.5364750000000  0.5183620000000  0.5311940000000 1.0
C      1  0.5534530000000  0.4789690000000  0.5321990000000 1.0
C      1  0.5025550000000  0.4876790000000  0.5659430000000 1.0
C      1  0.4984010000000  0.4545520000000  0.5670370000000 1.0
END
