TITL C-2847956-8218-628 -0.000456721733381296 125000 -945.142745329397 0 0 180 (C1) n - 1
REM
REM in /home/bkarasulu/work/CARBON/AIRSS/Generating-Clusters/AIREBO/with-SteepDescent/Only-C1/SD-CG-opt/Try1-1.4A-POS3A/HFTN-CG
REM
REM
REM
REM
REM
REM ./C.cell (11c1c37f851c82e70ff6c80c92926a4b)
REM
REM compiler GCC version 9.2.1 20190827 (Red Hat 9.2.1-1)
REM options -cpp -mtune=generic -march=x86-64 -g -O0 -fpre-include=/usr/include/finclude/math-vector-fortran.h
REM seed -1185769545 -1825505561 -852219169 -1169957963 -732238539 89370553 1408220014 1863505502 1645428941 888601332 -278809325 1209308843 -29086659 776570683 1332053963 534519250 264664997 -1733491477 1540644086 -1120392779 1958035849 -1656318394 1506588375 492266605 -481832058 591683010 202311039 1580070388 -432414194 -935452675 -488638750 -1220661450 -1459869791
REM
CELL 1.54180   50.00000   50.00000   50.00000   90.00000   90.00000   90.00000
LATT -1
SFAC C  
C      1  0.4897000000000  0.4847870000000  0.4641990000000 1.0
C      1  0.5270250000000  0.5389120000000  0.4797230000000 1.0
C      1  0.4967840000000  0.4548640000000  0.4072690000000 1.0
C      1  0.4912000000000  0.5552670000000  0.5813380000000 1.0
C      1  0.4857830000000  0.4299990000000  0.4112630000000 1.0
C      1  0.4813490000000  0.5019280000000  0.5381480000000 1.0
C      1  0.5787890000000  0.4504580000000  0.4587850000000 1.0
C      1  0.5890880000000  0.4346410000000  0.5118540000000 1.0
C      1  0.4047520000000  0.5109280000000  0.5072290000000 1.0
C      1  0.5251920000000  0.4864330000000  0.6165680000000 1.0
C      1  0.4587810000000  0.5714080000000  0.5644280000000 1.0
C      1  0.4725840000000  0.4561000000000  0.4578540000000 1.0
C      1  0.5300750000000  0.5134910000000  0.5314050000000 1.0
C      1  0.4370070000000  0.5564220000000  0.5755280000000 1.0
C      1  0.4165750000000  0.4535870000000  0.5648560000000 1.0
C      1  0.4540030000000  0.5793580000000  0.4637440000000 1.0
C      1  0.5574200000000  0.5425570000000  0.4663770000000 1.0
C      1  0.4903950000000  0.3810460000000  0.4670510000000 1.0
C      1  0.5093640000000  0.4336430000000  0.5844470000000 1.0
C      1  0.4198490000000  0.5125320000000  0.5732690000000 1.0
C      1  0.5894170000000  0.5062010000000  0.4745130000000 1.0
C      1  0.5608430000000  0.5613050000000  0.4945920000000 1.0
C      1  0.5672280000000  0.4168420000000  0.5175770000000 1.0
C      1  0.4959410000000  0.5873060000000  0.5363600000000 1.0
C      1  0.5484900000000  0.4422840000000  0.4504260000000 1.0
C      1  0.4872320000000  0.5849920000000  0.5663870000000 1.0
C      1  0.4275760000000  0.5722280000000  0.4803060000000 1.0
C      1  0.5886240000000  0.5424860000000  0.4913050000000 1.0
C      1  0.5251030000000  0.3983810000000  0.4964200000000 1.0
C      1  0.4250770000000  0.5725820000000  0.5113920000000 1.0
C      1  0.5468410000000  0.4446590000000  0.5668380000000 1.0
C      1  0.4982440000000  0.5086400000000  0.4949500000000 1.0
C      1  0.5656140000000  0.5110450000000  0.4550920000000 1.0
C      1  0.4579490000000  0.6046370000000  0.4832650000000 1.0
C      1  0.4769080000000  0.5601620000000  0.4960990000000 1.0
C      1  0.4552930000000  0.4640730000000  0.4054250000000 1.0
C      1  0.5137160000000  0.4289090000000  0.4719890000000 1.0
C      1  0.4879660000000  0.4606740000000  0.6086390000000 1.0
C      1  0.3958080000000  0.4779410000000  0.5273730000000 1.0
C      1  0.5646430000000  0.5934800000000  0.4569600000000 1.0
C      1  0.5138780000000  0.3956500000000  0.4696810000000 1.0
C      1  0.4441360000000  0.4728460000000  0.4496930000000 1.0
C      1  0.5176290000000  0.3904740000000  0.5348880000000 1.0
C      1  0.4361560000000  0.4295380000000  0.5584810000000 1.0
C      1  0.5547500000000  0.5607560000000  0.5281040000000 1.0
C      1  0.5929590000000  0.4462090000000  0.4827780000000 1.0
C      1  0.5503080000000  0.4112830000000  0.4959660000000 1.0
C      1  0.5240440000000  0.4271930000000  0.4231790000000 1.0
C      1  0.4472170000000  0.5967660000000  0.5146090000000 1.0
C      1  0.5827200000000  0.5137000000000  0.5028510000000 1.0
C      1  0.4699550000000  0.5911500000000  0.4180460000000 1.0
C      1  0.5331170000000  0.4449500000000  0.5162910000000 1.0
C      1  0.5372670000000  0.5718030000000  0.4203270000000 1.0
C      1  0.5534120000000  0.5063220000000  0.5077330000000 1.0
C      1  0.4779960000000  0.5437180000000  0.4203790000000 1.0
C      1  0.5240150000000  0.5503070000000  0.4069720000000 1.0
C      1  0.4352930000000  0.4273770000000  0.4688000000000 1.0
C      1  0.4751630000000  0.4278840000000  0.4412180000000 1.0
C      1  0.5490210000000  0.4304500000000  0.5410850000000 1.0
C      1  0.4921420000000  0.4930360000000  0.6120120000000 1.0
C      1  0.5854700000000  0.5736550000000  0.5337240000000 1.0
C      1  0.4436490000000  0.4731780000000  0.4836930000000 1.0
C      1  0.5487330000000  0.5242650000000  0.5804160000000 1.0
C      1  0.4155510000000  0.5561460000000  0.5579900000000 1.0
C      1  0.5314430000000  0.5774140000000  0.4888620000000 1.0
C      1  0.5024290000000  0.5458060000000  0.5023490000000 1.0
C      1  0.4192490000000  0.4496870000000  0.4502760000000 1.0
C      1  0.4284320000000  0.4549930000000  0.4177590000000 1.0
C      1  0.5876400000000  0.5486570000000  0.4410080000000 1.0
C      1  0.4820170000000  0.4147140000000  0.5886880000000 1.0
C      1  0.4614230000000  0.4994080000000  0.4402290000000 1.0
C      1  0.5184350000000  0.5281500000000  0.3919780000000 1.0
C      1  0.5048500000000  0.5050130000000  0.4114440000000 1.0
C      1  0.5049410000000  0.4358560000000  0.5278900000000 1.0
C      1  0.4231850000000  0.5579970000000  0.4316370000000 1.0
C      1  0.4183930000000  0.5429910000000  0.5267600000000 1.0
C      1  0.4522260000000  0.5566220000000  0.4384900000000 1.0
C      1  0.5974920000000  0.4757430000000  0.4990060000000 1.0
C      1  0.5812710000000  0.5237680000000  0.4277160000000 1.0
C      1  0.4004340000000  0.4610910000000  0.4762420000000 1.0
C      1  0.4677010000000  0.4969910000000  0.4871420000000 1.0
C      1  0.4595900000000  0.4769490000000  0.5732410000000 1.0
C      1  0.3884110000000  0.5410770000000  0.5108250000000 1.0
C      1  0.4667160000000  0.5682660000000  0.4031380000000 1.0
C      1  0.4717300000000  0.5127480000000  0.4106920000000 1.0
C      1  0.4320590000000  0.4741930000000  0.5867550000000 1.0
C      1  0.5348350000000  0.4780380000000  0.5110700000000 1.0
C      1  0.4602790000000  0.5300110000000  0.4906780000000 1.0
C      1  0.4085730000000  0.5137130000000  0.5410080000000 1.0
C      1  0.5750950000000  0.5892380000000  0.4820780000000 1.0
C      1  0.5062820000000  0.4936280000000  0.5821750000000 1.0
C      1  0.4698300000000  0.4206980000000  0.5392090000000 1.0
C      1  0.4093260000000  0.4338830000000  0.4855950000000 1.0
C      1  0.5420980000000  0.4690750000000  0.6039540000000 1.0
C      1  0.4129890000000  0.4849970000000  0.4921390000000 1.0
C      1  0.5427200000000  0.4408020000000  0.4839150000000 1.0
C      1  0.5597390000000  0.4743090000000  0.5751990000000 1.0
C      1  0.5991900000000  0.4991990000000  0.5468510000000 1.0
C      1  0.6052740000000  0.4989200000000  0.5194330000000 1.0
C      1  0.4994570000000  0.5287140000000  0.5315930000000 1.0
C      1  0.4652020000000  0.4870020000000  0.3894550000000 1.0
C      1  0.5361610000000  0.4941770000000  0.4525070000000 1.0
C      1  0.5069310000000  0.4397730000000  0.4437170000000 1.0
C      1  0.5842320000000  0.4582310000000  0.5321670000000 1.0
C      1  0.5623300000000  0.4771280000000  0.4170410000000 1.0
C      1  0.5187210000000  0.5736170000000  0.5723310000000 1.0
C      1  0.4587420000000  0.5269070000000  0.4509580000000 1.0
C      1  0.4783770000000  0.4992930000000  0.5680320000000 1.0
C      1  0.5029290000000  0.4860380000000  0.5196740000000 1.0
C      1  0.5189810000000  0.5651760000000  0.4596720000000 1.0
C      1  0.5582490000000  0.5293790000000  0.5419150000000 1.0
C      1  0.4675330000000  0.3948370000000  0.4751920000000 1.0
C      1  0.4476680000000  0.4413380000000  0.4972380000000 1.0
C      1  0.4275830000000  0.4781170000000  0.5207670000000 1.0
C      1  0.5780140000000  0.4812820000000  0.4437470000000 1.0
C      1  0.4420080000000  0.4692220000000  0.5484340000000 1.0
C      1  0.6037670000000  0.4806980000000  0.4659530000000 1.0
C      1  0.5556620000000  0.4244810000000  0.5927620000000 1.0
C      1  0.4340120000000  0.5340650000000  0.4705500000000 1.0
C      1  0.5175670000000  0.4786520000000  0.5470080000000 1.0
C      1  0.5338710000000  0.4414580000000  0.6042520000000 1.0
C      1  0.4711990000000  0.5308660000000  0.5695180000000 1.0
C      1  0.4723060000000  0.4178660000000  0.4966180000000 1.0
C      1  0.4689890000000  0.5412600000000  0.5400090000000 1.0
C      1  0.5325220000000  0.5985850000000  0.5145380000000 1.0
C      1  0.4896130000000  0.5881100000000  0.4378100000000 1.0
C      1  0.5109150000000  0.4733790000000  0.4401780000000 1.0
C      1  0.4090540000000  0.5554560000000  0.4603470000000 1.0
C      1  0.4476680000000  0.5315560000000  0.5197690000000 1.0
C      1  0.5343600000000  0.5215810000000  0.4326700000000 1.0
C      1  0.4991540000000  0.4078070000000  0.5148000000000 1.0
C      1  0.4501630000000  0.5688030000000  0.5340310000000 1.0
C      1  0.4852520000000  0.5665580000000  0.4637610000000 1.0
C      1  0.5659280000000  0.4660120000000  0.5043910000000 1.0
C      1  0.4884120000000  0.6086130000000  0.4916230000000 1.0
C      1  0.4902210000000  0.4367570000000  0.5564960000000 1.0
C      1  0.5190390000000  0.4637630000000  0.5719530000000 1.0
C      1  0.4067040000000  0.4850720000000  0.5584550000000 1.0
C      1  0.5403270000000  0.3992690000000  0.5413970000000 1.0
C      1  0.5234930000000  0.5732840000000  0.5329960000000 1.0
C      1  0.4857930000000  0.5328610000000  0.4683560000000 1.0
C      1  0.5258970000000  0.4650700000000  0.4108050000000 1.0
C      1  0.4574370000000  0.4259670000000  0.5767800000000 1.0
C      1  0.4900430000000  0.4576800000000  0.5114720000000 1.0
C      1  0.5501780000000  0.5667420000000  0.5612970000000 1.0
C      1  0.4276960000000  0.4867000000000  0.4233150000000 1.0
C      1  0.4985970000000  0.5117160000000  0.4454000000000 1.0
C      1  0.5329290000000  0.5399720000000  0.5131930000000 1.0
C      1  0.4550880000000  0.4109970000000  0.4552950000000 1.0
C      1  0.4879820000000  0.4435340000000  0.4831830000000 1.0
C      1  0.4748930000000  0.4533610000000  0.5819020000000 1.0
C      1  0.5502630000000  0.4727440000000  0.4749740000000 1.0
C      1  0.5183750000000  0.5253020000000  0.5796110000000 1.0
C      1  0.5082060000000  0.5430250000000  0.4361880000000 1.0
C      1  0.5852090000000  0.4757110000000  0.5538490000000 1.0
C      1  0.5170290000000  0.4748700000000  0.4818470000000 1.0
C      1  0.5164220000000  0.5920180000000  0.4301570000000 1.0
C      1  0.5565410000000  0.5022400000000  0.5623550000000 1.0
C      1  0.4593890000000  0.4905140000000  0.5194690000000 1.0
C      1  0.4615330000000  0.4577960000000  0.5231860000000 1.0
C      1  0.5884820000000  0.5243620000000  0.5550680000000 1.0
C      1  0.4106890000000  0.4227760000000  0.5103350000000 1.0
C      1  0.5568370000000  0.5192720000000  0.4129280000000 1.0
C      1  0.5619850000000  0.5488820000000  0.5783670000000 1.0
C      1  0.6005030000000  0.5472070000000  0.4667390000000 1.0
C      1  0.5608160000000  0.5657250000000  0.4416290000000 1.0
C      1  0.4806070000000  0.4764100000000  0.4245700000000 1.0
C      1  0.5172790000000  0.5458940000000  0.5526950000000 1.0
C      1  0.4682450000000  0.5170190000000  0.6082790000000 1.0
C      1  0.4035520000000  0.5325260000000  0.4827640000000 1.0
C      1  0.5354630000000  0.5942390000000  0.4532230000000 1.0
C      1  0.5363330000000  0.4946940000000  0.4035550000000 1.0
C      1  0.4783060000000  0.5864960000000  0.5120690000000 1.0
C      1  0.4947700000000  0.5314280000000  0.6017490000000 1.0
C      1  0.5154990000000  0.6076790000000  0.4892800000000 1.0
C      1  0.5523590000000  0.4446210000000  0.4169810000000 1.0
C      1  0.5295040000000  0.5064610000000  0.4835110000000 1.0
C      1  0.4379960000000  0.5085630000000  0.4093060000000 1.0
C      1  0.4439300000000  0.5275050000000  0.5867750000000 1.0
C      1  0.4389210000000  0.4247500000000  0.5256270000000 1.0
END
