TITL C-2847950-6905-106 -0.000535180065165813 125000 -1080.070753817 0 0 199 (C1) n - 1
REM
REM in /home/bkarasulu/work/CARBON/AIRSS/Generating-Clusters/AIREBO/with-SteepDescent/Only-C1/SD-CG-opt/Try1-1.4A-POS3A/HFTN-CG
REM
REM
REM
REM
REM
REM ./C.cell (11c1c37f851c82e70ff6c80c92926a4b)
REM
REM compiler GCC version 9.2.1 20190827 (Red Hat 9.2.1-1)
REM options -cpp -mtune=generic -march=x86-64 -g -O0 -fpre-include=/usr/include/finclude/math-vector-fortran.h
REM seed -1641574554 -1503949153 549149188 304220485 -1951938382 537818583 1756249478 1501803081 647474691 95754540 -1406903238 -1731905133 -715276317 -1317849555 -1762888016 -1332595114 2006526832 1276296207 314434593 -564532775 1966511894 984192294 1893902779 -2052356563 -1075058967 -2079749425 582966566 -1143591696 1323887558 -2052273956 1255257355 -107697206 139155469
REM
CELL 1.54180   50.00000   50.00000   50.00000   90.00000   90.00000   90.00000
LATT -1
SFAC C  
C      1  0.5478700000000  0.4537360000000  0.4041990000000 1.0
C      1  0.4686610000000  0.6222830000000  0.5502080000000 1.0
C      1  0.4007380000000  0.4953480000000  0.4648550000000 1.0
C      1  0.5120490000000  0.5306440000000  0.3970040000000 1.0
C      1  0.4357460000000  0.4614490000000  0.4452470000000 1.0
C      1  0.6061740000000  0.4805520000000  0.5374770000000 1.0
C      1  0.4448840000000  0.4748940000000  0.4817480000000 1.0
C      1  0.4601180000000  0.5713090000000  0.5565330000000 1.0
C      1  0.4742450000000  0.4897650000000  0.5763610000000 1.0
C      1  0.4979450000000  0.4774360000000  0.4512670000000 1.0
C      1  0.5551680000000  0.4385320000000  0.4337400000000 1.0
C      1  0.4836040000000  0.6065070000000  0.4502380000000 1.0
C      1  0.3796860000000  0.4866130000000  0.5210030000000 1.0
C      1  0.4552260000000  0.5288210000000  0.4966120000000 1.0
C      1  0.4480670000000  0.4235970000000  0.4876830000000 1.0
C      1  0.5576990000000  0.5775340000000  0.4506380000000 1.0
C      1  0.4709770000000  0.4633910000000  0.6061780000000 1.0
C      1  0.5876590000000  0.4559040000000  0.5245040000000 1.0
C      1  0.4541940000000  0.5437120000000  0.4688050000000 1.0
C      1  0.5860290000000  0.5422100000000  0.5083350000000 1.0
C      1  0.4135270000000  0.4445950000000  0.4951600000000 1.0
C      1  0.5300250000000  0.5274720000000  0.4906590000000 1.0
C      1  0.4268760000000  0.5299200000000  0.5587710000000 1.0
C      1  0.4002750000000  0.5312910000000  0.5157450000000 1.0
C      1  0.4574040000000  0.4868510000000  0.5280190000000 1.0
C      1  0.5346380000000  0.5559450000000  0.3994030000000 1.0
C      1  0.5458750000000  0.4705950000000  0.4402310000000 1.0
C      1  0.4317600000000  0.5104870000000  0.5034570000000 1.0
C      1  0.4696510000000  0.4695550000000  0.5546140000000 1.0
C      1  0.5240920000000  0.4966920000000  0.4411770000000 1.0
C      1  0.4625490000000  0.4555470000000  0.4005370000000 1.0
C      1  0.4290860000000  0.4744200000000  0.5405200000000 1.0
C      1  0.5049640000000  0.6018310000000  0.4277180000000 1.0
C      1  0.5025580000000  0.4258770000000  0.4659160000000 1.0
C      1  0.4967360000000  0.5215400000000  0.6119410000000 1.0
C      1  0.4632870000000  0.5990330000000  0.4773540000000 1.0
C      1  0.4881420000000  0.5436490000000  0.4669120000000 1.0
C      1  0.4867010000000  0.4537990000000  0.4992490000000 1.0
C      1  0.5801610000000  0.4967140000000  0.4416400000000 1.0
C      1  0.4704690000000  0.5051190000000  0.4592980000000 1.0
C      1  0.4332880000000  0.4462260000000  0.5228240000000 1.0
C      1  0.4532360000000  0.5071260000000  0.4106360000000 1.0
C      1  0.4901450000000  0.5571580000000  0.3962470000000 1.0
C      1  0.4798380000000  0.4064720000000  0.4224940000000 1.0
C      1  0.4463490000000  0.4991020000000  0.5900870000000 1.0
C      1  0.4906860000000  0.5050840000000  0.3899200000000 1.0
C      1  0.5339360000000  0.4026600000000  0.4805110000000 1.0
C      1  0.5037810000000  0.5604750000000  0.5865660000000 1.0
C      1  0.4873510000000  0.4518070000000  0.4674880000000 1.0
C      1  0.4892520000000  0.3892070000000  0.5428930000000 1.0
C      1  0.5374740000000  0.3853360000000  0.5162120000000 1.0
C      1  0.4681260000000  0.4074850000000  0.5589050000000 1.0
C      1  0.5167020000000  0.4924300000000  0.4078010000000 1.0
C      1  0.5252070000000  0.4334430000000  0.4208260000000 1.0
C      1  0.4956170000000  0.4044300000000  0.4909520000000 1.0
C      1  0.4057630000000  0.5811280000000  0.5024300000000 1.0
C      1  0.4050940000000  0.5219080000000  0.4856410000000 1.0
C      1  0.4666350000000  0.5961310000000  0.5090260000000 1.0
C      1  0.5296430000000  0.5520870000000  0.4388740000000 1.0
C      1  0.5438050000000  0.5694040000000  0.5020800000000 1.0
C      1  0.4126510000000  0.5000440000000  0.5528860000000 1.0
C      1  0.4691570000000  0.5347430000000  0.5335410000000 1.0
C      1  0.5995340000000  0.4755140000000  0.4876710000000 1.0
C      1  0.5256980000000  0.4997320000000  0.5098420000000 1.0
C      1  0.4574720000000  0.3971330000000  0.5003140000000 1.0
C      1  0.4938320000000  0.5630480000000  0.4926650000000 1.0
C      1  0.4589240000000  0.4410570000000  0.4608480000000 1.0
C      1  0.5185420000000  0.5821520000000  0.4851830000000 1.0
C      1  0.4911710000000  0.5734000000000  0.4519070000000 1.0
C      1  0.5873530000000  0.4276140000000  0.5111590000000 1.0
C      1  0.5244450000000  0.5799450000000  0.4548900000000 1.0
C      1  0.4549840000000  0.4197950000000  0.4346070000000 1.0
C      1  0.5144220000000  0.4297950000000  0.5361820000000 1.0
C      1  0.4593980000000  0.5845780000000  0.4455520000000 1.0
C      1  0.4098830000000  0.5827810000000  0.5363310000000 1.0
C      1  0.5369110000000  0.5089190000000  0.3888810000000 1.0
C      1  0.5567740000000  0.5251770000000  0.5115280000000 1.0
C      1  0.4447310000000  0.5723430000000  0.4708990000000 1.0
C      1  0.4435010000000  0.4507530000000  0.5609820000000 1.0
C      1  0.5334960000000  0.4780900000000  0.4854940000000 1.0
C      1  0.4716990000000  0.5319210000000  0.3966240000000 1.0
C      1  0.5447780000000  0.5540100000000  0.5694030000000 1.0
C      1  0.4863190000000  0.4401800000000  0.6025870000000 1.0
C      1  0.5852410000000  0.4932520000000  0.5866370000000 1.0
C      1  0.6083300000000  0.5253810000000  0.4949510000000 1.0
C      1  0.5930690000000  0.5541130000000  0.5368230000000 1.0
C      1  0.5068680000000  0.4166800000000  0.4355960000000 1.0
C      1  0.4553750000000  0.4512750000000  0.4993510000000 1.0
C      1  0.4767230000000  0.5424160000000  0.5636670000000 1.0
C      1  0.5537090000000  0.4556970000000  0.4697790000000 1.0
C      1  0.5967630000000  0.5534330000000  0.4658710000000 1.0
C      1  0.5570160000000  0.6122840000000  0.4883470000000 1.0
C      1  0.4364220000000  0.5269260000000  0.4496260000000 1.0
C      1  0.5597830000000  0.4404980000000  0.5669200000000 1.0
C      1  0.5601010000000  0.5084550000000  0.4050750000000 1.0
C      1  0.4846990000000  0.4688350000000  0.4076440000000 1.0
C      1  0.5902570000000  0.5283780000000  0.4493970000000 1.0
C      1  0.4798160000000  0.5433860000000  0.5978190000000 1.0
C      1  0.4097110000000  0.4467530000000  0.4614410000000 1.0
C      1  0.5705190000000  0.5920210000000  0.4737810000000 1.0
C      1  0.6017500000000  0.5068030000000  0.4736210000000 1.0
C      1  0.5420460000000  0.4954890000000  0.5527070000000 1.0
C      1  0.4183420000000  0.5562170000000  0.5189740000000 1.0
C      1  0.4952780000000  0.4557780000000  0.5456600000000 1.0
C      1  0.5514330000000  0.5853600000000  0.5262560000000 1.0
C      1  0.4944040000000  0.5129040000000  0.5689100000000 1.0
C      1  0.5674300000000  0.4223280000000  0.4525430000000 1.0
C      1  0.5234750000000  0.5284920000000  0.6134030000000 1.0
C      1  0.5916970000000  0.4604650000000  0.5565230000000 1.0
C      1  0.4363210000000  0.5242750000000  0.5873880000000 1.0
C      1  0.5421870000000  0.5329300000000  0.5892880000000 1.0
C      1  0.5678080000000  0.5087300000000  0.5360560000000 1.0
C      1  0.5175130000000  0.5175500000000  0.5443950000000 1.0
C      1  0.4713890000000  0.3909430000000  0.4711600000000 1.0
C      1  0.4423550000000  0.4004570000000  0.4560970000000 1.0
C      1  0.5946090000000  0.5054950000000  0.5428310000000 1.0
C      1  0.5569650000000  0.4250760000000  0.4831680000000 1.0
C      1  0.5321990000000  0.6074780000000  0.4992820000000 1.0
C      1  0.4164490000000  0.4842480000000  0.4900190000000 1.0
C      1  0.4620970000000  0.6232480000000  0.5255200000000 1.0
C      1  0.4408020000000  0.4936370000000  0.4550290000000 1.0
C      1  0.5452020000000  0.5471220000000  0.5359950000000 1.0
C      1  0.5612290000000  0.5589280000000  0.4047050000000 1.0
C      1  0.4449800000000  0.5168830000000  0.5338640000000 1.0
C      1  0.5008090000000  0.4867150000000  0.4815580000000 1.0
C      1  0.4342590000000  0.5645850000000  0.4217970000000 1.0
C      1  0.4800770000000  0.4222260000000  0.5788760000000 1.0
C      1  0.5983280000000  0.5134560000000  0.5715720000000 1.0
C      1  0.4962540000000  0.5246350000000  0.5187930000000 1.0
C      1  0.5698240000000  0.4217850000000  0.5403110000000 1.0
C      1  0.5194240000000  0.4836310000000  0.6010370000000 1.0
C      1  0.5118450000000  0.5720100000000  0.4178040000000 1.0
C      1  0.5698690000000  0.5690890000000  0.5428990000000 1.0
C      1  0.4656360000000  0.3780810000000  0.5263240000000 1.0
C      1  0.5204900000000  0.4241450000000  0.5031790000000 1.0
C      1  0.4816150000000  0.5962580000000  0.5592110000000 1.0
C      1  0.4881890000000  0.4952800000000  0.5304090000000 1.0
C      1  0.5072080000000  0.4363090000000  0.5688440000000 1.0
C      1  0.4153630000000  0.4761210000000  0.4221890000000 1.0
C      1  0.6039090000000  0.4792970000000  0.4547080000000 1.0
C      1  0.3922080000000  0.5095250000000  0.5325100000000 1.0
C      1  0.5258490000000  0.5054230000000  0.5809150000000 1.0
C      1  0.5220950000000  0.3828860000000  0.4668970000000 1.0
C      1  0.3978830000000  0.4738460000000  0.4471220000000 1.0
C      1  0.4968320000000  0.5215550000000  0.4257670000000 1.0
C      1  0.5079910000000  0.5477470000000  0.5553160000000 1.0
C      1  0.4137240000000  0.5736700000000  0.4734990000000 1.0
C      1  0.5064280000000  0.4725500000000  0.5184130000000 1.0
C      1  0.5638670000000  0.4742660000000  0.5681870000000 1.0
C      1  0.3846610000000  0.5415550000000  0.4426290000000 1.0
C      1  0.5693400000000  0.5597600000000  0.4844670000000 1.0
C      1  0.6053910000000  0.5404970000000  0.5586710000000 1.0
C      1  0.5590410000000  0.5004230000000  0.4882410000000 1.0
C      1  0.5189720000000  0.3954510000000  0.5560870000000 1.0
C      1  0.4959100000000  0.5913000000000  0.5256580000000 1.0
C      1  0.5262920000000  0.5768960000000  0.5754350000000 1.0
C      1  0.4287660000000  0.4897590000000  0.4035060000000 1.0
C      1  0.5715230000000  0.5530690000000  0.4352400000000 1.0
C      1  0.4194700000000  0.5738210000000  0.4399790000000 1.0
C      1  0.4692550000000  0.5562610000000  0.5083470000000 1.0
C      1  0.5095780000000  0.3889330000000  0.5178170000000 1.0
C      1  0.4272100000000  0.5628120000000  0.5570590000000 1.0
C      1  0.4490840000000  0.5433420000000  0.6018000000000 1.0
C      1  0.5168870000000  0.5494180000000  0.5080040000000 1.0
C      1  0.5304990000000  0.4527600000000  0.5080520000000 1.0
C      1  0.5262840000000  0.6052970000000  0.5318260000000 1.0
C      1  0.4428660000000  0.4227120000000  0.5441210000000 1.0
C      1  0.5575770000000  0.5259630000000  0.4268760000000 1.0
C      1  0.4454260000000  0.4440570000000  0.4176790000000 1.0
C      1  0.5138280000000  0.5972420000000  0.5603020000000 1.0
C      1  0.5741570000000  0.4745910000000  0.6067550000000 1.0
C      1  0.4792660000000  0.4941990000000  0.4283130000000 1.0
C      1  0.5598720000000  0.4075900000000  0.5115790000000 1.0
C      1  0.3957920000000  0.4693920000000  0.5080520000000 1.0
C      1  0.5697840000000  0.4428080000000  0.5987640000000 1.0
C      1  0.4447930000000  0.4663860000000  0.5899850000000 1.0
C      1  0.5152390000000  0.4611150000000  0.4039720000000 1.0
C      1  0.5467460000000  0.5413060000000  0.4662210000000 1.0
C      1  0.4193050000000  0.4178570000000  0.4742520000000 1.0
C      1  0.4689800000000  0.4885920000000  0.4960900000000 1.0
C      1  0.5671000000000  0.4796320000000  0.4152520000000 1.0
C      1  0.5438300000000  0.4630760000000  0.6007150000000 1.0
C      1  0.5456090000000  0.4778130000000  0.5238750000000 1.0
C      1  0.4151870000000  0.4778550000000  0.5777850000000 1.0
C      1  0.5128250000000  0.5274560000000  0.4503620000000 1.0
C      1  0.5391370000000  0.4175200000000  0.5538580000000 1.0
C      1  0.4477480000000  0.5724420000000  0.5245800000000 1.0
C      1  0.5173200000000  0.5665950000000  0.5348810000000 1.0
C      1  0.4085170000000  0.5421650000000  0.4618000000000 1.0
C      1  0.4891990000000  0.4910340000000  0.6064010000000 1.0
C      1  0.4988760000000  0.3887590000000  0.4528850000000 1.0
C      1  0.5165360000000  0.4473050000000  0.5970090000000 1.0
C      1  0.5520130000000  0.5093070000000  0.4559940000000 1.0
C      1  0.5806370000000  0.4596610000000  0.4563190000000 1.0
C      1  0.4392620000000  0.3961660000000  0.5286500000000 1.0
C      1  0.5721450000000  0.4772470000000  0.5069320000000 1.0
C      1  0.4857250000000  0.5166440000000  0.4874400000000 1.0
C      1  0.6072460000000  0.4451070000000  0.4918550000000 1.0
C      1  0.4438360000000  0.5363460000000  0.4200260000000 1.0
END
