TITL C-2847956-8218-617 -0.0017861205652038 125000 -990.887879061358 0 0 179 (C1) n - 1
REM
REM in /home/bkarasulu/work/CARBON/AIRSS/Generating-Clusters/AIREBO/with-SteepDescent/Only-C1/SD-CG-opt/Try1-1.4A-POS3A/HFTN-CG
REM
REM
REM
REM
REM
REM ./C.cell (11c1c37f851c82e70ff6c80c92926a4b)
REM
REM compiler GCC version 9.2.1 20190827 (Red Hat 9.2.1-1)
REM options -cpp -mtune=generic -march=x86-64 -g -O0 -fpre-include=/usr/include/finclude/math-vector-fortran.h
REM seed 798850367 -914601020 138565729 -1918022857 -1418102780 1020090184 -1712569135 754007053 410155393 1784400800 1587242534 -556977593 285724925 -444193031 1009075014 1164917335 1211154084 -1114361731 444241068 -451776210 1554897160 1392126419 -1448085857 514791260 611824692 -1184437111 803822762 1557562976 -1952206477 839048010 -209934439 473547198 1615824115
REM
CELL 1.54180   50.00000   50.00000   50.00000   90.00000   90.00000   90.00000
LATT -1
SFAC C  
C      1  0.3865060000000  0.5155640000000  0.4662120000000 1.0
C      1  0.5398740000000  0.4843970000000  0.4325390000000 1.0
C      1  0.5114790000000  0.5770230000000  0.5601440000000 1.0
C      1  0.5868280000000  0.4366670000000  0.5254390000000 1.0
C      1  0.4780820000000  0.4237910000000  0.4831660000000 1.0
C      1  0.4432480000000  0.5531920000000  0.5027290000000 1.0
C      1  0.5033640000000  0.4038830000000  0.5372020000000 1.0
C      1  0.4449930000000  0.4032930000000  0.5096160000000 1.0
C      1  0.5149380000000  0.5012520000000  0.4320640000000 1.0
C      1  0.4798520000000  0.5648870000000  0.5361430000000 1.0
C      1  0.5579110000000  0.4978690000000  0.5248840000000 1.0
C      1  0.5072400000000  0.4826530000000  0.6089250000000 1.0
C      1  0.5808950000000  0.5649580000000  0.5218090000000 1.0
C      1  0.5372290000000  0.4915290000000  0.3935740000000 1.0
C      1  0.4974170000000  0.5118890000000  0.5931750000000 1.0
C      1  0.5452760000000  0.5272050000000  0.4531150000000 1.0
C      1  0.5574550000000  0.4600780000000  0.5122840000000 1.0
C      1  0.4994110000000  0.6002750000000  0.5277540000000 1.0
C      1  0.4649120000000  0.5116530000000  0.4515100000000 1.0
C      1  0.4245430000000  0.4596940000000  0.5615370000000 1.0
C      1  0.5632590000000  0.5363920000000  0.5164060000000 1.0
C      1  0.4824090000000  0.5683880000000  0.4175330000000 1.0
C      1  0.5065870000000  0.5595480000000  0.4598920000000 1.0
C      1  0.4810530000000  0.4455320000000  0.4575810000000 1.0
C      1  0.4154360000000  0.5828530000000  0.5131540000000 1.0
C      1  0.5426460000000  0.5479650000000  0.5905490000000 1.0
C      1  0.3894160000000  0.5058370000000  0.4987310000000 1.0
C      1  0.5586470000000  0.4368850000000  0.4537750000000 1.0
C      1  0.5003200000000  0.4822010000000  0.4732600000000 1.0
C      1  0.4755400000000  0.6135110000000  0.4696100000000 1.0
C      1  0.5300850000000  0.4580170000000  0.4355660000000 1.0
C      1  0.4689200000000  0.4135840000000  0.5543790000000 1.0
C      1  0.5514840000000  0.4361110000000  0.4944380000000 1.0
C      1  0.5058660000000  0.5326990000000  0.3907970000000 1.0
C      1  0.5859200000000  0.5089450000000  0.4555290000000 1.0
C      1  0.5646550000000  0.4877110000000  0.4131970000000 1.0
C      1  0.4496590000000  0.4648720000000  0.5313130000000 1.0
C      1  0.5806740000000  0.4864390000000  0.5465500000000 1.0
C      1  0.4713930000000  0.5350680000000  0.5501340000000 1.0
C      1  0.5640270000000  0.4094060000000  0.4930120000000 1.0
C      1  0.5121760000000  0.5686130000000  0.5271840000000 1.0
C      1  0.5339090000000  0.5981490000000  0.5594590000000 1.0
C      1  0.5690450000000  0.4568080000000  0.5441410000000 1.0
C      1  0.4738850000000  0.4142880000000  0.5237800000000 1.0
C      1  0.4089480000000  0.5262820000000  0.5128940000000 1.0
C      1  0.4694860000000  0.4430080000000  0.5642160000000 1.0
C      1  0.4911850000000  0.4822330000000  0.4404890000000 1.0
C      1  0.4715670000000  0.5805900000000  0.5071430000000 1.0
C      1  0.5716960000000  0.5793310000000  0.4986500000000 1.0
C      1  0.4407570000000  0.5554160000000  0.4509100000000 1.0
C      1  0.5323730000000  0.5192340000000  0.3910120000000 1.0
C      1  0.5489950000000  0.4938870000000  0.4588400000000 1.0
C      1  0.4292770000000  0.4782400000000  0.4419320000000 1.0
C      1  0.4923780000000  0.4152800000000  0.4469320000000 1.0
C      1  0.4410840000000  0.4420900000000  0.4943370000000 1.0
C      1  0.4593080000000  0.5638810000000  0.4001520000000 1.0
C      1  0.4390900000000  0.5225270000000  0.5068130000000 1.0
C      1  0.5113070000000  0.4291100000000  0.5586180000000 1.0
C      1  0.5180020000000  0.4089200000000  0.4664920000000 1.0
C      1  0.5173760000000  0.4546670000000  0.5802260000000 1.0
C      1  0.5490670000000  0.5010300000000  0.5873620000000 1.0
C      1  0.6112850000000  0.4492060000000  0.4838320000000 1.0
C      1  0.4618780000000  0.4727520000000  0.5970930000000 1.0
C      1  0.4754610000000  0.4994340000000  0.4795150000000 1.0
C      1  0.6042170000000  0.4531830000000  0.5101410000000 1.0
C      1  0.4654760000000  0.5015270000000  0.5985690000000 1.0
C      1  0.5146170000000  0.4733400000000  0.4007850000000 1.0
C      1  0.3984160000000  0.5309180000000  0.4482720000000 1.0
C      1  0.5407170000000  0.5729830000000  0.4875370000000 1.0
C      1  0.5713800000000  0.5170450000000  0.4823720000000 1.0
C      1  0.4183510000000  0.4347020000000  0.4413950000000 1.0
C      1  0.5148220000000  0.5336580000000  0.4394310000000 1.0
C      1  0.3779640000000  0.4855990000000  0.5227860000000 1.0
C      1  0.4362650000000  0.5202580000000  0.4183010000000 1.0
C      1  0.4915420000000  0.3961260000000  0.5690980000000 1.0
C      1  0.5613740000000  0.4432950000000  0.5704760000000 1.0
C      1  0.4705810000000  0.5963750000000  0.4520320000000 1.0
C      1  0.5433950000000  0.5585600000000  0.5328440000000 1.0
C      1  0.5265760000000  0.4633760000000  0.5206980000000 1.0
C      1  0.5272810000000  0.4911770000000  0.5346480000000 1.0
C      1  0.4947510000000  0.5647270000000  0.5849100000000 1.0
C      1  0.4471640000000  0.4570120000000  0.5781320000000 1.0
C      1  0.4702670000000  0.5255020000000  0.4934420000000 1.0
C      1  0.4184270000000  0.4225180000000  0.5074750000000 1.0
C      1  0.5426090000000  0.5196620000000  0.4951760000000 1.0
C      1  0.4893130000000  0.6043160000000  0.4953360000000 1.0
C      1  0.4450460000000  0.5220640000000  0.5855800000000 1.0
C      1  0.4841360000000  0.4525530000000  0.4248310000000 1.0
C      1  0.5045880000000  0.5283230000000  0.5469310000000 1.0
C      1  0.5784270000000  0.5573240000000  0.5516410000000 1.0
C      1  0.5660340000000  0.5468340000000  0.4251190000000 1.0
C      1  0.4471040000000  0.5751730000000  0.5566290000000 1.0
C      1  0.5247340000000  0.4362820000000  0.4827530000000 1.0
C      1  0.5680000000000  0.5150360000000  0.4309130000000 1.0
C      1  0.5140370000000  0.4415280000000  0.4129520000000 1.0
C      1  0.4231720000000  0.4840900000000  0.4903460000000 1.0
C      1  0.4844020000000  0.3784610000000  0.4865940000000 1.0
C      1  0.4069860000000  0.4616370000000  0.4578020000000 1.0
C      1  0.4570990000000  0.4771850000000  0.4044710000000 1.0
C      1  0.6081950000000  0.4937530000000  0.4658990000000 1.0
C      1  0.5301670000000  0.5209650000000  0.5956240000000 1.0
C      1  0.4565340000000  0.4490710000000  0.4112350000000 1.0
C      1  0.5250150000000  0.5202130000000  0.5209850000000 1.0
C      1  0.5677070000000  0.4669970000000  0.4663990000000 1.0
C      1  0.4024720000000  0.5025450000000  0.5363600000000 1.0
C      1  0.4233120000000  0.5377030000000  0.4368320000000 1.0
C      1  0.4434410000000  0.5488230000000  0.5364590000000 1.0
C      1  0.4873310000000  0.5083840000000  0.5251940000000 1.0
C      1  0.4030520000000  0.5588300000000  0.5209830000000 1.0
C      1  0.4620990000000  0.5328610000000  0.4100250000000 1.0
C      1  0.4279830000000  0.4874430000000  0.5446200000000 1.0
C      1  0.4125830000000  0.5196380000000  0.5830150000000 1.0
C      1  0.4780980000000  0.4449860000000  0.5097530000000 1.0
C      1  0.4803350000000  0.4603640000000  0.5400030000000 1.0
C      1  0.4369590000000  0.4918330000000  0.4184490000000 1.0
C      1  0.4375270000000  0.5544310000000  0.5778560000000 1.0
C      1  0.4809600000000  0.5320780000000  0.4367200000000 1.0
C      1  0.5056130000000  0.4592230000000  0.4990030000000 1.0
C      1  0.6141720000000  0.5013740000000  0.4926280000000 1.0
C      1  0.4739900000000  0.5626060000000  0.4499780000000 1.0
C      1  0.6026760000000  0.4838220000000  0.5197570000000 1.0
C      1  0.4507170000000  0.4827640000000  0.5060420000000 1.0
C      1  0.5226770000000  0.5453490000000  0.5640920000000 1.0
C      1  0.4492160000000  0.5100020000000  0.5561970000000 1.0
C      1  0.5774150000000  0.4489410000000  0.5922790000000 1.0
C      1  0.5220330000000  0.3922640000000  0.5145210000000 1.0
C      1  0.5909490000000  0.4561890000000  0.6135180000000 1.0
C      1  0.5726160000000  0.4158970000000  0.4657660000000 1.0
C      1  0.4903260000000  0.4260450000000  0.5852110000000 1.0
C      1  0.5210390000000  0.6187320000000  0.5142850000000 1.0
C      1  0.4891140000000  0.4565590000000  0.6002750000000 1.0
C      1  0.5302660000000  0.4251390000000  0.4391800000000 1.0
C      1  0.4033080000000  0.5248120000000  0.5579710000000 1.0
C      1  0.4580990000000  0.5060310000000  0.5260600000000 1.0
C      1  0.4161320000000  0.4342440000000  0.4752630000000 1.0
C      1  0.4347880000000  0.4344230000000  0.4205920000000 1.0
C      1  0.4040700000000  0.4700110000000  0.5122190000000 1.0
C      1  0.4652550000000  0.3993280000000  0.4878190000000 1.0
C      1  0.4701890000000  0.5965800000000  0.5437780000000 1.0
C      1  0.4311520000000  0.5657070000000  0.4751090000000 1.0
C      1  0.5614710000000  0.5068030000000  0.5636190000000 1.0
C      1  0.4977800000000  0.4850190000000  0.5454720000000 1.0
C      1  0.5871830000000  0.5140940000000  0.5188330000000 1.0
C      1  0.4199330000000  0.4484700000000  0.5294370000000 1.0
C      1  0.4472740000000  0.4856340000000  0.4664070000000 1.0
C      1  0.4149020000000  0.5870280000000  0.4849590000000 1.0
C      1  0.5249360000000  0.5010650000000  0.4776160000000 1.0
C      1  0.5093680000000  0.5614980000000  0.4940210000000 1.0
C      1  0.4431270000000  0.5870140000000  0.5250030000000 1.0
C      1  0.4707710000000  0.5580230000000  0.4835260000000 1.0
C      1  0.4863930000000  0.4883330000000  0.4073660000000 1.0
C      1  0.5835040000000  0.5611420000000  0.4431260000000 1.0
C      1  0.4840050000000  0.5165670000000  0.3963510000000 1.0
C      1  0.5741060000000  0.5809770000000  0.4671690000000 1.0
C      1  0.5192150000000  0.5865990000000  0.4570140000000 1.0
C      1  0.5038650000000  0.4838110000000  0.5751020000000 1.0
C      1  0.5884710000000  0.5447490000000  0.4725340000000 1.0
C      1  0.5881130000000  0.4681680000000  0.4265790000000 1.0
C      1  0.3940930000000  0.4846160000000  0.4733680000000 1.0
C      1  0.5358060000000  0.5437460000000  0.4146420000000 1.0
C      1  0.4984880000000  0.5358350000000  0.5085060000000 1.0
C      1  0.5349710000000  0.4375160000000  0.5361500000000 1.0
C      1  0.5416950000000  0.4240930000000  0.5730560000000 1.0
C      1  0.5131780000000  0.4542480000000  0.4604160000000 1.0
C      1  0.5059290000000  0.5581470000000  0.4074650000000 1.0
C      1  0.5503820000000  0.3955580000000  0.5163300000000 1.0
C      1  0.5218750000000  0.6008980000000  0.4861670000000 1.0
C      1  0.5581090000000  0.4209570000000  0.5307730000000 1.0
C      1  0.5536730000000  0.5345900000000  0.5546820000000 1.0
C      1  0.4132710000000  0.5474910000000  0.5465100000000 1.0
C      1  0.5552000000000  0.5506240000000  0.4686430000000 1.0
C      1  0.5675790000000  0.5605660000000  0.5815370000000 1.0
C      1  0.6059220000000  0.5308410000000  0.4965760000000 1.0
C      1  0.5991430000000  0.4652230000000  0.4586410000000 1.0
C      1  0.4859440000000  0.5389670000000  0.5806250000000 1.0
C      1  0.5111040000000  0.3881770000000  0.4886460000000 1.0
C      1  0.4641300000000  0.4612740000000  0.4833540000000 1.0
C      1  0.5530660000000  0.5876080000000  0.5457880000000 1.0
C      1  0.5641840000000  0.4860440000000  0.4943690000000 1.0
END
