TITL C-2848505-4874-199 -0.00043008672307525 125000 -916.809344149972 0 0 167 (C1) n - 1
REM
REM in /home/bkarasulu/work/CARBON/AIRSS/Generating-Clusters/AIREBO/with-SteepDescent/Only-C1/SD-CG-opt/Try1-1.4A-POS3A/HFTN-CG
REM
REM
REM
REM
REM
REM ./C.cell (11c1c37f851c82e70ff6c80c92926a4b)
REM
REM compiler GCC version 9.2.1 20190827 (Red Hat 9.2.1-1)
REM options -cpp -mtune=generic -march=x86-64 -g -O0 -fpre-include=/usr/include/finclude/math-vector-fortran.h
REM seed 440183613 -1679722157 1631414054 -510960180 -1464676305 1852081442 -1165115239 893139471 1238962959 -1122293711 624230877 1484453063 -2066307883 -1512468393 1462609749 4118260 -1168760653 -908587648 -1876115261 -1650429183 836046786 1934421453 -876751063 864400690 -769036500 -2117401331 -1434312528 710392211 -343697329 279384343 -721641497 -1343974997 -687962562
REM
CELL 1.54180   50.00000   50.00000   50.00000   90.00000   90.00000   90.00000
LATT -1
SFAC C  
C      1  0.5213340000000  0.4833010000000  0.6002260000000 1.0
C      1  0.4596980000000  0.5141840000000  0.4396050000000 1.0
C      1  0.5957560000000  0.4701090000000  0.5189970000000 1.0
C      1  0.4356690000000  0.5877570000000  0.5562520000000 1.0
C      1  0.5447380000000  0.4753350000000  0.5768210000000 1.0
C      1  0.5525980000000  0.4338380000000  0.4771160000000 1.0
C      1  0.4738010000000  0.5946740000000  0.5277350000000 1.0
C      1  0.4749210000000  0.5625600000000  0.5705250000000 1.0
C      1  0.5778920000000  0.5136060000000  0.5258630000000 1.0
C      1  0.4544440000000  0.4811770000000  0.5243840000000 1.0
C      1  0.4677650000000  0.4893050000000  0.4280050000000 1.0
C      1  0.5279800000000  0.3879850000000  0.5308640000000 1.0
C      1  0.4349580000000  0.5616690000000  0.4616290000000 1.0
C      1  0.4833860000000  0.4025090000000  0.4407140000000 1.0
C      1  0.4187860000000  0.5689550000000  0.5135520000000 1.0
C      1  0.4991160000000  0.4410980000000  0.4053490000000 1.0
C      1  0.5087940000000  0.5862400000000  0.4429960000000 1.0
C      1  0.5818260000000  0.5627490000000  0.5031010000000 1.0
C      1  0.5169640000000  0.4959850000000  0.5551330000000 1.0
C      1  0.5297680000000  0.4290600000000  0.4275600000000 1.0
C      1  0.4577480000000  0.5764260000000  0.5093310000000 1.0
C      1  0.5190640000000  0.4312660000000  0.5618330000000 1.0
C      1  0.5195900000000  0.5824080000000  0.5568130000000 1.0
C      1  0.4665400000000  0.5130930000000  0.5867570000000 1.0
C      1  0.4642710000000  0.5851520000000  0.5554440000000 1.0
C      1  0.5873790000000  0.4747600000000  0.4509910000000 1.0
C      1  0.4950300000000  0.5170920000000  0.5536990000000 1.0
C      1  0.4296160000000  0.4771580000000  0.5821650000000 1.0
C      1  0.4807510000000  0.4691580000000  0.5064110000000 1.0
C      1  0.4946360000000  0.4978340000000  0.5920730000000 1.0
C      1  0.4833740000000  0.4885850000000  0.4786290000000 1.0
C      1  0.4275620000000  0.4268810000000  0.5176120000000 1.0
C      1  0.4710080000000  0.5080190000000  0.5370900000000 1.0
C      1  0.5294590000000  0.5307580000000  0.5382300000000 1.0
C      1  0.5411000000000  0.4729750000000  0.4507210000000 1.0
C      1  0.5027150000000  0.6053130000000  0.5168000000000 1.0
C      1  0.5251180000000  0.5625300000000  0.5035010000000 1.0
C      1  0.5602030000000  0.4936790000000  0.4857270000000 1.0
C      1  0.5286450000000  0.5126170000000  0.4442490000000 1.0
C      1  0.5696650000000  0.5230990000000  0.4755250000000 1.0
C      1  0.4113090000000  0.5209700000000  0.5248930000000 1.0
C      1  0.5302700000000  0.5249910000000  0.4126210000000 1.0
C      1  0.4337070000000  0.5891340000000  0.4905990000000 1.0
C      1  0.5976790000000  0.5681280000000  0.4798050000000 1.0
C      1  0.4512140000000  0.4619200000000  0.5522180000000 1.0
C      1  0.4557320000000  0.4102520000000  0.5223400000000 1.0
C      1  0.5332480000000  0.4928920000000  0.5272330000000 1.0
C      1  0.4575810000000  0.4457030000000  0.4980970000000 1.0
C      1  0.4941940000000  0.4421500000000  0.5804050000000 1.0
C      1  0.5068550000000  0.5551700000000  0.4800510000000 1.0
C      1  0.5515230000000  0.4579960000000  0.5010240000000 1.0
C      1  0.5576710000000  0.4689080000000  0.5475830000000 1.0
C      1  0.5501910000000  0.5600860000000  0.4426370000000 1.0
C      1  0.6009960000000  0.5454290000000  0.4630160000000 1.0
C      1  0.4660850000000  0.5497700000000  0.5240480000000 1.0
C      1  0.5481500000000  0.5201620000000  0.5125650000000 1.0
C      1  0.4947500000000  0.4171620000000  0.5178630000000 1.0
C      1  0.5803400000000  0.4227810000000  0.4787800000000 1.0
C      1  0.4454150000000  0.5372510000000  0.4215170000000 1.0
C      1  0.4329740000000  0.4876880000000  0.4721840000000 1.0
C      1  0.5219740000000  0.4503420000000  0.5962880000000 1.0
C      1  0.4619970000000  0.5893070000000  0.4717050000000 1.0
C      1  0.5626110000000  0.4894930000000  0.4367410000000 1.0
C      1  0.4616900000000  0.3912350000000  0.4995140000000 1.0
C      1  0.5121910000000  0.6083230000000  0.4854340000000 1.0
C      1  0.4521240000000  0.5539450000000  0.4873170000000 1.0
C      1  0.4139110000000  0.4912930000000  0.5652200000000 1.0
C      1  0.5954560000000  0.5493820000000  0.5247250000000 1.0
C      1  0.4898230000000  0.5015420000000  0.3971790000000 1.0
C      1  0.4599850000000  0.5614530000000  0.4199980000000 1.0
C      1  0.5452240000000  0.5054620000000  0.5925740000000 1.0
C      1  0.4380690000000  0.5289420000000  0.4598270000000 1.0
C      1  0.6063180000000  0.4708760000000  0.5496090000000 1.0
C      1  0.4606930000000  0.5463110000000  0.5887170000000 1.0
C      1  0.4868740000000  0.5581200000000  0.4104280000000 1.0
C      1  0.5610460000000  0.4300990000000  0.5159140000000 1.0
C      1  0.4308030000000  0.4356320000000  0.5485990000000 1.0
C      1  0.5309850000000  0.4242390000000  0.4994650000000 1.0
C      1  0.4409850000000  0.4222090000000  0.4866890000000 1.0
C      1  0.5839920000000  0.4529160000000  0.5531030000000 1.0
C      1  0.6062570000000  0.5222740000000  0.5127070000000 1.0
C      1  0.5264740000000  0.5569360000000  0.5748830000000 1.0
C      1  0.4250340000000  0.5381720000000  0.5005110000000 1.0
C      1  0.5374840000000  0.4425070000000  0.4528750000000 1.0
C      1  0.4109990000000  0.5003780000000  0.4531000000000 1.0
C      1  0.3977000000000  0.5382730000000  0.4802820000000 1.0
C      1  0.5049500000000  0.4073070000000  0.4739960000000 1.0
C      1  0.5469290000000  0.5113100000000  0.5599900000000 1.0
C      1  0.6022830000000  0.5201360000000  0.4806320000000 1.0
C      1  0.5041300000000  0.4451300000000  0.5004380000000 1.0
C      1  0.4607300000000  0.4454930000000  0.4488790000000 1.0
C      1  0.4970630000000  0.5267950000000  0.4137810000000 1.0
C      1  0.5251550000000  0.4649800000000  0.5139640000000 1.0
C      1  0.4995960000000  0.5480420000000  0.5603720000000 1.0
C      1  0.5027530000000  0.4164970000000  0.4286340000000 1.0
C      1  0.4082680000000  0.4979280000000  0.5040770000000 1.0
C      1  0.5345930000000  0.5557880000000  0.4176450000000 1.0
C      1  0.4923710000000  0.3896830000000  0.4979630000000 1.0
C      1  0.4090780000000  0.5688130000000  0.4804650000000 1.0
C      1  0.4945840000000  0.4738170000000  0.5679970000000 1.0
C      1  0.5648390000000  0.4842500000000  0.5180770000000 1.0
C      1  0.4708710000000  0.4235620000000  0.5712140000000 1.0
C      1  0.4493410000000  0.4625160000000  0.4217260000000 1.0
C      1  0.5796630000000  0.5132560000000  0.5571170000000 1.0
C      1  0.4503130000000  0.5226900000000  0.5584430000000 1.0
C      1  0.5488090000000  0.5738090000000  0.5226780000000 1.0
C      1  0.4362180000000  0.4752720000000  0.3927850000000 1.0
C      1  0.4215000000000  0.5416290000000  0.5583110000000 1.0
C      1  0.4623030000000  0.4888970000000  0.3951380000000 1.0
C      1  0.5058850000000  0.4739030000000  0.4056640000000 1.0
C      1  0.5281920000000  0.5046930000000  0.4897370000000 1.0
C      1  0.5642060000000  0.4295660000000  0.5474960000000 1.0
C      1  0.4202230000000  0.5688850000000  0.5435620000000 1.0
C      1  0.5857260000000  0.4722270000000  0.4806020000000 1.0
C      1  0.5259820000000  0.4576550000000  0.5449570000000 1.0
C      1  0.6074580000000  0.4918180000000  0.4979270000000 1.0
C      1  0.5100360000000  0.5779810000000  0.5298010000000 1.0
C      1  0.4313700000000  0.4333620000000  0.4576900000000 1.0
C      1  0.4745890000000  0.5209950000000  0.5080500000000 1.0
C      1  0.4463170000000  0.5141150000000  0.4893230000000 1.0
C      1  0.4659260000000  0.4415750000000  0.5307980000000 1.0
C      1  0.5616580000000  0.5201460000000  0.4454430000000 1.0
C      1  0.5805210000000  0.5447910000000  0.5507120000000 1.0
C      1  0.4318590000000  0.5030090000000  0.5409500000000 1.0
C      1  0.5414940000000  0.5357290000000  0.5960080000000 1.0
C      1  0.5538220000000  0.5475130000000  0.4931320000000 1.0
C      1  0.5233300000000  0.5429000000000  0.4537890000000 1.0
C      1  0.4212050000000  0.4558690000000  0.4745710000000 1.0
C      1  0.3990770000000  0.5186210000000  0.5565540000000 1.0
C      1  0.4792950000000  0.4077350000000  0.5467220000000 1.0
C      1  0.4653370000000  0.4061410000000  0.4691500000000 1.0
C      1  0.4332120000000  0.5490560000000  0.5876020000000 1.0
C      1  0.6040740000000  0.4945880000000  0.5634410000000 1.0
C      1  0.5863120000000  0.5400990000000  0.4404790000000 1.0
C      1  0.4208370000000  0.5189130000000  0.4322590000000 1.0
C      1  0.5254530000000  0.5919440000000  0.4670020000000 1.0
C      1  0.4970870000000  0.4840780000000  0.4340590000000 1.0
C      1  0.4790050000000  0.6060290000000  0.4931820000000 1.0
C      1  0.5604320000000  0.5548720000000  0.5761910000000 1.0
C      1  0.5886320000000  0.4440960000000  0.5000390000000 1.0
C      1  0.5116860000000  0.4077820000000  0.5458140000000 1.0
C      1  0.5461290000000  0.5712930000000  0.4700540000000 1.0
C      1  0.4623370000000  0.4807450000000  0.5763180000000 1.0
C      1  0.5363410000000  0.4753060000000  0.3984460000000 1.0
C      1  0.3999040000000  0.5090270000000  0.4791610000000 1.0
C      1  0.4961520000000  0.5486340000000  0.5273070000000 1.0
C      1  0.4702810000000  0.4362930000000  0.4169240000000 1.0
C      1  0.4515480000000  0.5789600000000  0.4409860000000 1.0
C      1  0.4795320000000  0.5410260000000  0.4830850000000 1.0
C      1  0.5473160000000  0.4415000000000  0.5746140000000 1.0
C      1  0.4866010000000  0.5706060000000  0.4575210000000 1.0
C      1  0.5327840000000  0.4449770000000  0.4022320000000 1.0
C      1  0.5508710000000  0.5547660000000  0.5435610000000 1.0
C      1  0.4914100000000  0.5389560000000  0.4450680000000 1.0
C      1  0.4929860000000  0.4610950000000  0.5373720000000 1.0
C      1  0.4227090000000  0.4755840000000  0.5134790000000 1.0
C      1  0.4181520000000  0.4514890000000  0.5015070000000 1.0
C      1  0.5137470000000  0.4887400000000  0.4633450000000 1.0
C      1  0.5112770000000  0.5725610000000  0.4178660000000 1.0
C      1  0.5485770000000  0.4974830000000  0.4101690000000 1.0
C      1  0.5240320000000  0.3947100000000  0.5025720000000 1.0
C      1  0.4781490000000  0.5157580000000  0.4652020000000 1.0
C      1  0.5105080000000  0.4543820000000  0.4683360000000 1.0
C      1  0.4588340000000  0.4690880000000  0.4730740000000 1.0
C      1  0.4437400000000  0.4254360000000  0.5722600000000 1.0
C      1  0.4866090000000  0.4325660000000  0.4667550000000 1.0
C      1  0.5086430000000  0.5216300000000  0.5128450000000 1.0
END
