TITL C-2848501-3133-621 0.00187455222691758 125000 -988.924816234111 0 0 190 (C1) n - 1
REM
REM in /home/bkarasulu/work/CARBON/AIRSS/Generating-Clusters/AIREBO/with-SteepDescent/Only-C1/SD-CG-opt/Try1-1.4A-POS3A/HFTN-CG
REM
REM
REM
REM
REM
REM ./C.cell (11c1c37f851c82e70ff6c80c92926a4b)
REM
REM compiler GCC version 9.2.1 20190827 (Red Hat 9.2.1-1)
REM options -cpp -mtune=generic -march=x86-64 -g -O0 -fpre-include=/usr/include/finclude/math-vector-fortran.h
REM seed -1086440056 975408959 757242422 213555259 575231787 1054359792 703184357 -1000791821 -627251082 -1597072534 754440891 -1735781591 1954549344 -1885916483 -881621186 598206173 1862606042 840431575 -1709463985 512902625 520510812 275765178 2015259163 1424736165 617157931 279497795 4086717 1223716448 158376785 237754239 767437863 637144565 -210418927
REM
CELL 1.54180   50.00000   50.00000   50.00000   90.00000   90.00000   90.00000
LATT -1
SFAC C  
C      1  0.4980000000000  0.5097630000000  0.6075060000000 1.0
C      1  0.4800710000000  0.5661320000000  0.4708480000000 1.0
C      1  0.4632660000000  0.6046230000000  0.5056390000000 1.0
C      1  0.5108510000000  0.4989320000000  0.3961290000000 1.0
C      1  0.4435230000000  0.5773020000000  0.5812870000000 1.0
C      1  0.5362350000000  0.4829980000000  0.4604460000000 1.0
C      1  0.6137220000000  0.4983090000000  0.5133140000000 1.0
C      1  0.5585880000000  0.5876200000000  0.5444030000000 1.0
C      1  0.5261550000000  0.4539970000000  0.4471650000000 1.0
C      1  0.5018600000000  0.5438370000000  0.5486880000000 1.0
C      1  0.5414050000000  0.5153230000000  0.4962250000000 1.0
C      1  0.4585150000000  0.5108010000000  0.4296660000000 1.0
C      1  0.4482860000000  0.5419320000000  0.4714370000000 1.0
C      1  0.4383460000000  0.4634580000000  0.4478280000000 1.0
C      1  0.5703980000000  0.4743020000000  0.5942710000000 1.0
C      1  0.4660820000000  0.4605330000000  0.5614310000000 1.0
C      1  0.4318320000000  0.5457260000000  0.4113360000000 1.0
C      1  0.4820360000000  0.5503760000000  0.4101940000000 1.0
C      1  0.4489060000000  0.4940400000000  0.4542680000000 1.0
C      1  0.5687330000000  0.5667470000000  0.5670120000000 1.0
C      1  0.5144130000000  0.5488410000000  0.4817080000000 1.0
C      1  0.5432930000000  0.5602260000000  0.4792840000000 1.0
C      1  0.4851450000000  0.4256130000000  0.4133700000000 1.0
C      1  0.4620250000000  0.4997780000000  0.5574380000000 1.0
C      1  0.4472410000000  0.5746760000000  0.5475930000000 1.0
C      1  0.4353020000000  0.5799610000000  0.5201690000000 1.0
C      1  0.4206780000000  0.5442220000000  0.4517180000000 1.0
C      1  0.4084660000000  0.4521700000000  0.5262000000000 1.0
C      1  0.4911510000000  0.4409240000000  0.4876100000000 1.0
C      1  0.5424790000000  0.5322260000000  0.5986910000000 1.0
C      1  0.4289710000000  0.4829540000000  0.5712870000000 1.0
C      1  0.5018730000000  0.5658640000000  0.5810750000000 1.0
C      1  0.6079660000000  0.5399140000000  0.4234310000000 1.0
C      1  0.5449080000000  0.4631980000000  0.4867070000000 1.0
C      1  0.4257760000000  0.4811930000000  0.4142760000000 1.0
C      1  0.4803370000000  0.4927110000000  0.4573680000000 1.0
C      1  0.4938910000000  0.6006580000000  0.4957200000000 1.0
C      1  0.5422670000000  0.4604780000000  0.4178690000000 1.0
C      1  0.4094600000000  0.5711470000000  0.5142920000000 1.0
C      1  0.5702760000000  0.4462940000000  0.5030130000000 1.0
C      1  0.4125990000000  0.5232230000000  0.4295270000000 1.0
C      1  0.5949740000000  0.4975380000000  0.5405700000000 1.0
C      1  0.4738490000000  0.5334130000000  0.4922200000000 1.0
C      1  0.5450250000000  0.5041470000000  0.4346490000000 1.0
C      1  0.5430740000000  0.4180980000000  0.4449050000000 1.0
C      1  0.6127780000000  0.5284460000000  0.4854270000000 1.0
C      1  0.4848790000000  0.5460060000000  0.4437990000000 1.0
C      1  0.3952600000000  0.5669610000000  0.4867060000000 1.0
C      1  0.5351730000000  0.5640690000000  0.4404040000000 1.0
C      1  0.4298280000000  0.5506300000000  0.5652490000000 1.0
C      1  0.5747800000000  0.4660530000000  0.4264200000000 1.0
C      1  0.5896630000000  0.5222770000000  0.5096090000000 1.0
C      1  0.3994910000000  0.5113660000000  0.4585780000000 1.0
C      1  0.4233580000000  0.4258070000000  0.4738840000000 1.0
C      1  0.4798830000000  0.5110800000000  0.4032210000000 1.0
C      1  0.4921770000000  0.4421940000000  0.5887530000000 1.0
C      1  0.5435900000000  0.4279800000000  0.4187360000000 1.0
C      1  0.6081890000000  0.5118600000000  0.4636560000000 1.0
C      1  0.4548960000000  0.4507660000000  0.4739790000000 1.0
C      1  0.5821620000000  0.4514670000000  0.4496520000000 1.0
C      1  0.5877830000000  0.5604040000000  0.5436920000000 1.0
C      1  0.5353350000000  0.5819950000000  0.4135780000000 1.0
C      1  0.4481390000000  0.4480720000000  0.6041680000000 1.0
C      1  0.3823050000000  0.4645400000000  0.4317960000000 1.0
C      1  0.4769290000000  0.4663110000000  0.5052040000000 1.0
C      1  0.4534820000000  0.4217630000000  0.5631750000000 1.0
C      1  0.5672460000000  0.4510880000000  0.5696190000000 1.0
C      1  0.5142630000000  0.4934850000000  0.4366900000000 1.0
C      1  0.4876110000000  0.6112010000000  0.5278920000000 1.0
C      1  0.4201010000000  0.4523000000000  0.4950850000000 1.0
C      1  0.5359300000000  0.4141460000000  0.5554830000000 1.0
C      1  0.5162820000000  0.4726030000000  0.4006930000000 1.0
C      1  0.4880640000000  0.5234350000000  0.4659340000000 1.0
C      1  0.5153620000000  0.3847870000000  0.4766720000000 1.0
C      1  0.4583170000000  0.5807700000000  0.4390680000000 1.0
C      1  0.5078550000000  0.3944450000000  0.5014530000000 1.0
C      1  0.5595520000000  0.5049950000000  0.4717930000000 1.0
C      1  0.4027340000000  0.5394540000000  0.5039690000000 1.0
C      1  0.5585150000000  0.4404400000000  0.4653720000000 1.0
C      1  0.4515540000000  0.4662100000000  0.4170340000000 1.0
C      1  0.5805740000000  0.4481230000000  0.5354050000000 1.0
C      1  0.4075250000000  0.4032700000000  0.4903390000000 1.0
C      1  0.4054440000000  0.4566570000000  0.4382760000000 1.0
C      1  0.4908040000000  0.4755680000000  0.5880470000000 1.0
C      1  0.5880910000000  0.4912500000000  0.4226470000000 1.0
C      1  0.5792280000000  0.5383200000000  0.4321050000000 1.0
C      1  0.4908430000000  0.4691200000000  0.4370570000000 1.0
C      1  0.4814980000000  0.5654050000000  0.5292370000000 1.0
C      1  0.4128330000000  0.4924810000000  0.5166620000000 1.0
C      1  0.5232940000000  0.5491360000000  0.5228240000000 1.0
C      1  0.5452790000000  0.5211770000000  0.5408480000000 1.0
C      1  0.5971750000000  0.4622620000000  0.4705500000000 1.0
C      1  0.5331710000000  0.5862810000000  0.5631310000000 1.0
C      1  0.4850580000000  0.4804890000000  0.5414830000000 1.0
C      1  0.5860920000000  0.4173730000000  0.4946720000000 1.0
C      1  0.4490970000000  0.5039440000000  0.5051600000000 1.0
C      1  0.5328980000000  0.5983720000000  0.4750630000000 1.0
C      1  0.3912830000000  0.4766930000000  0.5344990000000 1.0
C      1  0.4744190000000  0.5049800000000  0.5204080000000 1.0
C      1  0.5338130000000  0.4547720000000  0.5643160000000 1.0
C      1  0.5112380000000  0.5759640000000  0.4614410000000 1.0
C      1  0.4322060000000  0.4378550000000  0.5459190000000 1.0
C      1  0.5467060000000  0.4240310000000  0.4927140000000 1.0
C      1  0.5411880000000  0.4247910000000  0.5249200000000 1.0
C      1  0.5044140000000  0.5266840000000  0.5055300000000 1.0
C      1  0.4093250000000  0.5051660000000  0.5730210000000 1.0
C      1  0.4142550000000  0.4554020000000  0.5655990000000 1.0
C      1  0.4082100000000  0.5107480000000  0.4880990000000 1.0
C      1  0.5486150000000  0.4562170000000  0.5347930000000 1.0
C      1  0.5040950000000  0.5755930000000  0.4160040000000 1.0
C      1  0.5206250000000  0.5451150000000  0.4174570000000 1.0
C      1  0.4629280000000  0.4010030000000  0.5194410000000 1.0
C      1  0.5663390000000  0.5084100000000  0.5942750000000 1.0
C      1  0.4639470000000  0.4306980000000  0.5879800000000 1.0
C      1  0.4568660000000  0.4769460000000  0.5897610000000 1.0
C      1  0.5196240000000  0.4006990000000  0.5281730000000 1.0
C      1  0.4892720000000  0.4570470000000  0.4074200000000 1.0
C      1  0.5678120000000  0.3971440000000  0.4890880000000 1.0
C      1  0.5325010000000  0.5994630000000  0.5060690000000 1.0
C      1  0.4671580000000  0.5039790000000  0.6079760000000 1.0
C      1  0.4477990000000  0.4359020000000  0.5038450000000 1.0
C      1  0.5100240000000  0.5799700000000  0.5173660000000 1.0
C      1  0.5199000000000  0.5084430000000  0.5590030000000 1.0
C      1  0.5624890000000  0.5862960000000  0.4721840000000 1.0
C      1  0.4418560000000  0.5747820000000  0.4648830000000 1.0
C      1  0.4835420000000  0.4179690000000  0.4419480000000 1.0
C      1  0.4975480000000  0.4520790000000  0.5275390000000 1.0
C      1  0.4091570000000  0.5700150000000  0.4633630000000 1.0
C      1  0.5595380000000  0.4200560000000  0.5717210000000 1.0
C      1  0.4572270000000  0.5728410000000  0.4951580000000 1.0
C      1  0.4378700000000  0.4850650000000  0.5384940000000 1.0
C      1  0.5161050000000  0.4617620000000  0.6030560000000 1.0
C      1  0.5532460000000  0.5461130000000  0.5069900000000 1.0
C      1  0.5186580000000  0.4795560000000  0.5466130000000 1.0
C      1  0.4456490000000  0.4747370000000  0.4948390000000 1.0
C      1  0.4819010000000  0.4459150000000  0.4571660000000 1.0
C      1  0.5640390000000  0.5526510000000  0.4544630000000 1.0
C      1  0.4897410000000  0.5068130000000  0.5746560000000 1.0
C      1  0.4156630000000  0.5292810000000  0.5517230000000 1.0
C      1  0.5133230000000  0.4070210000000  0.4542360000000 1.0
C      1  0.5072410000000  0.5934450000000  0.5484600000000 1.0
C      1  0.5034100000000  0.5321870000000  0.3906630000000 1.0
C      1  0.4549630000000  0.5456470000000  0.5866200000000 1.0
C      1  0.5686780000000  0.5131840000000  0.4257170000000 1.0
C      1  0.4754270000000  0.5325650000000  0.5321250000000 1.0
C      1  0.5811420000000  0.5886150000000  0.4934580000000 1.0
C      1  0.3910790000000  0.5044500000000  0.5478280000000 1.0
C      1  0.4976370000000  0.4932820000000  0.5034910000000 1.0
C      1  0.5254630000000  0.4668610000000  0.5147440000000 1.0
C      1  0.5807650000000  0.4786380000000  0.5027200000000 1.0
C      1  0.4383330000000  0.5115830000000  0.4756390000000 1.0
C      1  0.5201530000000  0.4334590000000  0.4736130000000 1.0
C      1  0.4329350000000  0.4055720000000  0.5067440000000 1.0
C      1  0.5733530000000  0.5342610000000  0.4822520000000 1.0
C      1  0.4539180000000  0.5616450000000  0.4176690000000 1.0
C      1  0.4549460000000  0.4570670000000  0.5294870000000 1.0
C      1  0.5008150000000  0.5201970000000  0.4284250000000 1.0
C      1  0.4818980000000  0.5398960000000  0.5751150000000 1.0
C      1  0.5377820000000  0.4817850000000  0.6003220000000 1.0
C      1  0.4997060000000  0.4243650000000  0.5421510000000 1.0
C      1  0.5877930000000  0.4930110000000  0.4729290000000 1.0
C      1  0.5015780000000  0.6083530000000  0.4652710000000 1.0
C      1  0.5214090000000  0.5186020000000  0.4705490000000 1.0
C      1  0.4532530000000  0.4146620000000  0.4571780000000 1.0
C      1  0.5444180000000  0.5507290000000  0.5494380000000 1.0
C      1  0.5470330000000  0.4945970000000  0.5702040000000 1.0
C      1  0.4846230000000  0.4127130000000  0.4980300000000 1.0
C      1  0.4887370000000  0.5895100000000  0.4398010000000 1.0
C      1  0.4512180000000  0.5260800000000  0.6096350000000 1.0
C      1  0.5129290000000  0.4314160000000  0.5700060000000 1.0
C      1  0.5731780000000  0.5712710000000  0.5182620000000 1.0
C      1  0.4786740000000  0.5789990000000  0.5599230000000 1.0
C      1  0.6088680000000  0.5117110000000  0.4354970000000 1.0
C      1  0.6073130000000  0.5215630000000  0.5691910000000 1.0
C      1  0.4643070000000  0.4695720000000  0.3907310000000 1.0
C      1  0.6138640000000  0.4740010000000  0.4959190000000 1.0
C      1  0.4575340000000  0.4020680000000  0.4849070000000 1.0
C      1  0.5260050000000  0.5096190000000  0.6097200000000 1.0
C      1  0.5636060000000  0.4845160000000  0.5462360000000 1.0
C      1  0.4263250000000  0.5233450000000  0.5213420000000 1.0
C      1  0.4279410000000  0.4315170000000  0.4425370000000 1.0
C      1  0.4354510000000  0.5122040000000  0.4068790000000 1.0
C      1  0.5065600000000  0.4896680000000  0.4756490000000 1.0
C      1  0.6032210000000  0.4659100000000  0.5379220000000 1.0
C      1  0.4722710000000  0.4100660000000  0.5455770000000 1.0
C      1  0.4516790000000  0.5443830000000  0.5129360000000 1.0
C      1  0.4563370000000  0.4988240000000  0.3827310000000 1.0
C      1  0.5326100000000  0.5562830000000  0.5797620000000 1.0
C      1  0.5921660000000  0.5313800000000  0.5422750000000 1.0
C      1  0.5627240000000  0.5032050000000  0.5178390000000 1.0
END
