TITL C-2848503-6230-630 -0.00200493423995409 125000 -758.214715151392 0 0 141 (C1) n - 1
REM
REM in /home/bkarasulu/work/CARBON/AIRSS/Generating-Clusters/AIREBO/with-SteepDescent/Only-C1/SD-CG-opt/Try1-1.4A-POS3A/HFTN-CG
REM
REM
REM
REM
REM
REM ./C.cell (11c1c37f851c82e70ff6c80c92926a4b)
REM
REM compiler GCC version 9.2.1 20190827 (Red Hat 9.2.1-1)
REM options -cpp -mtune=generic -march=x86-64 -g -O0 -fpre-include=/usr/include/finclude/math-vector-fortran.h
REM seed -1857983135 2078478319 -1933601163 -79251106 1499428967 2134389798 -429420645 267584768 -958995786 1446744848 -1311643798 -1219114954 666248387 -370892487 -890413543 -6144469 1528647054 962067032 -412295390 1900675474 -293776093 18029667 -304764437 1079769765 -1391553127 -405914335 -1443356871 -1924053360 556108001 -956888173 144498772 247282470 -104900842
REM
CELL 1.54180   50.00000   50.00000   50.00000   90.00000   90.00000   90.00000
LATT -1
SFAC C  
C      1  0.5423640000000  0.5840810000000  0.5415450000000 1.0
C      1  0.5016930000000  0.5742150000000  0.5706380000000 1.0
C      1  0.4928980000000  0.5226850000000  0.5455790000000 1.0
C      1  0.4743740000000  0.5221200000000  0.6112820000000 1.0
C      1  0.3967260000000  0.4638180000000  0.5566660000000 1.0
C      1  0.4999360000000  0.4600240000000  0.4630740000000 1.0
C      1  0.4270720000000  0.4735070000000  0.4919580000000 1.0
C      1  0.4548510000000  0.4646920000000  0.4782430000000 1.0
C      1  0.4418370000000  0.5294580000000  0.4374850000000 1.0
C      1  0.4395320000000  0.5492110000000  0.5670180000000 1.0
C      1  0.5958340000000  0.5119530000000  0.5408550000000 1.0
C      1  0.5777770000000  0.4937730000000  0.4330780000000 1.0
C      1  0.5759580000000  0.5153580000000  0.4459340000000 1.0
C      1  0.4967800000000  0.4433590000000  0.5074510000000 1.0
C      1  0.5283050000000  0.4559900000000  0.4269800000000 1.0
C      1  0.4563790000000  0.4985260000000  0.4814820000000 1.0
C      1  0.5453620000000  0.4328090000000  0.4720320000000 1.0
C      1  0.5279480000000  0.5977610000000  0.5139520000000 1.0
C      1  0.4899750000000  0.4426480000000  0.5963340000000 1.0
C      1  0.5529670000000  0.5513950000000  0.4330100000000 1.0
C      1  0.4776020000000  0.4882700000000  0.5022400000000 1.0
C      1  0.5589210000000  0.5765470000000  0.4525550000000 1.0
C      1  0.4562420000000  0.4271510000000  0.5579400000000 1.0
C      1  0.3990850000000  0.4552480000000  0.4856420000000 1.0
C      1  0.5083660000000  0.4934720000000  0.4903370000000 1.0
C      1  0.5639930000000  0.4375410000000  0.5111850000000 1.0
C      1  0.5309280000000  0.4034950000000  0.4771720000000 1.0
C      1  0.5811450000000  0.4374120000000  0.4883990000000 1.0
C      1  0.5618260000000  0.4248050000000  0.4433670000000 1.0
C      1  0.5482880000000  0.5565900000000  0.5766430000000 1.0
C      1  0.5155590000000  0.5697040000000  0.5065850000000 1.0
C      1  0.4616430000000  0.5353530000000  0.5832240000000 1.0
C      1  0.5318620000000  0.4367020000000  0.5556370000000 1.0
C      1  0.4792880000000  0.5302580000000  0.5174900000000 1.0
C      1  0.5337850000000  0.4275510000000  0.4342040000000 1.0
C      1  0.4703710000000  0.5001310000000  0.5494160000000 1.0
C      1  0.5288270000000  0.5645650000000  0.4527920000000 1.0
C      1  0.4937870000000  0.4162900000000  0.5394280000000 1.0
C      1  0.4741800000000  0.4625120000000  0.5178340000000 1.0
C      1  0.4857860000000  0.5410050000000  0.4661960000000 1.0
C      1  0.4326940000000  0.4561470000000  0.4557920000000 1.0
C      1  0.4419590000000  0.5749970000000  0.5221300000000 1.0
C      1  0.4169520000000  0.5425850000000  0.4268480000000 1.0
C      1  0.3955940000000  0.4760440000000  0.4676430000000 1.0
C      1  0.4305430000000  0.5274340000000  0.5226860000000 1.0
C      1  0.4849760000000  0.3905090000000  0.4886140000000 1.0
C      1  0.5948970000000  0.4835640000000  0.5402830000000 1.0
C      1  0.4890080000000  0.5928220000000  0.4687140000000 1.0
C      1  0.5673690000000  0.4557690000000  0.5806520000000 1.0
C      1  0.5494080000000  0.5032000000000  0.5545480000000 1.0
C      1  0.5135650000000  0.5914210000000  0.5505010000000 1.0
C      1  0.4909850000000  0.5551340000000  0.4053600000000 1.0
C      1  0.4656850000000  0.5812610000000  0.4905970000000 1.0
C      1  0.5770840000000  0.5220200000000  0.5606020000000 1.0
C      1  0.5546600000000  0.5788650000000  0.5045130000000 1.0
C      1  0.4963180000000  0.5986230000000  0.5267900000000 1.0
C      1  0.5311080000000  0.5348580000000  0.4961040000000 1.0
C      1  0.5199720000000  0.5099050000000  0.5965690000000 1.0
C      1  0.4186840000000  0.4645650000000  0.5440570000000 1.0
C      1  0.5414410000000  0.4951050000000  0.4825370000000 1.0
C      1  0.4075830000000  0.5177950000000  0.4995240000000 1.0
C      1  0.4434910000000  0.4609850000000  0.4296680000000 1.0
C      1  0.5895490000000  0.5215640000000  0.5151190000000 1.0
C      1  0.4867150000000  0.5624990000000  0.5096300000000 1.0
C      1  0.5172990000000  0.4133680000000  0.4511890000000 1.0
C      1  0.4066120000000  0.5477410000000  0.4921700000000 1.0
C      1  0.4539340000000  0.5294500000000  0.4692660000000 1.0
C      1  0.5475050000000  0.4364280000000  0.5796980000000 1.0
C      1  0.4698440000000  0.4426960000000  0.4242620000000 1.0
C      1  0.5157430000000  0.4107510000000  0.5204910000000 1.0
C      1  0.4292380000000  0.5528310000000  0.4699660000000 1.0
C      1  0.5317660000000  0.4878670000000  0.4351540000000 1.0
C      1  0.5331880000000  0.5080910000000  0.4122060000000 1.0
C      1  0.3837310000000  0.5074010000000  0.5104270000000 1.0
C      1  0.5059060000000  0.5670170000000  0.4748920000000 1.0
C      1  0.4350810000000  0.5516740000000  0.5393290000000 1.0
C      1  0.4179140000000  0.4998270000000  0.4724730000000 1.0
C      1  0.5082250000000  0.4919090000000  0.4563600000000 1.0
C      1  0.4404420000000  0.4968950000000  0.4470080000000 1.0
C      1  0.4606420000000  0.5137360000000  0.4170280000000 1.0
C      1  0.5010720000000  0.5215390000000  0.4450640000000 1.0
C      1  0.4612660000000  0.5036100000000  0.5785090000000 1.0
C      1  0.4931130000000  0.4117410000000  0.4672220000000 1.0
C      1  0.5137690000000  0.3946820000000  0.4976410000000 1.0
C      1  0.5986340000000  0.4722150000000  0.5155220000000 1.0
C      1  0.5756670000000  0.4768330000000  0.4919940000000 1.0
C      1  0.5680840000000  0.4572860000000  0.4656460000000 1.0
C      1  0.5589240000000  0.4696290000000  0.4393960000000 1.0
C      1  0.4893890000000  0.5421810000000  0.5712480000000 1.0
C      1  0.4986260000000  0.4801900000000  0.3997680000000 1.0
C      1  0.4398060000000  0.4869930000000  0.4144240000000 1.0
C      1  0.4895880000000  0.5251290000000  0.4155130000000 1.0
C      1  0.4885530000000  0.5994350000000  0.4420200000000 1.0
C      1  0.5891890000000  0.5452560000000  0.5017880000000 1.0
C      1  0.5257150000000  0.5345810000000  0.4625260000000 1.0
C      1  0.4720480000000  0.4883470000000  0.4351450000000 1.0
C      1  0.4954110000000  0.4642540000000  0.4296360000000 1.0
C      1  0.4786480000000  0.4240520000000  0.5833700000000 1.0
C      1  0.5488760000000  0.5314090000000  0.4144640000000 1.0
C      1  0.4610510000000  0.4284670000000  0.4520640000000 1.0
C      1  0.5183720000000  0.5094950000000  0.5421550000000 1.0
C      1  0.4317550000000  0.4253180000000  0.4576800000000 1.0
C      1  0.4358800000000  0.4787290000000  0.5200190000000 1.0
C      1  0.5563760000000  0.5222540000000  0.4685080000000 1.0
C      1  0.5705040000000  0.5493940000000  0.5602300000000 1.0
C      1  0.5621870000000  0.5586140000000  0.5307980000000 1.0
C      1  0.5637080000000  0.5062170000000  0.5042700000000 1.0
C      1  0.4780180000000  0.4397100000000  0.4793170000000 1.0
C      1  0.4491240000000  0.5754040000000  0.4624190000000 1.0
C      1  0.5015100000000  0.4746140000000  0.5952780000000 1.0
C      1  0.4837930000000  0.5756900000000  0.4231840000000 1.0
C      1  0.5604570000000  0.5489920000000  0.4893400000000 1.0
C      1  0.5524460000000  0.5259250000000  0.5293980000000 1.0
C      1  0.5204570000000  0.5484060000000  0.5588810000000 1.0
C      1  0.5695680000000  0.4757270000000  0.5547810000000 1.0
C      1  0.5302290000000  0.4628310000000  0.4771430000000 1.0
C      1  0.5682600000000  0.5857800000000  0.4757950000000 1.0
C      1  0.4592320000000  0.5479840000000  0.4958430000000 1.0
C      1  0.4704130000000  0.5641980000000  0.4466570000000 1.0
C      1  0.5564840000000  0.4693920000000  0.5175900000000 1.0
C      1  0.4552170000000  0.5060170000000  0.5207010000000 1.0
C      1  0.5077620000000  0.5061060000000  0.4006830000000 1.0
C      1  0.5200590000000  0.4782090000000  0.5426110000000 1.0
C      1  0.4716180000000  0.4268620000000  0.4014580000000 1.0
C      1  0.4788340000000  0.4698170000000  0.5489180000000 1.0
C      1  0.4673730000000  0.4140490000000  0.4994970000000 1.0
C      1  0.5041880000000  0.4486500000000  0.5402200000000 1.0
C      1  0.4945920000000  0.5043370000000  0.6103090000000 1.0
C      1  0.5300000000000  0.4373520000000  0.5120050000000 1.0
C      1  0.5008060000000  0.5250690000000  0.4922110000000 1.0
C      1  0.4685730000000  0.5961340000000  0.5210380000000 1.0
C      1  0.5255410000000  0.4878740000000  0.5747500000000 1.0
C      1  0.5580190000000  0.4473460000000  0.5426920000000 1.0
C      1  0.5248970000000  0.5457980000000  0.5276910000000 1.0
C      1  0.4667760000000  0.4158710000000  0.5276420000000 1.0
C      1  0.4685700000000  0.4783000000000  0.5900920000000 1.0
C      1  0.5327570000000  0.5318360000000  0.5878140000000 1.0
C      1  0.4610830000000  0.4574290000000  0.5709540000000 1.0
C      1  0.4273420000000  0.5719930000000  0.4980220000000 1.0
C      1  0.5250490000000  0.4710460000000  0.5097470000000 1.0
C      1  0.4473820000000  0.4500640000000  0.5344210000000 1.0
END
