TITL C-2848504-8560-11 0.00254015075769348 125000 -877.478156856347 0 0 164 (C1) n - 1
REM
REM in /home/bkarasulu/work/CARBON/AIRSS/Generating-Clusters/AIREBO/with-SteepDescent/Only-C1/SD-CG-opt/Try1-1.4A-POS3A/HFTN-CG
REM
REM
REM
REM
REM
REM ./C.cell (11c1c37f851c82e70ff6c80c92926a4b)
REM
REM compiler GCC version 9.2.1 20190827 (Red Hat 9.2.1-1)
REM options -cpp -mtune=generic -march=x86-64 -g -O0 -fpre-include=/usr/include/finclude/math-vector-fortran.h
REM seed 2082491931 1024542063 -420931146 1078823999 560670593 -1536175416 1825240305 1663735402 -305014930 1828893779 -1241172564 744893792 205631907 2067214194 1821453380 -815891297 -25348749 -811658668 -514524339 586054666 -1040091980 -968535385 540432123 1668149403 -1484271849 1755404087 -1509428699 1087607896 -1016350538 -1615073528 157678833 522197166 -695573677
REM
CELL 1.54180   50.00000   50.00000   50.00000   90.00000   90.00000   90.00000
LATT -1
SFAC C  
C      1  0.4740220000000  0.5423460000000  0.4420000000000 1.0
C      1  0.4726700000000  0.4975320000000  0.5694010000000 1.0
C      1  0.5563000000000  0.5800860000000  0.4714950000000 1.0
C      1  0.4964470000000  0.5710440000000  0.5170080000000 1.0
C      1  0.4577020000000  0.5601770000000  0.5299050000000 1.0
C      1  0.5632560000000  0.5148590000000  0.5799350000000 1.0
C      1  0.5126150000000  0.5964660000000  0.5311550000000 1.0
C      1  0.4862250000000  0.4998780000000  0.4726590000000 1.0
C      1  0.5210420000000  0.4850530000000  0.4441710000000 1.0
C      1  0.5038970000000  0.5368500000000  0.3995850000000 1.0
C      1  0.5925350000000  0.5286480000000  0.5565860000000 1.0
C      1  0.4338590000000  0.5005360000000  0.4819260000000 1.0
C      1  0.4773430000000  0.5527630000000  0.6040480000000 1.0
C      1  0.5749380000000  0.5233140000000  0.5300930000000 1.0
C      1  0.4389970000000  0.4114800000000  0.5811210000000 1.0
C      1  0.5643440000000  0.4232740000000  0.5442500000000 1.0
C      1  0.5525510000000  0.4684620000000  0.5547350000000 1.0
C      1  0.5305810000000  0.5521680000000  0.4837830000000 1.0
C      1  0.4783340000000  0.5792030000000  0.4273120000000 1.0
C      1  0.4280130000000  0.4764970000000  0.5005170000000 1.0
C      1  0.5339200000000  0.5015060000000  0.4173390000000 1.0
C      1  0.4460090000000  0.5130990000000  0.5580580000000 1.0
C      1  0.4108830000000  0.4658610000000  0.5227870000000 1.0
C      1  0.4291030000000  0.5213330000000  0.4071220000000 1.0
C      1  0.5552120000000  0.5295070000000  0.4524930000000 1.0
C      1  0.4624390000000  0.4224750000000  0.4454790000000 1.0
C      1  0.4695860000000  0.5899760000000  0.5259880000000 1.0
C      1  0.5053500000000  0.5769460000000  0.5554580000000 1.0
C      1  0.5303150000000  0.5110850000000  0.4640040000000 1.0
C      1  0.4367000000000  0.4906580000000  0.4075620000000 1.0
C      1  0.5066510000000  0.4291990000000  0.5584040000000 1.0
C      1  0.5515960000000  0.5584690000000  0.5609610000000 1.0
C      1  0.5644070000000  0.4929660000000  0.4263400000000 1.0
C      1  0.4693130000000  0.5051640000000  0.6011050000000 1.0
C      1  0.4845910000000  0.5310310000000  0.4867380000000 1.0
C      1  0.4607750000000  0.5625900000000  0.4982030000000 1.0
C      1  0.5727790000000  0.4322260000000  0.4687240000000 1.0
C      1  0.5156960000000  0.4140300000000  0.4735440000000 1.0
C      1  0.4325820000000  0.5537220000000  0.5515320000000 1.0
C      1  0.4285400000000  0.4651350000000  0.4179740000000 1.0
C      1  0.4203210000000  0.5123220000000  0.5367010000000 1.0
C      1  0.4008650000000  0.5382920000000  0.4718340000000 1.0
C      1  0.4549880000000  0.5680840000000  0.5689940000000 1.0
C      1  0.4227660000000  0.4508610000000  0.4662730000000 1.0
C      1  0.4135710000000  0.5576060000000  0.4569910000000 1.0
C      1  0.4649220000000  0.4577990000000  0.5360000000000 1.0
C      1  0.5186600000000  0.5084480000000  0.5522260000000 1.0
C      1  0.5070490000000  0.5455070000000  0.5907990000000 1.0
C      1  0.4830110000000  0.4498110000000  0.4116220000000 1.0
C      1  0.4976810000000  0.5632290000000  0.4503050000000 1.0
C      1  0.5541130000000  0.5626610000000  0.4504000000000 1.0
C      1  0.4349060000000  0.5360310000000  0.5805830000000 1.0
C      1  0.5657380000000  0.5869380000000  0.5367360000000 1.0
C      1  0.5475880000000  0.4313670000000  0.5161090000000 1.0
C      1  0.5422560000000  0.4309570000000  0.4605740000000 1.0
C      1  0.5305170000000  0.5386890000000  0.5449630000000 1.0
C      1  0.4923590000000  0.4198320000000  0.4976150000000 1.0
C      1  0.4101380000000  0.4635390000000  0.4383080000000 1.0
C      1  0.4375630000000  0.5907030000000  0.5138620000000 1.0
C      1  0.5451630000000  0.4853140000000  0.6029500000000 1.0
C      1  0.5266780000000  0.4134320000000  0.5992700000000 1.0
C      1  0.5234190000000  0.5646720000000  0.5743800000000 1.0
C      1  0.5401900000000  0.4406680000000  0.4279050000000 1.0
C      1  0.5822070000000  0.4991310000000  0.5107970000000 1.0
C      1  0.4360550000000  0.4224410000000  0.4659310000000 1.0
C      1  0.5844700000000  0.4393080000000  0.5283540000000 1.0
C      1  0.4212110000000  0.5674970000000  0.5157480000000 1.0
C      1  0.5668150000000  0.4692460000000  0.5089190000000 1.0
C      1  0.5722550000000  0.5073990000000  0.4819940000000 1.0
C      1  0.4981770000000  0.5625110000000  0.4841330000000 1.0
C      1  0.5332590000000  0.4589550000000  0.5299230000000 1.0
C      1  0.5527820000000  0.4619250000000  0.4512660000000 1.0
C      1  0.4825080000000  0.3860850000000  0.5509710000000 1.0
C      1  0.4386990000000  0.4018790000000  0.4928800000000 1.0
C      1  0.4090700000000  0.5104570000000  0.4635140000000 1.0
C      1  0.5751170000000  0.4387460000000  0.4970160000000 1.0
C      1  0.5735930000000  0.4622400000000  0.4243430000000 1.0
C      1  0.4770870000000  0.5415110000000  0.4097270000000 1.0
C      1  0.5055930000000  0.4751450000000  0.3905040000000 1.0
C      1  0.5624990000000  0.5404310000000  0.4825020000000 1.0
C      1  0.4803220000000  0.4140250000000  0.5524050000000 1.0
C      1  0.5100560000000  0.4472410000000  0.4996870000000 1.0
C      1  0.5043170000000  0.5299200000000  0.4520240000000 1.0
C      1  0.4998780000000  0.6089360000000  0.4585770000000 1.0
C      1  0.4708880000000  0.4481410000000  0.5871670000000 1.0
C      1  0.4980760000000  0.5045140000000  0.6164970000000 1.0
C      1  0.5116900000000  0.5285870000000  0.6170840000000 1.0
C      1  0.4622730000000  0.4246170000000  0.5751860000000 1.0
C      1  0.4803070000000  0.4729430000000  0.6016830000000 1.0
C      1  0.5346200000000  0.4707220000000  0.4980420000000 1.0
C      1  0.5505470000000  0.4568520000000  0.4009980000000 1.0
C      1  0.5116220000000  0.4772970000000  0.4738540000000 1.0
C      1  0.5403870000000  0.5039840000000  0.5264490000000 1.0
C      1  0.5511960000000  0.4849690000000  0.4702640000000 1.0
C      1  0.5755230000000  0.5104250000000  0.4424090000000 1.0
C      1  0.4764040000000  0.4999940000000  0.4400880000000 1.0
C      1  0.4586990000000  0.5914500000000  0.4877810000000 1.0
C      1  0.4976710000000  0.5003930000000  0.5271690000000 1.0
C      1  0.4906020000000  0.6094550000000  0.5098800000000 1.0
C      1  0.4807030000000  0.4859480000000  0.3867130000000 1.0
C      1  0.5068340000000  0.3937740000000  0.5139810000000 1.0
C      1  0.5281480000000  0.4264000000000  0.5756980000000 1.0
C      1  0.5641060000000  0.5537170000000  0.5296830000000 1.0
C      1  0.5167440000000  0.3839520000000  0.4629940000000 1.0
C      1  0.4216040000000  0.5041750000000  0.5799970000000 1.0
C      1  0.4469360000000  0.5442880000000  0.4023730000000 1.0
C      1  0.4574300000000  0.5331440000000  0.6025120000000 1.0
C      1  0.6000020000000  0.5105250000000  0.4625740000000 1.0
C      1  0.4043040000000  0.4794100000000  0.4653000000000 1.0
C      1  0.5348010000000  0.4795740000000  0.3932300000000 1.0
C      1  0.4480770000000  0.5118400000000  0.4548780000000 1.0
C      1  0.6130350000000  0.4943630000000  0.5054750000000 1.0
C      1  0.4448150000000  0.5574630000000  0.4509250000000 1.0
C      1  0.4938770000000  0.5241030000000  0.5688290000000 1.0
C      1  0.5166620000000  0.5482700000000  0.5210410000000 1.0
C      1  0.5660510000000  0.6056140000000  0.4677720000000 1.0
C      1  0.4901380000000  0.5953750000000  0.4806150000000 1.0
C      1  0.5028720000000  0.5138320000000  0.4237580000000 1.0
C      1  0.4730030000000  0.4280260000000  0.5245230000000 1.0
C      1  0.4185530000000  0.4396270000000  0.5269590000000 1.0
C      1  0.4653570000000  0.5329500000000  0.5419280000000 1.0
C      1  0.5408920000000  0.5969410000000  0.5227510000000 1.0
C      1  0.5120940000000  0.4800930000000  0.6010620000000 1.0
C      1  0.4469340000000  0.4528680000000  0.4891760000000 1.0
C      1  0.5304400000000  0.4865070000000  0.5732150000000 1.0
C      1  0.5610570000000  0.5012700000000  0.5519560000000 1.0
C      1  0.4441980000000  0.5108240000000  0.5130370000000 1.0
C      1  0.5039800000000  0.4562790000000  0.5441570000000 1.0
C      1  0.5732830000000  0.5420150000000  0.5758930000000 1.0
C      1  0.6112430000000  0.5081640000000  0.5605270000000 1.0
C      1  0.4749600000000  0.4667330000000  0.4401610000000 1.0
C      1  0.4948450000000  0.4279880000000  0.4531780000000 1.0
C      1  0.4228960000000  0.5161020000000  0.4350750000000 1.0
C      1  0.6205210000000  0.4964470000000  0.4811640000000 1.0
C      1  0.4292310000000  0.5384300000000  0.4999930000000 1.0
C      1  0.4518970000000  0.5692740000000  0.4226660000000 1.0
C      1  0.4882070000000  0.4557050000000  0.4647190000000 1.0
C      1  0.5526320000000  0.4371600000000  0.5662650000000 1.0
C      1  0.4785960000000  0.4686390000000  0.5622030000000 1.0
C      1  0.5307240000000  0.4105750000000  0.5040070000000 1.0
C      1  0.5873070000000  0.4421940000000  0.4469600000000 1.0
C      1  0.4029510000000  0.4866040000000  0.5384710000000 1.0
C      1  0.4531710000000  0.5381250000000  0.4758440000000 1.0
C      1  0.4562710000000  0.4793450000000  0.5174410000000 1.0
C      1  0.4668260000000  0.4146070000000  0.4782660000000 1.0
C      1  0.5487290000000  0.5538710000000  0.4215980000000 1.0
C      1  0.4526930000000  0.4474920000000  0.4245340000000 1.0
C      1  0.3955170000000  0.5425710000000  0.5015320000000 1.0
C      1  0.4769100000000  0.5191730000000  0.5170980000000 1.0
C      1  0.4444290000000  0.4293550000000  0.5101920000000 1.0
C      1  0.4982310000000  0.4725440000000  0.5163090000000 1.0
C      1  0.5296030000000  0.5042380000000  0.4973150000000 1.0
C      1  0.5333520000000  0.5344950000000  0.4082760000000 1.0
C      1  0.4829180000000  0.5553610000000  0.5605290000000 1.0
C      1  0.5931600000000  0.5404730000000  0.4746840000000 1.0
C      1  0.5147230000000  0.5290080000000  0.4980640000000 1.0
C      1  0.5105610000000  0.4667290000000  0.4221490000000 1.0
C      1  0.5827150000000  0.4690530000000  0.5390390000000 1.0
C      1  0.6060750000000  0.4823700000000  0.5530770000000 1.0
C      1  0.4650440000000  0.4920070000000  0.4090410000000 1.0
C      1  0.4077770000000  0.5417210000000  0.5334100000000 1.0
C      1  0.5503800000000  0.5712590000000  0.5036880000000 1.0
C      1  0.5090430000000  0.4334060000000  0.4261660000000 1.0
C      1  0.4758770000000  0.4718690000000  0.4906890000000 1.0
END
