TITL C-2847955-7945-212 -0.00440686705293878 125000 -794.414285571117 0 0 146 (C1) n - 1
REM
REM in /home/bkarasulu/work/CARBON/AIRSS/Generating-Clusters/AIREBO/with-SteepDescent/Only-C1/SD-CG-opt/Try1-1.4A-POS3A/HFTN-CG
REM
REM
REM
REM
REM
REM ./C.cell (11c1c37f851c82e70ff6c80c92926a4b)
REM
REM compiler GCC version 9.2.1 20190827 (Red Hat 9.2.1-1)
REM options -cpp -mtune=generic -march=x86-64 -g -O0 -fpre-include=/usr/include/finclude/math-vector-fortran.h
REM seed -1579138467 2005550000 -1005776769 -1444408115 -558842899 1540229568 -1184319094 2000047599 775687439 -1560926339 -1447090788 -1510527278 -1012726895 -1133481888 -1276720820 1884443907 554931752 -963585350 997512467 1488686486 2774613 1223991254 -1104739112 -1638072963 -1400972937 1931826855 1272214898 1002213567 798516689 -1003491824 1517447056 -1261131401 -1609519261
REM
CELL 1.54180   50.00000   50.00000   50.00000   90.00000   90.00000   90.00000
LATT -1
SFAC C  
C      1  0.5555420000000  0.5560180000000  0.5015220000000 1.0
C      1  0.4684580000000  0.4870940000000  0.5329290000000 1.0
C      1  0.5468420000000  0.4684830000000  0.4540000000000 1.0
C      1  0.6098540000000  0.5106730000000  0.4880060000000 1.0
C      1  0.4507550000000  0.5508390000000  0.5341990000000 1.0
C      1  0.5461080000000  0.4359330000000  0.4309640000000 1.0
C      1  0.5047090000000  0.5627500000000  0.4232740000000 1.0
C      1  0.5405920000000  0.5379710000000  0.4804220000000 1.0
C      1  0.5328980000000  0.3931130000000  0.5350950000000 1.0
C      1  0.4816100000000  0.3935760000000  0.5199380000000 1.0
C      1  0.4719350000000  0.6008510000000  0.5094810000000 1.0
C      1  0.5740620000000  0.5086100000000  0.5496550000000 1.0
C      1  0.4830670000000  0.5688910000000  0.4379580000000 1.0
C      1  0.5845680000000  0.5404350000000  0.4472570000000 1.0
C      1  0.5559600000000  0.5118230000000  0.5208970000000 1.0
C      1  0.5740020000000  0.5165840000000  0.4359350000000 1.0
C      1  0.5572680000000  0.5856850000000  0.4243250000000 1.0
C      1  0.4918280000000  0.5024820000000  0.6005270000000 1.0
C      1  0.5271700000000  0.4238380000000  0.5424470000000 1.0
C      1  0.4147140000000  0.5176650000000  0.4361480000000 1.0
C      1  0.5019500000000  0.4531950000000  0.5327690000000 1.0
C      1  0.4163700000000  0.5468250000000  0.4748770000000 1.0
C      1  0.5409480000000  0.5744670000000  0.4520520000000 1.0
C      1  0.5950600000000  0.4893290000000  0.4975560000000 1.0
C      1  0.4799460000000  0.4106620000000  0.4647440000000 1.0
C      1  0.4179880000000  0.5451370000000  0.5035050000000 1.0
C      1  0.4500780000000  0.4117410000000  0.5641710000000 1.0
C      1  0.5943060000000  0.5585890000000  0.5531300000000 1.0
C      1  0.4279250000000  0.5707930000000  0.5188100000000 1.0
C      1  0.4726200000000  0.4751740000000  0.4552440000000 1.0
C      1  0.4727120000000  0.4446400000000  0.5631650000000 1.0
C      1  0.5264300000000  0.5651880000000  0.5112460000000 1.0
C      1  0.5675840000000  0.4616710000000  0.5383990000000 1.0
C      1  0.5283110000000  0.5942030000000  0.5470880000000 1.0
C      1  0.4720040000000  0.5725760000000  0.5260210000000 1.0
C      1  0.4429790000000  0.5618780000000  0.4680810000000 1.0
C      1  0.5081740000000  0.5408890000000  0.5588380000000 1.0
C      1  0.5330710000000  0.5961690000000  0.4723570000000 1.0
C      1  0.5893240000000  0.5598570000000  0.5010480000000 1.0
C      1  0.4544510000000  0.4318710000000  0.4571620000000 1.0
C      1  0.5397200000000  0.5084550000000  0.4009780000000 1.0
C      1  0.4519880000000  0.4508430000000  0.5048300000000 1.0
C      1  0.4967890000000  0.5834500000000  0.5548760000000 1.0
C      1  0.4200960000000  0.4269440000000  0.5181850000000 1.0
C      1  0.4330190000000  0.4981830000000  0.4936490000000 1.0
C      1  0.5008900000000  0.4250560000000  0.5611610000000 1.0
C      1  0.5031530000000  0.4451400000000  0.5006000000000 1.0
C      1  0.5722680000000  0.4884500000000  0.4434400000000 1.0
C      1  0.5218850000000  0.5324530000000  0.4273030000000 1.0
C      1  0.5140730000000  0.4093730000000  0.4633810000000 1.0
C      1  0.5641230000000  0.5192330000000  0.4742750000000 1.0
C      1  0.5222070000000  0.5496240000000  0.4566560000000 1.0
C      1  0.4520340000000  0.4178690000000  0.5104470000000 1.0
C      1  0.4714900000000  0.5149360000000  0.4514310000000 1.0
C      1  0.4887380000000  0.4286970000000  0.4372920000000 1.0
C      1  0.5310740000000  0.4987490000000  0.5753690000000 1.0
C      1  0.4788120000000  0.5025570000000  0.5716110000000 1.0
C      1  0.5465830000000  0.4244590000000  0.5144600000000 1.0
C      1  0.4232350000000  0.4877920000000  0.4326750000000 1.0
C      1  0.5728860000000  0.4398980000000  0.5153180000000 1.0
C      1  0.4889680000000  0.4737610000000  0.5565440000000 1.0
C      1  0.4777720000000  0.5357930000000  0.3926210000000 1.0
C      1  0.4503010000000  0.4524020000000  0.5387750000000 1.0
C      1  0.5548440000000  0.5482320000000  0.5804890000000 1.0
C      1  0.4693620000000  0.5800870000000  0.4618000000000 1.0
C      1  0.5098440000000  0.5025900000000  0.4163490000000 1.0
C      1  0.3903110000000  0.4813620000000  0.5052250000000 1.0
C      1  0.5128550000000  0.4293900000000  0.5895940000000 1.0
C      1  0.4600900000000  0.5459440000000  0.4433590000000 1.0
C      1  0.5152640000000  0.5188280000000  0.4809280000000 1.0
C      1  0.4689420000000  0.5297560000000  0.5836990000000 1.0
C      1  0.4831170000000  0.5560990000000  0.5717870000000 1.0
C      1  0.4972320000000  0.5263660000000  0.5300170000000 1.0
C      1  0.4558430000000  0.4286400000000  0.5880140000000 1.0
C      1  0.5475150000000  0.5454900000000  0.5407460000000 1.0
C      1  0.5190890000000  0.5108530000000  0.5999200000000 1.0
C      1  0.5231880000000  0.4914190000000  0.4624330000000 1.0
C      1  0.5471940000000  0.4629260000000  0.4204490000000 1.0
C      1  0.5033460000000  0.5036730000000  0.5054300000000 1.0
C      1  0.5201700000000  0.3856160000000  0.5143010000000 1.0
C      1  0.4967640000000  0.4933460000000  0.4429580000000 1.0
C      1  0.5257250000000  0.5362530000000  0.5879670000000 1.0
C      1  0.5284730000000  0.5319070000000  0.5180010000000 1.0
C      1  0.5556880000000  0.5781870000000  0.5348160000000 1.0
C      1  0.4272890000000  0.5378050000000  0.5634580000000 1.0
C      1  0.4459580000000  0.5114180000000  0.4289730000000 1.0
C      1  0.5356640000000  0.4559440000000  0.5362610000000 1.0
C      1  0.5776170000000  0.5382830000000  0.5659020000000 1.0
C      1  0.5402390000000  0.4666560000000  0.5061990000000 1.0
C      1  0.5039350000000  0.5420520000000  0.4000500000000 1.0
C      1  0.5181760000000  0.4739370000000  0.5726350000000 1.0
C      1  0.5712330000000  0.5633980000000  0.4412600000000 1.0
C      1  0.4589820000000  0.4552330000000  0.4358890000000 1.0
C      1  0.4311970000000  0.4761780000000  0.5132230000000 1.0
C      1  0.4781960000000  0.4590430000000  0.4846520000000 1.0
C      1  0.5845130000000  0.5753130000000  0.5309620000000 1.0
C      1  0.4410440000000  0.5319920000000  0.5860660000000 1.0
C      1  0.4331610000000  0.4424030000000  0.4783050000000 1.0
C      1  0.4475070000000  0.5815080000000  0.4957860000000 1.0
C      1  0.4298820000000  0.4620580000000  0.4306580000000 1.0
C      1  0.4087560000000  0.4529400000000  0.5081710000000 1.0
C      1  0.3934100000000  0.5103370000000  0.5418170000000 1.0
C      1  0.4588880000000  0.5342970000000  0.4114340000000 1.0
C      1  0.4767850000000  0.4044630000000  0.5513500000000 1.0
C      1  0.4777330000000  0.4425850000000  0.4142430000000 1.0
C      1  0.4865770000000  0.5817670000000  0.4879680000000 1.0
C      1  0.4721850000000  0.5003050000000  0.5055880000000 1.0
C      1  0.5368990000000  0.4780500000000  0.4003870000000 1.0
C      1  0.5843700000000  0.4417950000000  0.4835450000000 1.0
C      1  0.4050970000000  0.4974780000000  0.4791750000000 1.0
C      1  0.5142850000000  0.4761820000000  0.4921850000000 1.0
C      1  0.4926810000000  0.5358180000000  0.4670080000000 1.0
C      1  0.4350000000000  0.5213720000000  0.5127130000000 1.0
C      1  0.5817570000000  0.4800310000000  0.5536760000000 1.0
C      1  0.5026280000000  0.4111180000000  0.5002260000000 1.0
C      1  0.4631310000000  0.5798140000000  0.5580460000000 1.0
C      1  0.5624910000000  0.4669150000000  0.4838380000000 1.0
C      1  0.6035470000000  0.4738210000000  0.5690590000000 1.0
C      1  0.4977050000000  0.5579670000000  0.5214570000000 1.0
C      1  0.5752590000000  0.5377140000000  0.5226800000000 1.0
C      1  0.5963720000000  0.4629980000000  0.5047190000000 1.0
C      1  0.4987660000000  0.4457130000000  0.4610740000000 1.0
C      1  0.5444390000000  0.5167060000000  0.5586160000000 1.0
C      1  0.5166110000000  0.5897690000000  0.4941810000000 1.0
C      1  0.4068040000000  0.5235050000000  0.4621470000000 1.0
C      1  0.4152000000000  0.4462140000000  0.4493740000000 1.0
C      1  0.5427590000000  0.5150260000000  0.4477330000000 1.0
C      1  0.5211090000000  0.4551510000000  0.5935570000000 1.0
C      1  0.4377330000000  0.4867470000000  0.5424510000000 1.0
C      1  0.5302480000000  0.4389540000000  0.4591570000000 1.0
C      1  0.5313170000000  0.5654610000000  0.5629930000000 1.0
C      1  0.5031030000000  0.5973180000000  0.5244690000000 1.0
C      1  0.4214660000000  0.5152180000000  0.5427730000000 1.0
C      1  0.4669610000000  0.3974770000000  0.4894950000000 1.0
C      1  0.5335960000000  0.4147690000000  0.4907020000000 1.0
C      1  0.4309930000000  0.5691300000000  0.5528550000000 1.0
C      1  0.4063240000000  0.4631310000000  0.4758190000000 1.0
C      1  0.4775000000000  0.5509730000000  0.4879560000000 1.0
C      1  0.5073330000000  0.4761570000000  0.3951120000000 1.0
C      1  0.5924950000000  0.5364080000000  0.4779370000000 1.0
C      1  0.4590460000000  0.4961840000000  0.4769190000000 1.0
C      1  0.4796010000000  0.4280870000000  0.5275550000000 1.0
C      1  0.4674230000000  0.5316060000000  0.5139780000000 1.0
C      1  0.4883800000000  0.4565500000000  0.3930480000000 1.0
C      1  0.5650260000000  0.4976410000000  0.4956800000000 1.0
C      1  0.4344850000000  0.4258630000000  0.5454470000000 1.0
END
