TITL C-2848508-1660-42 0.00295016317948714 125000 -459.538996469226 0 0 85 (C1) n - 1
REM
REM in /home/bkarasulu/work/CARBON/AIRSS/Generating-Clusters/AIREBO/with-SteepDescent/Only-C1/SD-CG-opt/Try1-1.4A-POS3A/HFTN-CG
REM
REM
REM
REM
REM
REM ./C.cell (11c1c37f851c82e70ff6c80c92926a4b)
REM
REM compiler GCC version 9.2.1 20190827 (Red Hat 9.2.1-1)
REM options -cpp -mtune=generic -march=x86-64 -g -O0 -fpre-include=/usr/include/finclude/math-vector-fortran.h
REM seed -945883572 -1536163964 -1863979889 -1911102983 -1591916883 -102902356 1519497400 -1207728119 -253376073 1584671961 -1735703259 -157921978 -429740631 1416764799 396609342 970748495 -1706705025 1941147474 -376371466 -1460989326 858350666 1694108207 -1443926472 -1068103039 1235767082 -1212147836 592175212 -105050340 -398749646 1338579586 1608851245 649753466 -1409373493
REM
CELL 1.54180   50.00000   50.00000   50.00000   90.00000   90.00000   90.00000
LATT -1
SFAC C  
C      1  0.4855070000000  0.4871390000000  0.4341300000000 1.0
C      1  0.4293970000000  0.5216400000000  0.4430430000000 1.0
C      1  0.5275670000000  0.5859890000000  0.5214340000000 1.0
C      1  0.5501460000000  0.4852640000000  0.5354110000000 1.0
C      1  0.4303890000000  0.5381010000000  0.5124520000000 1.0
C      1  0.5148960000000  0.5413180000000  0.4935570000000 1.0
C      1  0.4825350000000  0.4829310000000  0.5896240000000 1.0
C      1  0.4647460000000  0.5540780000000  0.4868530000000 1.0
C      1  0.4701410000000  0.4282180000000  0.5356670000000 1.0
C      1  0.5628610000000  0.4602640000000  0.5161830000000 1.0
C      1  0.5072810000000  0.5171940000000  0.5568630000000 1.0
C      1  0.4807860000000  0.5112730000000  0.4519030000000 1.0
C      1  0.5572480000000  0.4594510000000  0.4538450000000 1.0
C      1  0.4588310000000  0.4574440000000  0.5118920000000 1.0
C      1  0.5658570000000  0.4330560000000  0.4422240000000 1.0
C      1  0.4407260000000  0.5190130000000  0.4906320000000 1.0
C      1  0.4591300000000  0.4727120000000  0.4343110000000 1.0
C      1  0.4999450000000  0.5890720000000  0.5227740000000 1.0
C      1  0.4339670000000  0.4820610000000  0.5686420000000 1.0
C      1  0.5745130000000  0.5033350000000  0.4663770000000 1.0
C      1  0.5878500000000  0.5219530000000  0.5067960000000 1.0
C      1  0.4835490000000  0.4924980000000  0.5362590000000 1.0
C      1  0.4456420000000  0.5370560000000  0.4639710000000 1.0
C      1  0.4607680000000  0.4453780000000  0.4401590000000 1.0
C      1  0.5232430000000  0.5620920000000  0.4481270000000 1.0
C      1  0.5154650000000  0.5226640000000  0.4681870000000 1.0
C      1  0.5114850000000  0.4675850000000  0.4344440000000 1.0
C      1  0.5157180000000  0.4939990000000  0.4181700000000 1.0
C      1  0.5639790000000  0.5220560000000  0.5281760000000 1.0
C      1  0.4464740000000  0.5415170000000  0.5340020000000 1.0
C      1  0.5400270000000  0.4399630000000  0.5011170000000 1.0
C      1  0.5418540000000  0.4808110000000  0.5741560000000 1.0
C      1  0.4244660000000  0.4929640000000  0.4894990000000 1.0
C      1  0.4719690000000  0.5148820000000  0.4842780000000 1.0
C      1  0.4149060000000  0.4898240000000  0.4615730000000 1.0
C      1  0.4852640000000  0.5323370000000  0.5358290000000 1.0
C      1  0.5361430000000  0.4168490000000  0.5248180000000 1.0
C      1  0.5530120000000  0.4984050000000  0.4868900000000 1.0
C      1  0.4884640000000  0.4881630000000  0.4835930000000 1.0
C      1  0.5762060000000  0.5315390000000  0.4539610000000 1.0
C      1  0.5252960000000  0.4419290000000  0.5382230000000 1.0
C      1  0.5395810000000  0.5093150000000  0.5570320000000 1.0
C      1  0.5542330000000  0.5494790000000  0.5007600000000 1.0
C      1  0.4602280000000  0.4663680000000  0.5715400000000 1.0
C      1  0.5260510000000  0.4825300000000  0.5115570000000 1.0
C      1  0.4205140000000  0.4907660000000  0.5232130000000 1.0
C      1  0.5578930000000  0.5581050000000  0.5480150000000 1.0
C      1  0.5707660000000  0.4843190000000  0.4432560000000 1.0
C      1  0.5777710000000  0.5391360000000  0.4839110000000 1.0
C      1  0.4719780000000  0.4364560000000  0.6190970000000 1.0
C      1  0.5134080000000  0.5060740000000  0.5270200000000 1.0
C      1  0.4872450000000  0.5364510000000  0.5046620000000 1.0
C      1  0.4332130000000  0.4982590000000  0.5468270000000 1.0
C      1  0.4787270000000  0.5885710000000  0.5463790000000 1.0
C      1  0.4590690000000  0.5134830000000  0.5419120000000 1.0
C      1  0.5242460000000  0.5399390000000  0.4222790000000 1.0
C      1  0.4936800000000  0.5051660000000  0.5814850000000 1.0
C      1  0.4112340000000  0.4418210000000  0.5040360000000 1.0
C      1  0.5494040000000  0.5677940000000  0.5227810000000 1.0
C      1  0.5377630000000  0.5205600000000  0.5077780000000 1.0
C      1  0.5127150000000  0.4443330000000  0.4833800000000 1.0
C      1  0.4876780000000  0.4619160000000  0.4983290000000 1.0
C      1  0.4707800000000  0.5579890000000  0.4552920000000 1.0
C      1  0.5566090000000  0.4647890000000  0.4849340000000 1.0
C      1  0.4982080000000  0.5394280000000  0.4441450000000 1.0
C      1  0.5206530000000  0.4913730000000  0.4791620000000 1.0
C      1  0.4726700000000  0.4550780000000  0.6001530000000 1.0
C      1  0.5255970000000  0.4637770000000  0.4599240000000 1.0
C      1  0.3987070000000  0.5138660000000  0.4493180000000 1.0
C      1  0.5351530000000  0.5143310000000  0.4197430000000 1.0
C      1  0.5266960000000  0.5656320000000  0.4748060000000 1.0
C      1  0.5615560000000  0.5118710000000  0.4299620000000 1.0
C      1  0.4374930000000  0.4887620000000  0.4399410000000 1.0
C      1  0.4710050000000  0.4263950000000  0.5052470000000 1.0
C      1  0.4726260000000  0.4272620000000  0.4567910000000 1.0
C      1  0.5815330000000  0.4958750000000  0.5277210000000 1.0
C      1  0.5102310000000  0.4578070000000  0.5207120000000 1.0
C      1  0.4745190000000  0.5738720000000  0.5098940000000 1.0
C      1  0.4310060000000  0.4645830000000  0.5062400000000 1.0
C      1  0.4858310000000  0.4258010000000  0.4815530000000 1.0
C      1  0.4712650000000  0.4615840000000  0.5432920000000 1.0
C      1  0.5539560000000  0.5363010000000  0.5639220000000 1.0
C      1  0.4673840000000  0.5349940000000  0.4304740000000 1.0
C      1  0.5405500000000  0.4586010000000  0.5550710000000 1.0
C      1  0.4603260000000  0.5651730000000  0.5364090000000 1.0
END
