TITL C-2848503-6230-561 -0.000495751074998035 125000 -304.969056971548 0 0 57 (C1) n - 1
REM
REM in /home/bkarasulu/work/CARBON/AIRSS/Generating-Clusters/AIREBO/with-SteepDescent/Only-C1/SD-CG-opt/Try1-1.4A-POS3A/HFTN-CG
REM
REM
REM
REM
REM
REM ./C.cell (11c1c37f851c82e70ff6c80c92926a4b)
REM
REM compiler GCC version 9.2.1 20190827 (Red Hat 9.2.1-1)
REM options -cpp -mtune=generic -march=x86-64 -g -O0 -fpre-include=/usr/include/finclude/math-vector-fortran.h
REM seed 761203623 1709942770 -447800625 1861818476 -1810975217 -1675233888 1671065435 1109232336 899452032 587557132 1963732792 -504817804 1205479763 -311559766 1518734598 -462414551 -2110647547 -671169964 -1184864568 1999775226 -1439511355 -562042524 1830162815 953693213 121459489 1538637234 -1997180315 1797300669 -1084535480 814885824 700016910 176420651 29591281
REM
CELL 1.54180   50.00000   50.00000   50.00000   90.00000   90.00000   90.00000
LATT -1
SFAC C  
C      1  0.5619370000000  0.5196880000000  0.5388210000000 1.0
C      1  0.5010540000000  0.5700460000000  0.4833280000000 1.0
C      1  0.5489640000000  0.5276690000000  0.4903200000000 1.0
C      1  0.5182880000000  0.4838360000000  0.4629640000000 1.0
C      1  0.5204780000000  0.5487040000000  0.4407660000000 1.0
C      1  0.4310830000000  0.4828850000000  0.5206900000000 1.0
C      1  0.4920630000000  0.5018670000000  0.4560790000000 1.0
C      1  0.4956730000000  0.5243650000000  0.5499730000000 1.0
C      1  0.4674490000000  0.5313100000000  0.4877280000000 1.0
C      1  0.4848550000000  0.4700050000000  0.4947480000000 1.0
C      1  0.4595700000000  0.4791290000000  0.5433140000000 1.0
C      1  0.4947990000000  0.4358720000000  0.5335330000000 1.0
C      1  0.4754340000000  0.5337380000000  0.4168200000000 1.0
C      1  0.5036300000000  0.5594620000000  0.5126240000000 1.0
C      1  0.5194520000000  0.5795840000000  0.5354050000000 1.0
C      1  0.5437380000000  0.4941760000000  0.5384140000000 1.0
C      1  0.4662590000000  0.5406440000000  0.5448880000000 1.0
C      1  0.5179430000000  0.5344050000000  0.4850000000000 1.0
C      1  0.5492810000000  0.4717270000000  0.4519590000000 1.0
C      1  0.5000400000000  0.4984340000000  0.5634420000000 1.0
C      1  0.5670950000000  0.4948250000000  0.4605540000000 1.0
C      1  0.4372320000000  0.5003610000000  0.5478940000000 1.0
C      1  0.4417790000000  0.4535850000000  0.5186880000000 1.0
C      1  0.4429040000000  0.5246430000000  0.5578340000000 1.0
C      1  0.5341850000000  0.5645370000000  0.4873290000000 1.0
C      1  0.4563470000000  0.5437170000000  0.5164680000000 1.0
C      1  0.4365410000000  0.5254740000000  0.4994660000000 1.0
C      1  0.5227120000000  0.4511890000000  0.5294520000000 1.0
C      1  0.5427800000000  0.4941440000000  0.4843270000000 1.0
C      1  0.4697600000000  0.4973660000000  0.4890110000000 1.0
C      1  0.5266980000000  0.4921960000000  0.5646630000000 1.0
C      1  0.5424400000000  0.5672180000000  0.5175260000000 1.0
C      1  0.5078720000000  0.4723600000000  0.5150020000000 1.0
C      1  0.4912900000000  0.4168980000000  0.4321190000000 1.0
C      1  0.4923580000000  0.5311720000000  0.4415710000000 1.0
C      1  0.4952180000000  0.5575720000000  0.5445970000000 1.0
C      1  0.5004810000000  0.5088380000000  0.4882880000000 1.0
C      1  0.4691090000000  0.4599890000000  0.4388260000000 1.0
C      1  0.4665820000000  0.4840810000000  0.4515950000000 1.0
C      1  0.4438220000000  0.4889320000000  0.4704370000000 1.0
C      1  0.4896230000000  0.4260570000000  0.4837980000000 1.0
C      1  0.4820370000000  0.4770370000000  0.5618120000000 1.0
C      1  0.5048180000000  0.4540480000000  0.4723160000000 1.0
C      1  0.4886160000000  0.5430090000000  0.4712340000000 1.0
C      1  0.4907870000000  0.4498010000000  0.5629070000000 1.0
C      1  0.5481610000000  0.5404720000000  0.5280760000000 1.0
C      1  0.5474670000000  0.4656420000000  0.5260910000000 1.0
C      1  0.5424830000000  0.5499400000000  0.4577520000000 1.0
C      1  0.4303970000000  0.4986150000000  0.4957650000000 1.0
C      1  0.5362980000000  0.4471990000000  0.4614450000000 1.0
C      1  0.5167700000000  0.5304110000000  0.5247660000000 1.0
C      1  0.5233750000000  0.4997020000000  0.5117220000000 1.0
C      1  0.5569180000000  0.4683480000000  0.5004430000000 1.0
C      1  0.4864250000000  0.4381670000000  0.4485330000000 1.0
C      1  0.5553020000000  0.5226700000000  0.4593490000000 1.0
C      1  0.4894680000000  0.4172450000000  0.5078740000000 1.0
C      1  0.4718600000000  0.4549920000000  0.5196520000000 1.0
END
