TITL C-2848494-1720-133 -0.007550053954569 125000 -1015.26574687917 0 0 191 (C1) n - 1
REM
REM in /home/bkarasulu/work/CARBON/AIRSS/Generating-Clusters/AIREBO/with-SteepDescent/Only-C1/SD-CG-opt/Try1-1.4A-POS3A/HFTN-CG
REM
REM
REM
REM
REM
REM ./C.cell (11c1c37f851c82e70ff6c80c92926a4b)
REM
REM compiler GCC version 9.2.1 20190827 (Red Hat 9.2.1-1)
REM options -cpp -mtune=generic -march=x86-64 -g -O0 -fpre-include=/usr/include/finclude/math-vector-fortran.h
REM seed -360709434 -1342313172 -117971460 1348139268 1944211325 -460729392 1508596255 1420174121 -547416742 1223622805 1665044061 -821081879 -774935833 891389952 1424190028 -1477538662 -1523725387 331489430 -1579736334 -1323735521 534872 1580894659 -452395721 -1389057553 1225517003 1909369904 -1741395201 668265692 -1825190664 1920031826 104053041 -1436200710 8783079
REM
CELL 1.54180   50.00000   50.00000   50.00000   90.00000   90.00000   90.00000
LATT -1
SFAC C  
C      1  0.4574340000000  0.4809290000000  0.5075750000000 1.0
C      1  0.4744100000000  0.5497400000000  0.4820620000000 1.0
C      1  0.4794790000000  0.5034060000000  0.4730920000000 1.0
C      1  0.5022340000000  0.4851380000000  0.4908780000000 1.0
C      1  0.4794370000000  0.5712210000000  0.5202640000000 1.0
C      1  0.4600990000000  0.4272680000000  0.5587270000000 1.0
C      1  0.5379770000000  0.4083450000000  0.4536120000000 1.0
C      1  0.5876430000000  0.4902540000000  0.5732110000000 1.0
C      1  0.5013380000000  0.4340850000000  0.4409670000000 1.0
C      1  0.4129050000000  0.5080840000000  0.4486130000000 1.0
C      1  0.5008920000000  0.5523550000000  0.6356690000000 1.0
C      1  0.4220710000000  0.5210510000000  0.5414670000000 1.0
C      1  0.4214710000000  0.5677190000000  0.4500430000000 1.0
C      1  0.5772010000000  0.4906980000000  0.3953000000000 1.0
C      1  0.4774710000000  0.5594460000000  0.4311850000000 1.0
C      1  0.5739550000000  0.5842620000000  0.5026780000000 1.0
C      1  0.4188750000000  0.4795700000000  0.4661470000000 1.0
C      1  0.4617790000000  0.4116120000000  0.4366270000000 1.0
C      1  0.5391470000000  0.5661570000000  0.3953670000000 1.0
C      1  0.5418440000000  0.5938680000000  0.4967780000000 1.0
C      1  0.5209360000000  0.4834960000000  0.6101290000000 1.0
C      1  0.5660100000000  0.4700900000000  0.4629290000000 1.0
C      1  0.5076510000000  0.5612750000000  0.5364780000000 1.0
C      1  0.4664730000000  0.4563850000000  0.4617650000000 1.0
C      1  0.6018870000000  0.5199690000000  0.5642760000000 1.0
C      1  0.5199010000000  0.4692520000000  0.4006020000000 1.0
C      1  0.4763530000000  0.5210840000000  0.5408950000000 1.0
C      1  0.5281270000000  0.5931650000000  0.4660660000000 1.0
C      1  0.6110230000000  0.5102680000000  0.5123780000000 1.0
C      1  0.5309910000000  0.5225480000000  0.5331620000000 1.0
C      1  0.5775430000000  0.5491660000000  0.5750730000000 1.0
C      1  0.4398660000000  0.4460690000000  0.4736050000000 1.0
C      1  0.4702880000000  0.4767510000000  0.6001270000000 1.0
C      1  0.4583630000000  0.5771350000000  0.4942370000000 1.0
C      1  0.4203240000000  0.4242230000000  0.5019210000000 1.0
C      1  0.5193270000000  0.4081120000000  0.5188480000000 1.0
C      1  0.4435040000000  0.5971480000000  0.5460820000000 1.0
C      1  0.5917730000000  0.4489450000000  0.5396070000000 1.0
C      1  0.5464160000000  0.4139000000000  0.4803770000000 1.0
C      1  0.6160500000000  0.4605550000000  0.4540270000000 1.0
C      1  0.5877630000000  0.3846360000000  0.5193030000000 1.0
C      1  0.4615210000000  0.4626060000000  0.5359260000000 1.0
C      1  0.4635230000000  0.4316140000000  0.5060740000000 1.0
C      1  0.5138320000000  0.4978770000000  0.4067030000000 1.0
C      1  0.5637410000000  0.5322430000000  0.5128510000000 1.0
C      1  0.4833930000000  0.4954770000000  0.5240950000000 1.0
C      1  0.4844070000000  0.4997960000000  0.3934150000000 1.0
C      1  0.5378260000000  0.5741970000000  0.4209950000000 1.0
C      1  0.4587810000000  0.5416760000000  0.5734550000000 1.0
C      1  0.5406860000000  0.4437150000000  0.4841530000000 1.0
C      1  0.5308970000000  0.5228330000000  0.5866250000000 1.0
C      1  0.4920200000000  0.4002350000000  0.4784660000000 1.0
C      1  0.5250100000000  0.4466130000000  0.5494430000000 1.0
C      1  0.5344310000000  0.5710940000000  0.5186220000000 1.0
C      1  0.5832910000000  0.4664550000000  0.5035040000000 1.0
C      1  0.4704040000000  0.5233350000000  0.4991970000000 1.0
C      1  0.5588730000000  0.5669910000000  0.5819710000000 1.0
C      1  0.4359320000000  0.5702270000000  0.5500590000000 1.0
C      1  0.4785230000000  0.4358430000000  0.5323450000000 1.0
C      1  0.5440560000000  0.4676270000000  0.6030750000000 1.0
C      1  0.5634870000000  0.5589610000000  0.5317930000000 1.0
C      1  0.5326350000000  0.5641500000000  0.5793560000000 1.0
C      1  0.4753330000000  0.4490760000000  0.4342380000000 1.0
C      1  0.3828540000000  0.5301750000000  0.4976190000000 1.0
C      1  0.3823130000000  0.4950160000000  0.4704440000000 1.0
C      1  0.4690960000000  0.5965600000000  0.4684640000000 1.0
C      1  0.4775530000000  0.3928440000000  0.5028520000000 1.0
C      1  0.4045230000000  0.4253850000000  0.5287900000000 1.0
C      1  0.4699190000000  0.5999050000000  0.5357180000000 1.0
C      1  0.4826850000000  0.4741540000000  0.4140580000000 1.0
C      1  0.5681210000000  0.4026400000000  0.5234020000000 1.0
C      1  0.3998100000000  0.4693300000000  0.4399130000000 1.0
C      1  0.5602350000000  0.5074210000000  0.5345300000000 1.0
C      1  0.5030720000000  0.5765100000000  0.6216740000000 1.0
C      1  0.4941840000000  0.4327530000000  0.5786820000000 1.0
C      1  0.4544890000000  0.4299340000000  0.3896040000000 1.0
C      1  0.4857160000000  0.6106220000000  0.4945860000000 1.0
C      1  0.6099070000000  0.4881950000000  0.4581780000000 1.0
C      1  0.6017740000000  0.4918240000000  0.4892730000000 1.0
C      1  0.5854890000000  0.4502310000000  0.5682180000000 1.0
C      1  0.4770910000000  0.5291160000000  0.3935990000000 1.0
C      1  0.5747100000000  0.4453000000000  0.4833060000000 1.0
C      1  0.4906710000000  0.6063960000000  0.5534280000000 1.0
C      1  0.4709820000000  0.4167000000000  0.4608180000000 1.0
C      1  0.4143450000000  0.5541680000000  0.5418630000000 1.0
C      1  0.5437730000000  0.4249230000000  0.5629330000000 1.0
C      1  0.5737860000000  0.5940350000000  0.4471730000000 1.0
C      1  0.5976030000000  0.5673640000000  0.5013410000000 1.0
C      1  0.4599970000000  0.5436210000000  0.4559930000000 1.0
C      1  0.4945160000000  0.5256900000000  0.5665070000000 1.0
C      1  0.5090580000000  0.4090340000000  0.4523210000000 1.0
C      1  0.5147690000000  0.4951810000000  0.5275010000000 1.0
C      1  0.4294390000000  0.5361460000000  0.5836470000000 1.0
C      1  0.4980090000000  0.5303420000000  0.6174900000000 1.0
C      1  0.4457000000000  0.4985270000000  0.4438850000000 1.0
C      1  0.6019690000000  0.4787230000000  0.5266900000000 1.0
C      1  0.5198310000000  0.4951990000000  0.5600130000000 1.0
C      1  0.5653950000000  0.5929040000000  0.5311660000000 1.0
C      1  0.3975250000000  0.5195070000000  0.5176850000000 1.0
C      1  0.5016370000000  0.5654740000000  0.4947640000000 1.0
C      1  0.4407420000000  0.5479560000000  0.4212100000000 1.0
C      1  0.4321110000000  0.5556150000000  0.4963200000000 1.0
C      1  0.5205180000000  0.4968640000000  0.4539870000000 1.0
C      1  0.4515740000000  0.4843020000000  0.4742150000000 1.0
C      1  0.4416440000000  0.6032130000000  0.5059970000000 1.0
C      1  0.4943010000000  0.5141170000000  0.4293600000000 1.0
C      1  0.5459340000000  0.4770820000000  0.4294840000000 1.0
C      1  0.5392010000000  0.5226630000000  0.4424880000000 1.0
C      1  0.4611610000000  0.5512960000000  0.5409180000000 1.0
C      1  0.5120290000000  0.4135550000000  0.5676290000000 1.0
C      1  0.4604230000000  0.5087070000000  0.5781980000000 1.0
C      1  0.4283400000000  0.5395490000000  0.4678030000000 1.0
C      1  0.5952790000000  0.4433360000000  0.4578000000000 1.0
C      1  0.5015230000000  0.6019350000000  0.4592340000000 1.0
C      1  0.4894490000000  0.4846840000000  0.4456760000000 1.0
C      1  0.4072430000000  0.5609460000000  0.5156960000000 1.0
C      1  0.4067670000000  0.4454430000000  0.5436380000000 1.0
C      1  0.5596820000000  0.5068390000000  0.4204190000000 1.0
C      1  0.5750940000000  0.5015030000000  0.4722550000000 1.0
C      1  0.5253980000000  0.5539360000000  0.4733270000000 1.0
C      1  0.5214830000000  0.5516710000000  0.4391440000000 1.0
C      1  0.4476040000000  0.4035560000000  0.5029110000000 1.0
C      1  0.4191090000000  0.5079850000000  0.5728350000000 1.0
C      1  0.4255540000000  0.4803810000000  0.4231870000000 1.0
C      1  0.5258850000000  0.4549000000000  0.4423030000000 1.0
C      1  0.5912460000000  0.5071750000000  0.5374050000000 1.0
C      1  0.4666870000000  0.4009590000000  0.5639440000000 1.0
C      1  0.5761180000000  0.5193730000000  0.5864510000000 1.0
C      1  0.4955960000000  0.5346540000000  0.5190470000000 1.0
C      1  0.5083000000000  0.5954820000000  0.5005600000000 1.0
C      1  0.5025540000000  0.5241570000000  0.4607820000000 1.0
C      1  0.4866640000000  0.4939070000000  0.5679430000000 1.0
C      1  0.4816240000000  0.4605540000000  0.5636370000000 1.0
C      1  0.5915530000000  0.5464160000000  0.5451550000000 1.0
C      1  0.5569070000000  0.4701330000000  0.5206530000000 1.0
C      1  0.3970220000000  0.5263000000000  0.4689200000000 1.0
C      1  0.4262300000000  0.4472750000000  0.4269240000000 1.0
C      1  0.5286810000000  0.4388220000000  0.4124670000000 1.0
C      1  0.4188940000000  0.5026820000000  0.5063890000000 1.0
C      1  0.5702690000000  0.4232250000000  0.5429940000000 1.0
C      1  0.5555520000000  0.5475390000000  0.4589720000000 1.0
C      1  0.5498460000000  0.4245920000000  0.4327180000000 1.0
C      1  0.4487420000000  0.5163710000000  0.3985440000000 1.0
C      1  0.5339570000000  0.4733000000000  0.4697390000000 1.0
C      1  0.4391040000000  0.4524600000000  0.5043990000000 1.0
C      1  0.4298740000000  0.4644430000000  0.5482220000000 1.0
C      1  0.5361210000000  0.5162690000000  0.3977920000000 1.0
C      1  0.4960770000000  0.3923350000000  0.5257160000000 1.0
C      1  0.5445820000000  0.4032680000000  0.5068330000000 1.0
C      1  0.4438200000000  0.5329300000000  0.5181550000000 1.0
C      1  0.4973650000000  0.4463070000000  0.4011820000000 1.0
C      1  0.5622020000000  0.4789720000000  0.5530760000000 1.0
C      1  0.4860440000000  0.5436260000000  0.5914280000000 1.0
C      1  0.4612530000000  0.5221670000000  0.4296360000000 1.0
C      1  0.5535620000000  0.5084070000000  0.4942810000000 1.0
C      1  0.5145120000000  0.4658950000000  0.5704230000000 1.0
C      1  0.5036710000000  0.5841600000000  0.5613690000000 1.0
C      1  0.4833740000000  0.4388940000000  0.4834150000000 1.0
C      1  0.5219710000000  0.5395810000000  0.5584090000000 1.0
C      1  0.4344550000000  0.5111680000000  0.4849560000000 1.0
C      1  0.5499580000000  0.5786890000000  0.4491660000000 1.0
C      1  0.5794370000000  0.5345910000000  0.4676610000000 1.0
C      1  0.4522540000000  0.5749010000000  0.4255330000000 1.0
C      1  0.5250270000000  0.5418770000000  0.3930060000000 1.0
C      1  0.4995370000000  0.5441340000000  0.4142700000000 1.0
C      1  0.4198060000000  0.4383890000000  0.4550010000000 1.0
C      1  0.5344190000000  0.4845680000000  0.5018520000000 1.0
C      1  0.5103930000000  0.4524970000000  0.4958320000000 1.0
C      1  0.5028890000000  0.5714850000000  0.5901120000000 1.0
C      1  0.4117460000000  0.5435880000000  0.4286660000000 1.0
C      1  0.3917010000000  0.4666050000000  0.4788510000000 1.0
C      1  0.6021450000000  0.5429850000000  0.5152810000000 1.0
C      1  0.5859430000000  0.4980220000000  0.4401580000000 1.0
C      1  0.4967440000000  0.4709590000000  0.5990040000000 1.0
C      1  0.5320300000000  0.5406720000000  0.5039370000000 1.0
C      1  0.4494200000000  0.4560630000000  0.5733200000000 1.0
C      1  0.5188420000000  0.5125940000000  0.6093540000000 1.0
C      1  0.4339730000000  0.4909890000000  0.5309150000000 1.0
C      1  0.4213460000000  0.5134350000000  0.4161060000000 1.0
C      1  0.4934570000000  0.3942530000000  0.5545820000000 1.0
C      1  0.5732990000000  0.4696120000000  0.4153170000000 1.0
C      1  0.5539830000000  0.4548070000000  0.5755550000000 1.0
C      1  0.4513990000000  0.4345480000000  0.4168070000000 1.0
C      1  0.3899210000000  0.5016080000000  0.5795360000000 1.0
C      1  0.5501100000000  0.5038170000000  0.5728890000000 1.0
C      1  0.5701950000000  0.4466270000000  0.4383960000000 1.0
C      1  0.5091700000000  0.4372040000000  0.5253190000000 1.0
C      1  0.4436970000000  0.5891690000000  0.4499460000000 1.0
C      1  0.4008850000000  0.4383980000000  0.4780750000000 1.0
C      1  0.4400310000000  0.4851460000000  0.5870290000000 1.0
C      1  0.5103820000000  0.5180650000000  0.4933110000000 1.0
END
