TITL C-2848499-1157-637 -0.000347327488144943 125000 -880.066885676059 0 0 165 (C1) n - 1
REM
REM in /home/bkarasulu/work/CARBON/AIRSS/Generating-Clusters/AIREBO/with-SteepDescent/Only-C1/SD-CG-opt/Try1-1.4A-POS3A/HFTN-CG
REM
REM
REM
REM
REM
REM ./C.cell (11c1c37f851c82e70ff6c80c92926a4b)
REM
REM compiler GCC version 9.2.1 20190827 (Red Hat 9.2.1-1)
REM options -cpp -mtune=generic -march=x86-64 -g -O0 -fpre-include=/usr/include/finclude/math-vector-fortran.h
REM seed -18996364 -335713088 522578443 -448231680 -628209070 463637509 -1634824199 1319428497 1602957689 -1656449067 -763179982 -1582543120 967493726 451172334 113698698 -1668882353 -1914735783 -403757997 -2097253313 449208732 -612090732 -2020966258 388689712 -1063409261 -395883085 1630089211 -650510379 -2050558416 -2011655723 1347672136 -1590097747 -1217463724 -605936252
REM
CELL 1.54180   50.00000   50.00000   50.00000   90.00000   90.00000   90.00000
LATT -1
SFAC C  
C      1  0.5178260000000  0.4603770000000  0.5485230000000 1.0
C      1  0.3942830000000  0.4522420000000  0.4978790000000 1.0
C      1  0.4300800000000  0.4538330000000  0.4597000000000 1.0
C      1  0.5408290000000  0.3936460000000  0.4462120000000 1.0
C      1  0.4492840000000  0.5856760000000  0.5153180000000 1.0
C      1  0.4336940000000  0.4844390000000  0.5040630000000 1.0
C      1  0.4508590000000  0.5387660000000  0.6019780000000 1.0
C      1  0.5633170000000  0.5685900000000  0.5427380000000 1.0
C      1  0.5855680000000  0.5799370000000  0.4810190000000 1.0
C      1  0.5518540000000  0.4164970000000  0.4966830000000 1.0
C      1  0.5126800000000  0.5051550000000  0.6084700000000 1.0
C      1  0.4465760000000  0.5903330000000  0.4525500000000 1.0
C      1  0.5189300000000  0.4709440000000  0.3915870000000 1.0
C      1  0.4899310000000  0.4571210000000  0.5293490000000 1.0
C      1  0.4603790000000  0.5074700000000  0.4853430000000 1.0
C      1  0.5588200000000  0.4785860000000  0.5521620000000 1.0
C      1  0.5005180000000  0.5315040000000  0.4603160000000 1.0
C      1  0.3872810000000  0.4378180000000  0.5472790000000 1.0
C      1  0.5590320000000  0.5946050000000  0.4957400000000 1.0
C      1  0.4584080000000  0.5726400000000  0.4334210000000 1.0
C      1  0.5328580000000  0.5687980000000  0.4359700000000 1.0
C      1  0.4746750000000  0.4938360000000  0.4044030000000 1.0
C      1  0.4730890000000  0.5376120000000  0.4458920000000 1.0
C      1  0.5944410000000  0.4604110000000  0.5402280000000 1.0
C      1  0.4366610000000  0.4892010000000  0.5924520000000 1.0
C      1  0.4077850000000  0.5004680000000  0.4891000000000 1.0
C      1  0.5405030000000  0.4365190000000  0.5762300000000 1.0
C      1  0.4799890000000  0.5711090000000  0.5165410000000 1.0
C      1  0.4972300000000  0.4225630000000  0.4782500000000 1.0
C      1  0.4050870000000  0.4860000000000  0.4301240000000 1.0
C      1  0.4293090000000  0.4334020000000  0.4940320000000 1.0
C      1  0.4945350000000  0.4591650000000  0.4387060000000 1.0
C      1  0.4679360000000  0.5802300000000  0.5689200000000 1.0
C      1  0.5297490000000  0.5773390000000  0.4975860000000 1.0
C      1  0.5553400000000  0.5161280000000  0.4040890000000 1.0
C      1  0.4247350000000  0.4658090000000  0.4299780000000 1.0
C      1  0.4930610000000  0.5170990000000  0.4871070000000 1.0
C      1  0.5375840000000  0.5492480000000  0.4823890000000 1.0
C      1  0.4311150000000  0.5514470000000  0.4658140000000 1.0
C      1  0.5341950000000  0.6048040000000  0.4782430000000 1.0
C      1  0.5323070000000  0.5255850000000  0.6029500000000 1.0
C      1  0.5349270000000  0.4231420000000  0.5515480000000 1.0
C      1  0.4846920000000  0.3874440000000  0.4372990000000 1.0
C      1  0.5358620000000  0.5956110000000  0.4323100000000 1.0
C      1  0.5711170000000  0.4353810000000  0.4519680000000 1.0
C      1  0.4367960000000  0.5099660000000  0.5455170000000 1.0
C      1  0.4303130000000  0.4531830000000  0.5151400000000 1.0
C      1  0.4574040000000  0.5398600000000  0.3970330000000 1.0
C      1  0.5470710000000  0.4184090000000  0.4528760000000 1.0
C      1  0.5430410000000  0.4981330000000  0.4919190000000 1.0
C      1  0.5009010000000  0.3977310000000  0.5093530000000 1.0
C      1  0.4565850000000  0.4516650000000  0.5331590000000 1.0
C      1  0.4798130000000  0.5464500000000  0.5882310000000 1.0
C      1  0.4304230000000  0.5219270000000  0.5919220000000 1.0
C      1  0.4120140000000  0.5092830000000  0.4408840000000 1.0
C      1  0.4904590000000  0.5185420000000  0.5719720000000 1.0
C      1  0.5607910000000  0.5182850000000  0.5478750000000 1.0
C      1  0.4706910000000  0.4459640000000  0.5727390000000 1.0
C      1  0.4721640000000  0.4047070000000  0.4637790000000 1.0
C      1  0.5134110000000  0.4250610000000  0.5252550000000 1.0
C      1  0.4289680000000  0.4842840000000  0.5614210000000 1.0
C      1  0.5126530000000  0.4907280000000  0.4785030000000 1.0
C      1  0.4853060000000  0.4907150000000  0.5551490000000 1.0
C      1  0.5736220000000  0.5699930000000  0.5112960000000 1.0
C      1  0.4100960000000  0.5348760000000  0.5300670000000 1.0
C      1  0.4803380000000  0.5907100000000  0.5400020000000 1.0
C      1  0.5514840000000  0.5022080000000  0.5207740000000 1.0
C      1  0.5241260000000  0.5249370000000  0.4985170000000 1.0
C      1  0.4744660000000  0.4777700000000  0.4876050000000 1.0
C      1  0.6014490000000  0.5108660000000  0.5147180000000 1.0
C      1  0.4307420000000  0.5346310000000  0.4407750000000 1.0
C      1  0.5667790000000  0.5447820000000  0.4810180000000 1.0
C      1  0.5250580000000  0.5053690000000  0.5355380000000 1.0
C      1  0.5520250000000  0.5061060000000  0.4423650000000 1.0
C      1  0.5229720000000  0.5884330000000  0.5581120000000 1.0
C      1  0.5685580000000  0.5557220000000  0.4240320000000 1.0
C      1  0.5838330000000  0.4376120000000  0.5265630000000 1.0
C      1  0.6063680000000  0.5109870000000  0.4101790000000 1.0
C      1  0.4078220000000  0.4834730000000  0.5379050000000 1.0
C      1  0.5196930000000  0.4674080000000  0.5019360000000 1.0
C      1  0.4393000000000  0.5850780000000  0.5478220000000 1.0
C      1  0.5733870000000  0.5014500000000  0.5726950000000 1.0
C      1  0.4622740000000  0.5382580000000  0.5334400000000 1.0
C      1  0.4009460000000  0.4541360000000  0.5298980000000 1.0
C      1  0.5243170000000  0.5221460000000  0.5715780000000 1.0
C      1  0.5831370000000  0.4468310000000  0.4775830000000 1.0
C      1  0.5828590000000  0.4813800000000  0.4457250000000 1.0
C      1  0.4106320000000  0.5608240000000  0.4800880000000 1.0
C      1  0.4454500000000  0.4254070000000  0.4682680000000 1.0
C      1  0.5660680000000  0.4573950000000  0.4355690000000 1.0
C      1  0.4452770000000  0.5508970000000  0.4204110000000 1.0
C      1  0.5261680000000  0.5245450000000  0.4467700000000 1.0
C      1  0.5795260000000  0.5045490000000  0.4224080000000 1.0
C      1  0.4827960000000  0.5149040000000  0.6049000000000 1.0
C      1  0.4579940000000  0.4766410000000  0.5506020000000 1.0
C      1  0.5282930000000  0.4896930000000  0.5622110000000 1.0
C      1  0.5307660000000  0.6128340000000  0.4533580000000 1.0
C      1  0.4312860000000  0.5118170000000  0.4687840000000 1.0
C      1  0.5630480000000  0.4530260000000  0.5741880000000 1.0
C      1  0.4504340000000  0.5103750000000  0.5168340000000 1.0
C      1  0.5179990000000  0.4798660000000  0.5994670000000 1.0
C      1  0.4622490000000  0.5584120000000  0.4705290000000 1.0
C      1  0.5432720000000  0.4635020000000  0.5259430000000 1.0
C      1  0.4649450000000  0.4908820000000  0.6074630000000 1.0
C      1  0.5481670000000  0.5917890000000  0.5563630000000 1.0
C      1  0.4882500000000  0.5630040000000  0.4860480000000 1.0
C      1  0.5382450000000  0.5437940000000  0.4142170000000 1.0
C      1  0.4081460000000  0.5568600000000  0.5061110000000 1.0
C      1  0.5796440000000  0.5622880000000  0.4548540000000 1.0
C      1  0.4444920000000  0.5559780000000  0.5646370000000 1.0
C      1  0.5915420000000  0.4574910000000  0.5682100000000 1.0
C      1  0.4634570000000  0.4252360000000  0.5190620000000 1.0
C      1  0.4903190000000  0.4314140000000  0.5495270000000 1.0
C      1  0.5402860000000  0.4741340000000  0.4468220000000 1.0
C      1  0.5818320000000  0.4896360000000  0.5296800000000 1.0
C      1  0.5203970000000  0.5526830000000  0.5178360000000 1.0
C      1  0.4791960000000  0.5233280000000  0.3951360000000 1.0
C      1  0.4832250000000  0.5539920000000  0.5551550000000 1.0
C      1  0.4959550000000  0.4689430000000  0.4065280000000 1.0
C      1  0.4530120000000  0.4746410000000  0.4643220000000 1.0
C      1  0.5232280000000  0.4346710000000  0.4941130000000 1.0
C      1  0.4893780000000  0.5664260000000  0.4381000000000 1.0
C      1  0.5206240000000  0.4475640000000  0.5921150000000 1.0
C      1  0.5407460000000  0.5444470000000  0.5518520000000 1.0
C      1  0.5081550000000  0.5338440000000  0.4018230000000 1.0
C      1  0.5114760000000  0.5604440000000  0.5478170000000 1.0
C      1  0.5358000000000  0.4928200000000  0.3978350000000 1.0
C      1  0.4690650000000  0.4325860000000  0.4916530000000 1.0
C      1  0.5769280000000  0.4272970000000  0.5000870000000 1.0
C      1  0.4580560000000  0.5243830000000  0.5634540000000 1.0
C      1  0.5339590000000  0.4446810000000  0.4634150000000 1.0
C      1  0.5746920000000  0.5290500000000  0.4531690000000 1.0
C      1  0.4129940000000  0.4679720000000  0.4823550000000 1.0
C      1  0.5893620000000  0.5103240000000  0.4723600000000 1.0
C      1  0.4684950000000  0.4777700000000  0.4399050000000 1.0
C      1  0.4049490000000  0.5062910000000  0.5211600000000 1.0
C      1  0.4852960000000  0.4518120000000  0.4683180000000 1.0
C      1  0.5643680000000  0.4651650000000  0.4992530000000 1.0
C      1  0.4824380000000  0.4026330000000  0.5360250000000 1.0
C      1  0.6033080000000  0.4714570000000  0.4708220000000 1.0
C      1  0.5545090000000  0.4338370000000  0.5325420000000 1.0
C      1  0.4859450000000  0.3840490000000  0.4871750000000 1.0
C      1  0.4957230000000  0.5085150000000  0.5279860000000 1.0
C      1  0.5194910000000  0.5089260000000  0.4193560000000 1.0
C      1  0.5866120000000  0.5385140000000  0.5070520000000 1.0
C      1  0.4448920000000  0.5852550000000  0.4818050000000 1.0
C      1  0.4368090000000  0.5548780000000  0.5225510000000 1.0
C      1  0.5129690000000  0.5620310000000  0.4627170000000 1.0
C      1  0.4192220000000  0.5336460000000  0.5624490000000 1.0
C      1  0.4474630000000  0.4578890000000  0.5845640000000 1.0
C      1  0.5670540000000  0.4875450000000  0.4752810000000 1.0
C      1  0.4920800000000  0.4814120000000  0.5114320000000 1.0
C      1  0.5095340000000  0.4884880000000  0.4446570000000 1.0
C      1  0.4822640000000  0.5067490000000  0.4349470000000 1.0
C      1  0.4556200000000  0.6157290000000  0.5171670000000 1.0
C      1  0.5784550000000  0.5413600000000  0.5380960000000 1.0
C      1  0.6029420000000  0.4912600000000  0.4924190000000 1.0
C      1  0.4697470000000  0.3628600000000  0.4963040000000 1.0
C      1  0.4804080000000  0.4679980000000  0.6045500000000 1.0
C      1  0.4489080000000  0.4737970000000  0.4150660000000 1.0
C      1  0.4897390000000  0.5386620000000  0.5134050000000 1.0
C      1  0.5001890000000  0.3770920000000  0.4581880000000 1.0
C      1  0.5029950000000  0.5644580000000  0.4100200000000 1.0
C      1  0.4977800000000  0.4663620000000  0.5753440000000 1.0
C      1  0.4495780000000  0.3976920000000  0.5316610000000 1.0
END
