TITL C-2847956-8218-701 0.000226155288012762 125000 -645.425699150432 0 0 128 (C1) n - 1
REM
REM in /home/bkarasulu/work/CARBON/AIRSS/Generating-Clusters/AIREBO/with-SteepDescent/Only-C1/SD-CG-opt/Try1-1.4A-POS3A/HFTN-CG
REM
REM
REM
REM
REM
REM ./C.cell (11c1c37f851c82e70ff6c80c92926a4b)
REM
REM compiler GCC version 9.2.1 20190827 (Red Hat 9.2.1-1)
REM options -cpp -mtune=generic -march=x86-64 -g -O0 -fpre-include=/usr/include/finclude/math-vector-fortran.h
REM seed -2124536709 1461650766 -1134971708 1982322996 984564933 2098569540 -394299443 1478539101 -148136215 486226686 -639402466 -953750344 235505215 1448533953 -495548484 204911093 777186781 -733474518 765300711 -1539828675 -1100576952 -1160287607 803620026 -1284627395 1501603233 435789770 806786488 648067764 -657531693 -2041648152 1630429675 -1312307820 -2088573136
REM
CELL 1.54180   50.00000   50.00000   50.00000   90.00000   90.00000   90.00000
LATT -1
SFAC C  
C      1  0.4725470000000  0.4486960000000  0.5621180000000 1.0
C      1  0.4522420000000  0.5482530000000  0.4184140000000 1.0
C      1  0.4674790000000  0.4875010000000  0.3915980000000 1.0
C      1  0.4969180000000  0.4797730000000  0.5595350000000 1.0
C      1  0.5390210000000  0.4787490000000  0.5236430000000 1.0
C      1  0.5648680000000  0.4489050000000  0.4898250000000 1.0
C      1  0.4629250000000  0.5575240000000  0.4742520000000 1.0
C      1  0.5102000000000  0.4306560000000  0.4418830000000 1.0
C      1  0.4274660000000  0.4619810000000  0.5091910000000 1.0
C      1  0.4847630000000  0.5736220000000  0.5596220000000 1.0
C      1  0.4499540000000  0.4780530000000  0.4097820000000 1.0
C      1  0.4247640000000  0.4759990000000  0.5400570000000 1.0
C      1  0.4866850000000  0.4271280000000  0.5481820000000 1.0
C      1  0.5192270000000  0.5086530000000  0.4929440000000 1.0
C      1  0.4259330000000  0.5440530000000  0.5213140000000 1.0
C      1  0.5338520000000  0.4526780000000  0.4399790000000 1.0
C      1  0.5273870000000  0.4552980000000  0.5019190000000 1.0
C      1  0.4310050000000  0.5476990000000  0.5479770000000 1.0
C      1  0.5660730000000  0.5068710000000  0.5513800000000 1.0
C      1  0.4274350000000  0.5086170000000  0.4477510000000 1.0
C      1  0.4595310000000  0.4265820000000  0.5002210000000 1.0
C      1  0.5075340000000  0.4021620000000  0.4968410000000 1.0
C      1  0.4838210000000  0.5818500000000  0.5066370000000 1.0
C      1  0.4648040000000  0.5152350000000  0.5857530000000 1.0
C      1  0.4339500000000  0.5006170000000  0.5187340000000 1.0
C      1  0.4245280000000  0.5413260000000  0.4565700000000 1.0
C      1  0.4427650000000  0.4580580000000  0.4554920000000 1.0
C      1  0.4778080000000  0.5374630000000  0.5444990000000 1.0
C      1  0.5673220000000  0.5300260000000  0.5730510000000 1.0
C      1  0.5556390000000  0.5663980000000  0.5164950000000 1.0
C      1  0.5614160000000  0.4706180000000  0.5761560000000 1.0
C      1  0.4374690000000  0.4336880000000  0.5168710000000 1.0
C      1  0.5784180000000  0.4753190000000  0.5470800000000 1.0
C      1  0.5551310000000  0.4306730000000  0.4323540000000 1.0
C      1  0.4971040000000  0.5271490000000  0.4122190000000 1.0
C      1  0.5095330000000  0.5590140000000  0.4862330000000 1.0
C      1  0.5127100000000  0.4322050000000  0.4817260000000 1.0
C      1  0.5240190000000  0.5389180000000  0.3984790000000 1.0
C      1  0.5796480000000  0.4733400000000  0.4757360000000 1.0
C      1  0.5433880000000  0.5416230000000  0.5360470000000 1.0
C      1  0.5425290000000  0.5307700000000  0.5040900000000 1.0
C      1  0.4321490000000  0.5216490000000  0.5593560000000 1.0
C      1  0.5449510000000  0.4975950000000  0.4729160000000 1.0
C      1  0.5688170000000  0.4897390000000  0.4499920000000 1.0
C      1  0.5142980000000  0.5056810000000  0.5704590000000 1.0
C      1  0.4636210000000  0.5611870000000  0.5245680000000 1.0
C      1  0.4874060000000  0.5609260000000  0.4514210000000 1.0
C      1  0.5277850000000  0.5845810000000  0.5193500000000 1.0
C      1  0.4581120000000  0.5099920000000  0.5407500000000 1.0
C      1  0.4524140000000  0.5665810000000  0.5561030000000 1.0
C      1  0.5402850000000  0.4639340000000  0.4716640000000 1.0
C      1  0.5744480000000  0.5402680000000  0.5109660000000 1.0
C      1  0.5131390000000  0.5561030000000  0.5577890000000 1.0
C      1  0.4928790000000  0.4929490000000  0.5184010000000 1.0
C      1  0.4654660000000  0.4398720000000  0.4719100000000 1.0
C      1  0.5874080000000  0.5213100000000  0.5291920000000 1.0
C      1  0.4541290000000  0.5898810000000  0.4799030000000 1.0
C      1  0.4564900000000  0.5356370000000  0.4497060000000 1.0
C      1  0.4825640000000  0.5192880000000  0.4585900000000 1.0
C      1  0.5566480000000  0.4749660000000  0.4281600000000 1.0
C      1  0.4797230000000  0.4200520000000  0.4525980000000 1.0
C      1  0.4069550000000  0.4874760000000  0.5008490000000 1.0
C      1  0.4223670000000  0.5559700000000  0.4823530000000 1.0
C      1  0.4813050000000  0.5507970000000  0.4226320000000 1.0
C      1  0.5110710000000  0.5378380000000  0.4596760000000 1.0
C      1  0.4380520000000  0.4670900000000  0.5700690000000 1.0
C      1  0.5751920000000  0.5310960000000  0.4809150000000 1.0
C      1  0.4726140000000  0.4692550000000  0.5136820000000 1.0
C      1  0.4645710000000  0.4589360000000  0.4303160000000 1.0
C      1  0.5353820000000  0.5086640000000  0.5366070000000 1.0
C      1  0.4739850000000  0.5010820000000  0.4815880000000 1.0
C      1  0.4238730000000  0.4778650000000  0.4729640000000 1.0
C      1  0.4955390000000  0.4504320000000  0.5128000000000 1.0
C      1  0.5450970000000  0.4326990000000  0.5205870000000 1.0
C      1  0.4415100000000  0.5752020000000  0.5028420000000 1.0
C      1  0.4789140000000  0.4314380000000  0.4227050000000 1.0
C      1  0.4989570000000  0.5937040000000  0.5361350000000 1.0
C      1  0.5617710000000  0.4872110000000  0.5008770000000 1.0
C      1  0.4936350000000  0.5234180000000  0.5996370000000 1.0
C      1  0.5595610000000  0.4155480000000  0.5461470000000 1.0
C      1  0.5875930000000  0.5062890000000  0.4730450000000 1.0
C      1  0.5435870000000  0.5231780000000  0.4225070000000 1.0
C      1  0.5614370000000  0.4181400000000  0.4871140000000 1.0
C      1  0.4712800000000  0.5179770000000  0.5103910000000 1.0
C      1  0.4917070000000  0.5851100000000  0.4749350000000 1.0
C      1  0.5608900000000  0.5439140000000  0.4441330000000 1.0
C      1  0.5463460000000  0.5722040000000  0.4418560000000 1.0
C      1  0.4319330000000  0.5101380000000  0.4800020000000 1.0
C      1  0.5387630000000  0.4061590000000  0.5014380000000 1.0
C      1  0.4645520000000  0.4880450000000  0.5659500000000 1.0
C      1  0.5133380000000  0.4538730000000  0.5622230000000 1.0
C      1  0.4925100000000  0.4696930000000  0.4405000000000 1.0
C      1  0.5323320000000  0.4810230000000  0.5854000000000 1.0
C      1  0.4130590000000  0.5015370000000  0.5592130000000 1.0
C      1  0.5178620000000  0.4735490000000  0.4181380000000 1.0
C      1  0.4468660000000  0.5364250000000  0.4955620000000 1.0
C      1  0.4567130000000  0.4624820000000  0.5363310000000 1.0
C      1  0.5156130000000  0.4365860000000  0.5352170000000 1.0
C      1  0.4952930000000  0.4573390000000  0.4701100000000 1.0
C      1  0.5186870000000  0.5351980000000  0.5819140000000 1.0
C      1  0.5852480000000  0.4919900000000  0.5200700000000 1.0
C      1  0.5070840000000  0.4043040000000  0.4632110000000 1.0
C      1  0.5435970000000  0.4931680000000  0.4076910000000 1.0
C      1  0.4948280000000  0.4941180000000  0.4034720000000 1.0
C      1  0.4992030000000  0.4821230000000  0.4867960000000 1.0
C      1  0.4355380000000  0.4855680000000  0.4355530000000 1.0
C      1  0.5380250000000  0.5747770000000  0.4895200000000 1.0
C      1  0.5241440000000  0.5498620000000  0.4306770000000 1.0
C      1  0.5199370000000  0.4363960000000  0.5870500000000 1.0
C      1  0.5390270000000  0.5888340000000  0.4628070000000 1.0
C      1  0.5275600000000  0.5047090000000  0.4445760000000 1.0
C      1  0.4769470000000  0.4675380000000  0.5900900000000 1.0
C      1  0.5447390000000  0.5478970000000  0.5673140000000 1.0
C      1  0.4520550000000  0.4776270000000  0.4915370000000 1.0
C      1  0.4109970000000  0.5211150000000  0.5042770000000 1.0
C      1  0.5148770000000  0.6030470000000  0.4618140000000 1.0
C      1  0.5428140000000  0.5314230000000  0.4700950000000 1.0
C      1  0.4864540000000  0.4184090000000  0.5150500000000 1.0
C      1  0.4979080000000  0.5029900000000  0.4361630000000 1.0
C      1  0.5014460000000  0.4899930000000  0.5977810000000 1.0
C      1  0.5034850000000  0.5616500000000  0.5256620000000 1.0
C      1  0.5403530000000  0.4640280000000  0.5502870000000 1.0
C      1  0.5019520000000  0.5139530000000  0.5398750000000 1.0
C      1  0.4360210000000  0.4394330000000  0.5503590000000 1.0
C      1  0.5612380000000  0.4412210000000  0.5586690000000 1.0
C      1  0.4796370000000  0.5442330000000  0.5759790000000 1.0
C      1  0.5006980000000  0.5343440000000  0.5055440000000 1.0
C      1  0.5709360000000  0.4547400000000  0.5222830000000 1.0
END
