TITL C-2848507-1641-377 0.000191479653179496 125000 -258.788107119057 0 0 46 (C1) n - 1
REM
REM in /home/bkarasulu/work/CARBON/AIRSS/Generating-Clusters/AIREBO/with-SteepDescent/Only-C1/SD-CG-opt/Try1-1.4A-POS3A/HFTN-CG
REM
REM
REM
REM
REM
REM ./C.cell (11c1c37f851c82e70ff6c80c92926a4b)
REM
REM compiler GCC version 9.2.1 20190827 (Red Hat 9.2.1-1)
REM options -cpp -mtune=generic -march=x86-64 -g -O0 -fpre-include=/usr/include/finclude/math-vector-fortran.h
REM seed -1485382904 -1469855284 354294422 1268448289 -1546913655 1325184871 1231123761 1091593020 -659577840 730118323 26696682 -548295527 -199180671 1665994979 2066436937 -1224979931 -1369894954 1321262103 1474682375 124761647 1867624227 -389816346 -1596041109 -783750067 1294117646 1992419570 -1245750906 396529702 -1157192166 799389336 1392775869 1893915919 -1425289722
REM
CELL 1.54180   50.00000   50.00000   50.00000   90.00000   90.00000   90.00000
LATT -1
SFAC C  
C      1  0.4507760000000  0.4627270000000  0.4613020000000 1.0
C      1  0.4696800000000  0.4517300000000  0.5579270000000 1.0
C      1  0.5065740000000  0.5113530000000  0.5786520000000 1.0
C      1  0.5217820000000  0.4686800000000  0.5643720000000 1.0
C      1  0.4929490000000  0.4210060000000  0.4750850000000 1.0
C      1  0.4965620000000  0.5882530000000  0.4683400000000 1.0
C      1  0.5120840000000  0.4668390000000  0.4879790000000 1.0
C      1  0.4701420000000  0.5823740000000  0.4611820000000 1.0
C      1  0.4532340000000  0.5634680000000  0.4712810000000 1.0
C      1  0.5083130000000  0.5046110000000  0.5185950000000 1.0
C      1  0.4507030000000  0.4551590000000  0.5087990000000 1.0
C      1  0.4711080000000  0.4664770000000  0.5272200000000 1.0
C      1  0.4776210000000  0.4739940000000  0.5802510000000 1.0
C      1  0.4589960000000  0.4825980000000  0.5545980000000 1.0
C      1  0.5134480000000  0.5549300000000  0.5297650000000 1.0
C      1  0.4433260000000  0.3968830000000  0.5046510000000 1.0
C      1  0.5030980000000  0.4744990000000  0.4574160000000 1.0
C      1  0.5041890000000  0.4839560000000  0.5802690000000 1.0
C      1  0.4621980000000  0.4134010000000  0.4819950000000 1.0
C      1  0.5411300000000  0.5674970000000  0.4615240000000 1.0
C      1  0.5196510000000  0.4588810000000  0.5382470000000 1.0
C      1  0.5452890000000  0.4916600000000  0.4593680000000 1.0
C      1  0.5311190000000  0.4354250000000  0.5298500000000 1.0
C      1  0.5201170000000  0.5697650000000  0.5069950000000 1.0
C      1  0.4678030000000  0.4339320000000  0.4567000000000 1.0
C      1  0.5138550000000  0.4356180000000  0.4839000000000 1.0
C      1  0.5002920000000  0.4738450000000  0.5190710000000 1.0
C      1  0.5229320000000  0.4906670000000  0.4160670000000 1.0
C      1  0.4794840000000  0.4644730000000  0.4494190000000 1.0
C      1  0.5095120000000  0.5432000000000  0.5758690000000 1.0
C      1  0.5421640000000  0.5647170000000  0.4898330000000 1.0
C      1  0.4570360000000  0.5432060000000  0.4888780000000 1.0
C      1  0.5759100000000  0.5438390000000  0.4280800000000 1.0
C      1  0.5696460000000  0.4998260000000  0.4517880000000 1.0
C      1  0.4692180000000  0.5356950000000  0.5113810000000 1.0
C      1  0.4476370000000  0.4283160000000  0.5072110000000 1.0
C      1  0.5364700000000  0.4879380000000  0.4856990000000 1.0
C      1  0.5196920000000  0.5839580000000  0.4525310000000 1.0
C      1  0.5597600000000  0.5564230000000  0.4444460000000 1.0
C      1  0.4413690000000  0.4695170000000  0.4865560000000 1.0
C      1  0.5025430000000  0.5894400000000  0.4962270000000 1.0
C      1  0.5322330000000  0.5074590000000  0.5054490000000 1.0
C      1  0.4879200000000  0.5271310000000  0.5582900000000 1.0
C      1  0.5238150000000  0.4853940000000  0.4423470000000 1.0
C      1  0.5224180000000  0.5598310000000  0.5564390000000 1.0
C      1  0.4942010000000  0.5294100000000  0.5281600000000 1.0
END
