TITL C-2847949-8115-280 -0.00145308005611286 125000 -534.1939639842 0 0 102 (C1) n - 1
REM
REM in /home/bkarasulu/work/CARBON/AIRSS/Generating-Clusters/AIREBO/with-SteepDescent/Only-C1/SD-CG-opt/Try1-1.4A-POS3A/HFTN-CG
REM
REM
REM
REM
REM
REM ./C.cell (11c1c37f851c82e70ff6c80c92926a4b)
REM
REM compiler GCC version 9.2.1 20190827 (Red Hat 9.2.1-1)
REM options -cpp -mtune=generic -march=x86-64 -g -O0 -fpre-include=/usr/include/finclude/math-vector-fortran.h
REM seed 1545827439 -682083258 -1088146307 1181934898 1859641267 789968875 -218417179 -1821599854 1255720193 -1041480802 1064393276 1051684152 -883385472 -1375682171 187474313 1904059965 -961718712 364855793 -1318847425 578717670 -724604533 1671228597 423836143 -343036859 -1489892751 -1596745241 868970821 -2057901230 -48295158 -1277992914 -808105325 1228241571 330220124
REM
CELL 1.54180   50.00000   50.00000   50.00000   90.00000   90.00000   90.00000
LATT -1
SFAC C  
C      1  0.4329920000000  0.4900730000000  0.4901390000000 1.0
C      1  0.5796590000000  0.4956970000000  0.5459340000000 1.0
C      1  0.4368910000000  0.5391870000000  0.4818950000000 1.0
C      1  0.5001320000000  0.4231160000000  0.4394110000000 1.0
C      1  0.4528030000000  0.5199900000000  0.5783340000000 1.0
C      1  0.4992860000000  0.5197660000000  0.4121030000000 1.0
C      1  0.4115080000000  0.4638640000000  0.4873920000000 1.0
C      1  0.5337420000000  0.5736830000000  0.5336000000000 1.0
C      1  0.5457700000000  0.5557470000000  0.4337570000000 1.0
C      1  0.4865670000000  0.5318440000000  0.4496630000000 1.0
C      1  0.4387820000000  0.4488280000000  0.5356700000000 1.0
C      1  0.4247780000000  0.5413980000000  0.5493320000000 1.0
C      1  0.5342410000000  0.4317090000000  0.4660030000000 1.0
C      1  0.5130840000000  0.4846840000000  0.5487160000000 1.0
C      1  0.4950280000000  0.5826170000000  0.5038950000000 1.0
C      1  0.4754230000000  0.4374150000000  0.5318090000000 1.0
C      1  0.4279450000000  0.5104500000000  0.5445540000000 1.0
C      1  0.4483860000000  0.5692090000000  0.4733350000000 1.0
C      1  0.5198150000000  0.4482830000000  0.4274040000000 1.0
C      1  0.4799230000000  0.5804980000000  0.4735030000000 1.0
C      1  0.5036720000000  0.4464490000000  0.4639040000000 1.0
C      1  0.4775020000000  0.4788060000000  0.4347680000000 1.0
C      1  0.4490870000000  0.4663850000000  0.5616820000000 1.0
C      1  0.5388250000000  0.4635960000000  0.5452810000000 1.0
C      1  0.4373550000000  0.4515080000000  0.4810590000000 1.0
C      1  0.5065650000000  0.4150880000000  0.4894170000000 1.0
C      1  0.4317010000000  0.4805500000000  0.5289210000000 1.0
C      1  0.5789680000000  0.4516240000000  0.5127550000000 1.0
C      1  0.5395080000000  0.4777430000000  0.4806870000000 1.0
C      1  0.5911230000000  0.5398640000000  0.4898510000000 1.0
C      1  0.5217260000000  0.5011500000000  0.4978290000000 1.0
C      1  0.5322260000000  0.4563950000000  0.5061360000000 1.0
C      1  0.4669060000000  0.5199100000000  0.5285190000000 1.0
C      1  0.4414040000000  0.5461680000000  0.4504130000000 1.0
C      1  0.5238990000000  0.4330980000000  0.5473370000000 1.0
C      1  0.4985800000000  0.5427200000000  0.5717860000000 1.0
C      1  0.4616540000000  0.4203310000000  0.4782890000000 1.0
C      1  0.5250010000000  0.5662110000000  0.5016120000000 1.0
C      1  0.5658690000000  0.5376380000000  0.5110730000000 1.0
C      1  0.5569200000000  0.4415120000000  0.4676420000000 1.0
C      1  0.4871860000000  0.4909760000000  0.5698310000000 1.0
C      1  0.5048670000000  0.5097230000000  0.5329700000000 1.0
C      1  0.5922640000000  0.4847520000000  0.4753390000000 1.0
C      1  0.4997680000000  0.5465210000000  0.4219690000000 1.0
C      1  0.4693530000000  0.5419120000000  0.5750750000000 1.0
C      1  0.5549440000000  0.5583440000000  0.4875270000000 1.0
C      1  0.4529790000000  0.5012170000000  0.4323920000000 1.0
C      1  0.5511170000000  0.4827180000000  0.4487190000000 1.0
C      1  0.5072400000000  0.5663710000000  0.5514050000000 1.0
C      1  0.4707440000000  0.5486720000000  0.5438180000000 1.0
C      1  0.4974950000000  0.5631140000000  0.4576280000000 1.0
C      1  0.5280410000000  0.5669890000000  0.4677510000000 1.0
C      1  0.4710560000000  0.4438070000000  0.4609660000000 1.0
C      1  0.5267910000000  0.4597850000000  0.5768530000000 1.0
C      1  0.4982970000000  0.5917320000000  0.5321910000000 1.0
C      1  0.4095430000000  0.5012770000000  0.4588670000000 1.0
C      1  0.5688270000000  0.5040090000000  0.5151880000000 1.0
C      1  0.4952030000000  0.4588990000000  0.5781890000000 1.0
C      1  0.4939000000000  0.4659470000000  0.5310180000000 1.0
C      1  0.4892800000000  0.4094470000000  0.4686560000000 1.0
C      1  0.5705010000000  0.4642910000000  0.4846960000000 1.0
C      1  0.5454850000000  0.5282830000000  0.5365070000000 1.0
C      1  0.5408900000000  0.4302290000000  0.5234720000000 1.0
C      1  0.5271740000000  0.5060150000000  0.4526490000000 1.0
C      1  0.5607150000000  0.4927680000000  0.5656270000000 1.0
C      1  0.5092320000000  0.5167630000000  0.5720680000000 1.0
C      1  0.4611540000000  0.5803180000000  0.5013280000000 1.0
C      1  0.5570740000000  0.4742850000000  0.5209340000000 1.0
C      1  0.5427000000000  0.5260430000000  0.4297100000000 1.0
C      1  0.4532500000000  0.4701200000000  0.4574430000000 1.0
C      1  0.5262390000000  0.5330090000000  0.5088650000000 1.0
C      1  0.4907170000000  0.5076380000000  0.4689500000000 1.0
C      1  0.4883760000000  0.4519380000000  0.4257230000000 1.0
C      1  0.4804360000000  0.4680610000000  0.5001820000000 1.0
C      1  0.4427390000000  0.5601720000000  0.5407980000000 1.0
C      1  0.5423990000000  0.4622640000000  0.4268400000000 1.0
C      1  0.4616350000000  0.5298000000000  0.4964170000000 1.0
C      1  0.4164990000000  0.5185650000000  0.4852010000000 1.0
C      1  0.4658010000000  0.4881080000000  0.4813660000000 1.0
C      1  0.5529660000000  0.4712660000000  0.5822800000000 1.0
C      1  0.5095140000000  0.4795940000000  0.4647550000000 1.0
C      1  0.5410710000000  0.5205260000000  0.4804830000000 1.0
C      1  0.4585990000000  0.5276520000000  0.4385830000000 1.0
C      1  0.4145190000000  0.5048940000000  0.5147880000000 1.0
C      1  0.5008270000000  0.5406030000000  0.5301700000000 1.0
C      1  0.5556090000000  0.5585840000000  0.5432340000000 1.0
C      1  0.4429880000000  0.5823100000000  0.5251260000000 1.0
C      1  0.5191260000000  0.5688640000000  0.4320330000000 1.0
C      1  0.4973780000000  0.4350100000000  0.5557140000000 1.0
C      1  0.4635670000000  0.4565700000000  0.5824920000000 1.0
C      1  0.4897750000000  0.5117590000000  0.5026930000000 1.0
C      1  0.5049220000000  0.4465320000000  0.4978630000000 1.0
C      1  0.5620320000000  0.5457440000000  0.4580520000000 1.0
C      1  0.5688860000000  0.4272240000000  0.5204730000000 1.0
C      1  0.4518880000000  0.4352970000000  0.5073390000000 1.0
C      1  0.5663640000000  0.5131020000000  0.4493640000000 1.0
C      1  0.5018080000000  0.5001290000000  0.4307700000000 1.0
C      1  0.5737640000000  0.5113400000000  0.4823500000000 1.0
C      1  0.5364520000000  0.5080140000000  0.5574010000000 1.0
C      1  0.4288540000000  0.4891730000000  0.4447590000000 1.0
C      1  0.4635190000000  0.4781880000000  0.5256880000000 1.0
C      1  0.4584130000000  0.4979390000000  0.5530580000000 1.0
END
