TITL C-2848508-1660-244 -0.00194060678596069 125000 -872.142905376771 0 0 159 (C1) n - 1
REM
REM in /home/bkarasulu/work/CARBON/AIRSS/Generating-Clusters/AIREBO/with-SteepDescent/Only-C1/SD-CG-opt/Try1-1.4A-POS3A/HFTN-CG
REM
REM
REM
REM
REM
REM ./C.cell (11c1c37f851c82e70ff6c80c92926a4b)
REM
REM compiler GCC version 9.2.1 20190827 (Red Hat 9.2.1-1)
REM options -cpp -mtune=generic -march=x86-64 -g -O0 -fpre-include=/usr/include/finclude/math-vector-fortran.h
REM seed -1164516181 -115929439 -444445285 -596325842 -1067929126 -2022502959 -227026926 -1210875168 1741662645 675584217 -1118343123 -249488960 -1103179402 -1741548370 1920410582 258436278 1631871413 1586929453 810240024 -149730037 -1094028258 -1014579826 -103450661 285361175 1408424144 -499126633 -565114923 2063697656 1494605616 35006544 -1210887967 859408853 -1253749817
REM
CELL 1.54180   50.00000   50.00000   50.00000   90.00000   90.00000   90.00000
LATT -1
SFAC C  
C      1  0.4614170000000  0.4409650000000  0.4546220000000 1.0
C      1  0.4137080000000  0.4603510000000  0.4935890000000 1.0
C      1  0.4910100000000  0.5735010000000  0.4277070000000 1.0
C      1  0.4331730000000  0.5029310000000  0.5272030000000 1.0
C      1  0.4397190000000  0.5378760000000  0.6040390000000 1.0
C      1  0.5909210000000  0.4986230000000  0.4522300000000 1.0
C      1  0.5472130000000  0.5700420000000  0.4491140000000 1.0
C      1  0.5290310000000  0.4898600000000  0.5366440000000 1.0
C      1  0.4307580000000  0.5701280000000  0.5109100000000 1.0
C      1  0.6002050000000  0.5149060000000  0.5143940000000 1.0
C      1  0.5401860000000  0.5032700000000  0.4902740000000 1.0
C      1  0.4812660000000  0.5382920000000  0.4116010000000 1.0
C      1  0.5661060000000  0.4561880000000  0.4331350000000 1.0
C      1  0.4663610000000  0.5300940000000  0.5058830000000 1.0
C      1  0.6075890000000  0.4954970000000  0.4813470000000 1.0
C      1  0.5448020000000  0.5548170000000  0.5009330000000 1.0
C      1  0.4740090000000  0.5793380000000  0.4552100000000 1.0
C      1  0.4088150000000  0.4989350000000  0.4846650000000 1.0
C      1  0.5371580000000  0.5178810000000  0.5494470000000 1.0
C      1  0.4753390000000  0.5356980000000  0.5661940000000 1.0
C      1  0.4906520000000  0.5083650000000  0.4007480000000 1.0
C      1  0.4475520000000  0.4953980000000  0.5812320000000 1.0
C      1  0.5484810000000  0.4554320000000  0.4856800000000 1.0
C      1  0.4571990000000  0.5038990000000  0.4605740000000 1.0
C      1  0.4908060000000  0.5125610000000  0.5483980000000 1.0
C      1  0.4923600000000  0.4129680000000  0.5408500000000 1.0
C      1  0.5415980000000  0.4118600000000  0.5425280000000 1.0
C      1  0.5149900000000  0.4857590000000  0.5965720000000 1.0
C      1  0.4822900000000  0.5041680000000  0.4801470000000 1.0
C      1  0.4530140000000  0.5946450000000  0.5193150000000 1.0
C      1  0.4628760000000  0.4850920000000  0.4368910000000 1.0
C      1  0.5142960000000  0.4968500000000  0.5082170000000 1.0
C      1  0.4342870000000  0.4738450000000  0.4231250000000 1.0
C      1  0.3965290000000  0.4827030000000  0.5080430000000 1.0
C      1  0.5614500000000  0.4028190000000  0.4994980000000 1.0
C      1  0.5141840000000  0.5416620000000  0.5059530000000 1.0
C      1  0.4295490000000  0.5436110000000  0.4448790000000 1.0
C      1  0.4479380000000  0.4510180000000  0.5352340000000 1.0
C      1  0.5864810000000  0.4852480000000  0.5045450000000 1.0
C      1  0.4833700000000  0.4722770000000  0.5700170000000 1.0
C      1  0.5959070000000  0.5471230000000  0.5043940000000 1.0
C      1  0.5000020000000  0.4591940000000  0.4095220000000 1.0
C      1  0.4660350000000  0.4103100000000  0.5109190000000 1.0
C      1  0.5503750000000  0.4439630000000  0.5359230000000 1.0
C      1  0.5717620000000  0.4894780000000  0.5849010000000 1.0
C      1  0.4826880000000  0.4836990000000  0.5380000000000 1.0
C      1  0.4982900000000  0.4020000000000  0.5126480000000 1.0
C      1  0.4741670000000  0.4901580000000  0.5892610000000 1.0
C      1  0.5316790000000  0.4649300000000  0.5885540000000 1.0
C      1  0.5734230000000  0.4691900000000  0.5387290000000 1.0
C      1  0.4451540000000  0.5260960000000  0.5786540000000 1.0
C      1  0.4734580000000  0.5368280000000  0.4762240000000 1.0
C      1  0.5086130000000  0.4279430000000  0.4699890000000 1.0
C      1  0.4080290000000  0.5476480000000  0.5159210000000 1.0
C      1  0.5227090000000  0.5906620000000  0.5087550000000 1.0
C      1  0.5168050000000  0.4416580000000  0.4330900000000 1.0
C      1  0.4033200000000  0.4972990000000  0.5352120000000 1.0
C      1  0.4960530000000  0.5724300000000  0.5767860000000 1.0
C      1  0.4752740000000  0.4405040000000  0.4235530000000 1.0
C      1  0.5592550000000  0.4647100000000  0.5859090000000 1.0
C      1  0.4119700000000  0.4719710000000  0.4445700000000 1.0
C      1  0.5554340000000  0.4862240000000  0.5154380000000 1.0
C      1  0.3867890000000  0.4689900000000  0.5741970000000 1.0
C      1  0.4730490000000  0.4832930000000  0.5053890000000 1.0
C      1  0.5867930000000  0.5639530000000  0.4828950000000 1.0
C      1  0.4434270000000  0.5714420000000  0.4509590000000 1.0
C      1  0.5067260000000  0.5585120000000  0.4016440000000 1.0
C      1  0.4940590000000  0.5109780000000  0.6056750000000 1.0
C      1  0.5255310000000  0.5762410000000  0.5375240000000 1.0
C      1  0.5775250000000  0.4215870000000  0.4948730000000 1.0
C      1  0.4074830000000  0.5307430000000  0.5397830000000 1.0
C      1  0.5170530000000  0.4231430000000  0.4982700000000 1.0
C      1  0.4758920000000  0.4426830000000  0.5731550000000 1.0
C      1  0.5554260000000  0.5771280000000  0.4807550000000 1.0
C      1  0.5309940000000  0.4164840000000  0.4477920000000 1.0
C      1  0.5122320000000  0.4872020000000  0.4041680000000 1.0
C      1  0.5757610000000  0.5153170000000  0.4303290000000 1.0
C      1  0.4102030000000  0.4992110000000  0.4519670000000 1.0
C      1  0.4594090000000  0.5621170000000  0.4223960000000 1.0
C      1  0.4525080000000  0.4059860000000  0.4714360000000 1.0
C      1  0.5696310000000  0.4474850000000  0.5637350000000 1.0
C      1  0.5071690000000  0.5043660000000  0.5717010000000 1.0
C      1  0.4509070000000  0.4903450000000  0.5405800000000 1.0
C      1  0.5617340000000  0.5281070000000  0.4979050000000 1.0
C      1  0.5172660000000  0.4146760000000  0.5593600000000 1.0
C      1  0.4464340000000  0.4622970000000  0.5026180000000 1.0
C      1  0.4401230000000  0.5610440000000  0.5484010000000 1.0
C      1  0.4849360000000  0.4451430000000  0.5070770000000 1.0
C      1  0.5503660000000  0.5422260000000  0.4622680000000 1.0
C      1  0.4133870000000  0.4517270000000  0.4655950000000 1.0
C      1  0.4775770000000  0.4663400000000  0.4537310000000 1.0
C      1  0.5472710000000  0.5033890000000  0.4329120000000 1.0
C      1  0.4404860000000  0.4895880000000  0.4831940000000 1.0
C      1  0.5247740000000  0.5745310000000  0.4316380000000 1.0
C      1  0.5669320000000  0.5196860000000  0.5455920000000 1.0
C      1  0.4967340000000  0.5411920000000  0.5902510000000 1.0
C      1  0.5823060000000  0.4948810000000  0.5568280000000 1.0
C      1  0.5176770000000  0.4475100000000  0.5681840000000 1.0
C      1  0.5417180000000  0.4545410000000  0.4523670000000 1.0
C      1  0.4601840000000  0.4347970000000  0.4880430000000 1.0
C      1  0.5070380000000  0.4939280000000  0.4660330000000 1.0
C      1  0.4883710000000  0.5507190000000  0.5386060000000 1.0
C      1  0.4778760000000  0.5892850000000  0.5327150000000 1.0
C      1  0.4271190000000  0.5388050000000  0.5576200000000 1.0
C      1  0.4984790000000  0.4244630000000  0.5845790000000 1.0
C      1  0.5002200000000  0.5859400000000  0.5531150000000 1.0
C      1  0.5882030000000  0.5402230000000  0.4287310000000 1.0
C      1  0.4401230000000  0.5159960000000  0.5023050000000 1.0
C      1  0.4476310000000  0.4510430000000  0.4078600000000 1.0
C      1  0.4673310000000  0.4887690000000  0.4045990000000 1.0
C      1  0.5462170000000  0.5657420000000  0.5700880000000 1.0
C      1  0.4504760000000  0.4182400000000  0.5330750000000 1.0
C      1  0.5287580000000  0.5508550000000  0.5841210000000 1.0
C      1  0.4567000000000  0.5908000000000  0.4893740000000 1.0
C      1  0.5276870000000  0.4513670000000  0.5123140000000 1.0
C      1  0.4294800000000  0.5805970000000  0.4785550000000 1.0
C      1  0.4094290000000  0.5293250000000  0.4591610000000 1.0
C      1  0.5396530000000  0.4855960000000  0.4612200000000 1.0
C      1  0.5031100000000  0.4696200000000  0.4975130000000 1.0
C      1  0.4785360000000  0.5678570000000  0.4856370000000 1.0
C      1  0.4451280000000  0.4434210000000  0.5810640000000 1.0
C      1  0.5013710000000  0.5931570000000  0.4609240000000 1.0
C      1  0.4503840000000  0.5239230000000  0.4358200000000 1.0
C      1  0.5991480000000  0.4655000000000  0.4725020000000 1.0
C      1  0.5886590000000  0.4667240000000  0.4446860000000 1.0
C      1  0.5350480000000  0.4018960000000  0.5141410000000 1.0
C      1  0.4924950000000  0.5177240000000  0.5165700000000 1.0
C      1  0.5682870000000  0.4156410000000  0.5574060000000 1.0
C      1  0.4057690000000  0.4771300000000  0.5584260000000 1.0
C      1  0.4798350000000  0.5381700000000  0.4451390000000 1.0
C      1  0.5572220000000  0.4652110000000  0.4073950000000 1.0
C      1  0.5768090000000  0.5245060000000  0.4690570000000 1.0
C      1  0.4808270000000  0.4434650000000  0.5395200000000 1.0
C      1  0.5214800000000  0.5780360000000  0.4783830000000 1.0
C      1  0.5060500000000  0.5535650000000  0.4604490000000 1.0
C      1  0.4726400000000  0.4603730000000  0.3893920000000 1.0
C      1  0.5305790000000  0.6197140000000  0.5086310000000 1.0
C      1  0.5581580000000  0.5098680000000  0.5963990000000 1.0
C      1  0.4594360000000  0.5555140000000  0.5219210000000 1.0
C      1  0.4818870000000  0.4079480000000  0.4635180000000 1.0
C      1  0.5213810000000  0.5425280000000  0.5390320000000 1.0
C      1  0.5395050000000  0.4875670000000  0.4086760000000 1.0
C      1  0.5559980000000  0.5644200000000  0.5423990000000 1.0
C      1  0.4127660000000  0.5312700000000  0.4906920000000 1.0
C      1  0.5162720000000  0.5426200000000  0.4298780000000 1.0
C      1  0.5233940000000  0.5290250000000  0.4757490000000 1.0
C      1  0.5790730000000  0.4537830000000  0.4937140000000 1.0
C      1  0.4370640000000  0.4697480000000  0.5614850000000 1.0
C      1  0.4909690000000  0.4154860000000  0.4364330000000 1.0
C      1  0.4959670000000  0.5698410000000  0.5114670000000 1.0
C      1  0.4314140000000  0.4303120000000  0.4607850000000 1.0
C      1  0.5210740000000  0.5163670000000  0.4446320000000 1.0
C      1  0.5091550000000  0.4623280000000  0.5386730000000 1.0
C      1  0.5721570000000  0.5423580000000  0.5269870000000 1.0
C      1  0.5337760000000  0.5204860000000  0.5813230000000 1.0
C      1  0.5047590000000  0.4600060000000  0.4664640000000 1.0
C      1  0.6057310000000  0.5110730000000  0.5415810000000 1.0
C      1  0.5882610000000  0.5521980000000  0.4555610000000 1.0
C      1  0.4400740000000  0.5056560000000  0.4121760000000 1.0
END
