TITL C-2847944-5688-624 0.010275422053013 125000 -985.590832099426 0 0 189 (C1) n - 1
REM
REM in /home/bkarasulu/work/CARBON/AIRSS/Generating-Clusters/AIREBO/with-SteepDescent/Only-C1/SD-CG-opt/Try1-1.4A-POS3A/HFTN-CG
REM
REM
REM
REM
REM
REM ./C.cell (11c1c37f851c82e70ff6c80c92926a4b)
REM
REM compiler GCC version 9.2.1 20190827 (Red Hat 9.2.1-1)
REM options -cpp -mtune=generic -march=x86-64 -g -O0 -fpre-include=/usr/include/finclude/math-vector-fortran.h
REM seed 1134419055 -718479653 -720166632 -1701293203 -2140470347 990901115 -995026487 1210461109 -1912264977 1537890687 1689919670 1441714782 -1108500558 1304472888 1730799956 -2068116740 1666661492 -1219023124 1789086722 2083805198 353229501 1437680110 768850986 966270863 1615351456 1463146231 958311837 1342828028 1471682784 -397666197 -770646057 -2054411775 -714586994
REM
CELL 1.54180   50.00000   50.00000   50.00000   90.00000   90.00000   90.00000
LATT -1
SFAC C  
C      1  0.5049510000000  0.4344050000000  0.5789580000000 1.0
C      1  0.5257710000000  0.5017490000000  0.4790590000000 1.0
C      1  0.4880240000000  0.5251350000000  0.6242960000000 1.0
C      1  0.4373540000000  0.5522460000000  0.5623470000000 1.0
C      1  0.5180560000000  0.4335230000000  0.4388170000000 1.0
C      1  0.5271160000000  0.5105060000000  0.5326350000000 1.0
C      1  0.5532640000000  0.5185350000000  0.4553210000000 1.0
C      1  0.5910530000000  0.4406280000000  0.4727270000000 1.0
C      1  0.5880340000000  0.5001780000000  0.5577460000000 1.0
C      1  0.5747910000000  0.5628070000000  0.5558000000000 1.0
C      1  0.4506060000000  0.4632030000000  0.5566810000000 1.0
C      1  0.5680940000000  0.4383250000000  0.5540890000000 1.0
C      1  0.5157120000000  0.4012480000000  0.4425360000000 1.0
C      1  0.4693480000000  0.4760040000000  0.3568920000000 1.0
C      1  0.4287840000000  0.4389940000000  0.4970170000000 1.0
C      1  0.4983360000000  0.4667040000000  0.5872680000000 1.0
C      1  0.5785310000000  0.4174880000000  0.4519700000000 1.0
C      1  0.4983850000000  0.5820710000000  0.5824900000000 1.0
C      1  0.4793410000000  0.5561940000000  0.5256210000000 1.0
C      1  0.4469070000000  0.5062650000000  0.4617340000000 1.0
C      1  0.4385060000000  0.5402160000000  0.4209670000000 1.0
C      1  0.6149870000000  0.5379180000000  0.4909560000000 1.0
C      1  0.4536020000000  0.4704680000000  0.4202500000000 1.0
C      1  0.4651410000000  0.6066860000000  0.5110920000000 1.0
C      1  0.5983510000000  0.5161920000000  0.5321850000000 1.0
C      1  0.5524930000000  0.4632420000000  0.4673810000000 1.0
C      1  0.5384250000000  0.5017950000000  0.6141060000000 1.0
C      1  0.4496970000000  0.4076290000000  0.5030890000000 1.0
C      1  0.5044400000000  0.5690670000000  0.4977810000000 1.0
C      1  0.4842750000000  0.5479190000000  0.6019440000000 1.0
C      1  0.4426410000000  0.4185800000000  0.5658320000000 1.0
C      1  0.4009040000000  0.5482100000000  0.5085430000000 1.0
C      1  0.4090560000000  0.5093740000000  0.5533760000000 1.0
C      1  0.4926900000000  0.4055290000000  0.5690120000000 1.0
C      1  0.3930850000000  0.4418470000000  0.4618470000000 1.0
C      1  0.4891760000000  0.4878060000000  0.4821850000000 1.0
C      1  0.4043200000000  0.4895600000000  0.4575180000000 1.0
C      1  0.5165400000000  0.4383080000000  0.5140540000000 1.0
C      1  0.4922190000000  0.5393090000000  0.4432070000000 1.0
C      1  0.4215530000000  0.4754000000000  0.5118410000000 1.0
C      1  0.5873670000000  0.4576030000000  0.5019720000000 1.0
C      1  0.5545150000000  0.6182000000000  0.4331130000000 1.0
C      1  0.4662950000000  0.4355570000000  0.5687820000000 1.0
C      1  0.5550690000000  0.4479070000000  0.4976270000000 1.0
C      1  0.4505770000000  0.5505160000000  0.5083830000000 1.0
C      1  0.5594990000000  0.5424280000000  0.5727320000000 1.0
C      1  0.5430830000000  0.4887550000000  0.4468920000000 1.0
C      1  0.5401200000000  0.4874770000000  0.5742590000000 1.0
C      1  0.5675540000000  0.5803140000000  0.4623920000000 1.0
C      1  0.6014340000000  0.4832200000000  0.5244020000000 1.0
C      1  0.4897150000000  0.5456850000000  0.5684430000000 1.0
C      1  0.4018060000000  0.5680710000000  0.4676290000000 1.0
C      1  0.5400640000000  0.5945960000000  0.4921660000000 1.0
C      1  0.4038380000000  0.4599670000000  0.5364980000000 1.0
C      1  0.5151720000000  0.4807430000000  0.6062320000000 1.0
C      1  0.4081570000000  0.5411660000000  0.5549070000000 1.0
C      1  0.5045140000000  0.6032280000000  0.5239160000000 1.0
C      1  0.4757280000000  0.4508820000000  0.4604610000000 1.0
C      1  0.3899750000000  0.4954680000000  0.4836080000000 1.0
C      1  0.3945430000000  0.4248630000000  0.5467590000000 1.0
C      1  0.4739440000000  0.4969680000000  0.6128400000000 1.0
C      1  0.5270720000000  0.5306130000000  0.5066780000000 1.0
C      1  0.5671300000000  0.5411700000000  0.5310280000000 1.0
C      1  0.5919220000000  0.5136280000000  0.5002910000000 1.0
C      1  0.5117790000000  0.4297310000000  0.4859720000000 1.0
C      1  0.4879480000000  0.5068940000000  0.5380440000000 1.0
C      1  0.5839410000000  0.5096240000000  0.4674790000000 1.0
C      1  0.4869230000000  0.3904690000000  0.4884970000000 1.0
C      1  0.4864040000000  0.4356830000000  0.5435090000000 1.0
C      1  0.5325580000000  0.4055870000000  0.4783970000000 1.0
C      1  0.5473750000000  0.4098180000000  0.4516050000000 1.0
C      1  0.3894460000000  0.5038010000000  0.5307610000000 1.0
C      1  0.5113560000000  0.3832880000000  0.4861200000000 1.0
C      1  0.5246710000000  0.5607020000000  0.5224280000000 1.0
C      1  0.3839050000000  0.4770170000000  0.5252300000000 1.0
C      1  0.4779830000000  0.4626850000000  0.4298080000000 1.0
C      1  0.4795660000000  0.4219220000000  0.4778800000000 1.0
C      1  0.4923370000000  0.5328160000000  0.3991000000000 1.0
C      1  0.4528400000000  0.4593090000000  0.4841860000000 1.0
C      1  0.4512030000000  0.5817760000000  0.5571120000000 1.0
C      1  0.5108640000000  0.6078940000000  0.4906780000000 1.0
C      1  0.4669370000000  0.5221620000000  0.5913910000000 1.0
C      1  0.4609130000000  0.5442810000000  0.4052820000000 1.0
C      1  0.5643660000000  0.4859120000000  0.5382130000000 1.0
C      1  0.6114340000000  0.4337130000000  0.4994320000000 1.0
C      1  0.5082520000000  0.4523760000000  0.4628030000000 1.0
C      1  0.4930780000000  0.5792950000000  0.4437670000000 1.0
C      1  0.5813590000000  0.4580470000000  0.5354490000000 1.0
C      1  0.5229170000000  0.5346180000000  0.3881750000000 1.0
C      1  0.5401680000000  0.4738670000000  0.4100670000000 1.0
C      1  0.4238990000000  0.4310730000000  0.5468930000000 1.0
C      1  0.4244700000000  0.5666890000000  0.4929370000000 1.0
C      1  0.5411000000000  0.4092110000000  0.5262190000000 1.0
C      1  0.4048680000000  0.4604130000000  0.4450590000000 1.0
C      1  0.4375600000000  0.4925740000000  0.5455370000000 1.0
C      1  0.4764560000000  0.4441750000000  0.5034090000000 1.0
C      1  0.6257520000000  0.4751270000000  0.5897670000000 1.0
C      1  0.5718340000000  0.4829130000000  0.4847090000000 1.0
C      1  0.4733030000000  0.5362880000000  0.4645430000000 1.0
C      1  0.4809270000000  0.5170700000000  0.4898890000000 1.0
C      1  0.4942820000000  0.5288450000000  0.5155100000000 1.0
C      1  0.5596020000000  0.4534840000000  0.4201200000000 1.0
C      1  0.5079760000000  0.4761270000000  0.4210680000000 1.0
C      1  0.5486390000000  0.5983720000000  0.4510540000000 1.0
C      1  0.4897980000000  0.5742570000000  0.5524680000000 1.0
C      1  0.5523960000000  0.5772720000000  0.5239370000000 1.0
C      1  0.4305710000000  0.4534370000000  0.4337250000000 1.0
C      1  0.5478250000000  0.4421590000000  0.4459570000000 1.0
C      1  0.4399220000000  0.4773400000000  0.5857040000000 1.0
C      1  0.5712960000000  0.5826030000000  0.4961410000000 1.0
C      1  0.4295310000000  0.5081470000000  0.5163860000000 1.0
C      1  0.4878160000000  0.5602800000000  0.4175710000000 1.0
C      1  0.4647310000000  0.4884930000000  0.5293100000000 1.0
C      1  0.4688700000000  0.5283410000000  0.5520290000000 1.0
C      1  0.5907560000000  0.5585880000000  0.5036730000000 1.0
C      1  0.5077520000000  0.4436970000000  0.4108310000000 1.0
C      1  0.4951920000000  0.4713670000000  0.5070800000000 1.0
C      1  0.4495440000000  0.5204480000000  0.4925310000000 1.0
C      1  0.3953580000000  0.5540470000000  0.5346230000000 1.0
C      1  0.5437020000000  0.5426410000000  0.4333070000000 1.0
C      1  0.3843770000000  0.5693100000000  0.4490290000000 1.0
C      1  0.5528410000000  0.5445280000000  0.4772350000000 1.0
C      1  0.5704860000000  0.4971260000000  0.3892010000000 1.0
C      1  0.5187100000000  0.5941250000000  0.4605720000000 1.0
C      1  0.4959160000000  0.4996540000000  0.3996490000000 1.0
C      1  0.5153080000000  0.5311510000000  0.4747820000000 1.0
C      1  0.4851740000000  0.4644120000000  0.5366340000000 1.0
C      1  0.4785530000000  0.4436990000000  0.5985250000000 1.0
C      1  0.5497370000000  0.5393520000000  0.4000090000000 1.0
C      1  0.5243200000000  0.4884420000000  0.5069170000000 1.0
C      1  0.5568320000000  0.4946310000000  0.5098900000000 1.0
C      1  0.4296210000000  0.4828510000000  0.4793370000000 1.0
C      1  0.5625790000000  0.5095440000000  0.5704260000000 1.0
C      1  0.5246520000000  0.5631380000000  0.4732600000000 1.0
C      1  0.3997130000000  0.5184200000000  0.5036830000000 1.0
C      1  0.5290560000000  0.5978740000000  0.5376080000000 1.0
C      1  0.4904960000000  0.5068470000000  0.5778000000000 1.0
C      1  0.3984450000000  0.4471430000000  0.4891880000000 1.0
C      1  0.6051110000000  0.4949780000000  0.4486440000000 1.0
C      1  0.5165380000000  0.4233860000000  0.5424750000000 1.0
C      1  0.5233130000000  0.5134640000000  0.4147960000000 1.0
C      1  0.5867850000000  0.4483240000000  0.4398830000000 1.0
C      1  0.4750880000000  0.4147300000000  0.5205490000000 1.0
C      1  0.4421230000000  0.5334280000000  0.5355890000000 1.0
C      1  0.6132550000000  0.4873710000000  0.4956520000000 1.0
C      1  0.4398400000000  0.5273110000000  0.5835540000000 1.0
C      1  0.5731610000000  0.5316520000000  0.4234430000000 1.0
C      1  0.5147700000000  0.5173910000000  0.4441710000000 1.0
C      1  0.6057190000000  0.4729490000000  0.4368760000000 1.0
C      1  0.3844020000000  0.4714880000000  0.4976030000000 1.0
C      1  0.5814340000000  0.5569030000000  0.4446900000000 1.0
C      1  0.4733810000000  0.5616210000000  0.4857340000000 1.0
C      1  0.5170970000000  0.5390090000000  0.5474920000000 1.0
C      1  0.5398750000000  0.4660330000000  0.5504290000000 1.0
C      1  0.4437770000000  0.5381940000000  0.4504450000000 1.0
C      1  0.4358180000000  0.4906030000000  0.4336630000000 1.0
C      1  0.5485910000000  0.4181730000000  0.5012090000000 1.0
C      1  0.5099610000000  0.4851370000000  0.4538210000000 1.0
C      1  0.6080670000000  0.4854320000000  0.5745210000000 1.0
C      1  0.4798020000000  0.4785510000000  0.5649800000000 1.0
C      1  0.4780570000000  0.4969340000000  0.4531290000000 1.0
C      1  0.4681200000000  0.4241510000000  0.4317220000000 1.0
C      1  0.4458740000000  0.4216910000000  0.4731930000000 1.0
C      1  0.5167240000000  0.5284400000000  0.5798100000000 1.0
C      1  0.4624850000000  0.4732410000000  0.6037540000000 1.0
C      1  0.4247380000000  0.5020740000000  0.5819800000000 1.0
C      1  0.4859710000000  0.3959550000000  0.5465370000000 1.0
C      1  0.5583540000000  0.5909260000000  0.5534580000000 1.0
C      1  0.4826800000000  0.4868710000000  0.3757480000000 1.0
C      1  0.4091580000000  0.5050720000000  0.4284950000000 1.0
C      1  0.5144350000000  0.4962390000000  0.5566590000000 1.0
C      1  0.5425800000000  0.5224630000000  0.5934700000000 1.0
C      1  0.4134220000000  0.5286660000000  0.4152120000000 1.0
C      1  0.5358040000000  0.4372850000000  0.5648990000000 1.0
C      1  0.5992140000000  0.5500260000000  0.5355130000000 1.0
C      1  0.5367930000000  0.4612850000000  0.5190510000000 1.0
C      1  0.4746810000000  0.5994960000000  0.5399310000000 1.0
C      1  0.4406330000000  0.4521490000000  0.5260820000000 1.0
C      1  0.5608260000000  0.5266330000000  0.5050270000000 1.0
C      1  0.4228210000000  0.5937630000000  0.5050430000000 1.0
C      1  0.5463100000000  0.4721090000000  0.6035600000000 1.0
C      1  0.4818000000000  0.5938770000000  0.4924320000000 1.0
C      1  0.4458810000000  0.5672050000000  0.4665240000000 1.0
C      1  0.4872040000000  0.4094860000000  0.4471650000000 1.0
C      1  0.5199530000000  0.5569120000000  0.4409960000000 1.0
C      1  0.4671410000000  0.5855450000000  0.4543860000000 1.0
C      1  0.5550230000000  0.5032630000000  0.4185230000000 1.0
C      1  0.5860470000000  0.5429680000000  0.4738260000000 1.0
C      1  0.4426470000000  0.4278500000000  0.4433630000000 1.0
END
