TITL C-2848502-4955-709 -0.00139363901804012 125000 -1110.95146784354 0 0 199 (C1) n - 1
REM
REM in /home/bkarasulu/work/CARBON/AIRSS/Generating-Clusters/AIREBO/with-SteepDescent/Only-C1/SD-CG-opt/Try1-1.4A-POS3A/HFTN-CG
REM
REM
REM
REM
REM
REM ./C.cell (11c1c37f851c82e70ff6c80c92926a4b)
REM
REM compiler GCC version 9.2.1 20190827 (Red Hat 9.2.1-1)
REM options -cpp -mtune=generic -march=x86-64 -g -O0 -fpre-include=/usr/include/finclude/math-vector-fortran.h
REM seed -159789051 -2105591852 -137100337 559746518 1084490276 -1312526067 -1925598844 294016498 -1723902704 1198249139 -80293293 -1850945157 99595144 118867716 282355120 -48566938 -628873424 1604464833 1157996069 237106536 1772226832 197726612 1145975826 768114011 774172409 238312927 -225005082 1147394829 -281880860 1839443199 -1962477495 1824094345 -1672944870
REM
CELL 1.54180   50.00000   50.00000   50.00000   90.00000   90.00000   90.00000
LATT -1
SFAC C  
C      1  0.5461660000000  0.4976110000000  0.3950640000000 1.0
C      1  0.5043070000000  0.5971360000000  0.5752630000000 1.0
C      1  0.4535760000000  0.5951690000000  0.5310030000000 1.0
C      1  0.5432880000000  0.4899420000000  0.5950410000000 1.0
C      1  0.5894910000000  0.5385490000000  0.5728250000000 1.0
C      1  0.5027390000000  0.4927560000000  0.4916440000000 1.0
C      1  0.5488750000000  0.4926920000000  0.4655060000000 1.0
C      1  0.4766850000000  0.4570940000000  0.4035610000000 1.0
C      1  0.4663300000000  0.5667690000000  0.5173220000000 1.0
C      1  0.5535770000000  0.5877660000000  0.4861910000000 1.0
C      1  0.4695020000000  0.5144660000000  0.6075980000000 1.0
C      1  0.5129870000000  0.5109560000000  0.4387400000000 1.0
C      1  0.4890980000000  0.4369970000000  0.4579580000000 1.0
C      1  0.4641700000000  0.5298680000000  0.3961930000000 1.0
C      1  0.4195390000000  0.4826820000000  0.5638640000000 1.0
C      1  0.5261630000000  0.6053330000000  0.5544880000000 1.0
C      1  0.5317170000000  0.5866840000000  0.5094500000000 1.0
C      1  0.4321760000000  0.4489810000000  0.4904060000000 1.0
C      1  0.4300500000000  0.4908650000000  0.4522830000000 1.0
C      1  0.4785250000000  0.4197960000000  0.4344350000000 1.0
C      1  0.5813000000000  0.5625820000000  0.4997590000000 1.0
C      1  0.4917580000000  0.5064220000000  0.5453350000000 1.0
C      1  0.4772020000000  0.5255250000000  0.5772950000000 1.0
C      1  0.3745730000000  0.5308250000000  0.5316060000000 1.0
C      1  0.4993660000000  0.3908630000000  0.4522010000000 1.0
C      1  0.5437780000000  0.3959260000000  0.5052360000000 1.0
C      1  0.5687360000000  0.4509990000000  0.4574390000000 1.0
C      1  0.5022640000000  0.4128420000000  0.4779820000000 1.0
C      1  0.4957700000000  0.5398620000000  0.4041240000000 1.0
C      1  0.4638400000000  0.4662990000000  0.5740120000000 1.0
C      1  0.4056130000000  0.4819830000000  0.4699350000000 1.0
C      1  0.4321890000000  0.4310160000000  0.5424100000000 1.0
C      1  0.5254810000000  0.6111530000000  0.4469370000000 1.0
C      1  0.4466990000000  0.4135590000000  0.5898050000000 1.0
C      1  0.4532850000000  0.5937310000000  0.4761640000000 1.0
C      1  0.4439610000000  0.5898670000000  0.5621430000000 1.0
C      1  0.5013020000000  0.6120230000000  0.4424770000000 1.0
C      1  0.5068170000000  0.4613410000000  0.4446690000000 1.0
C      1  0.4616340000000  0.4921310000000  0.4279400000000 1.0
C      1  0.4312780000000  0.5775420000000  0.4332710000000 1.0
C      1  0.4442810000000  0.5333180000000  0.6112940000000 1.0
C      1  0.4449140000000  0.5018690000000  0.5397180000000 1.0
C      1  0.4892220000000  0.4184850000000  0.5853080000000 1.0
C      1  0.6047900000000  0.5360680000000  0.4157580000000 1.0
C      1  0.4669520000000  0.4058450000000  0.5720100000000 1.0
C      1  0.4132350000000  0.5686370000000  0.5285000000000 1.0
C      1  0.4687110000000  0.4920030000000  0.4918490000000 1.0
C      1  0.5503160000000  0.5953870000000  0.4559490000000 1.0
C      1  0.6187610000000  0.4922630000000  0.4740060000000 1.0
C      1  0.5233020000000  0.4086540000000  0.4443400000000 1.0
C      1  0.5118910000000  0.4962850000000  0.5242080000000 1.0
C      1  0.3709780000000  0.5713710000000  0.4956900000000 1.0
C      1  0.4341830000000  0.4573240000000  0.5599900000000 1.0
C      1  0.4780390000000  0.4328570000000  0.5330370000000 1.0
C      1  0.5864730000000  0.4684190000000  0.5358220000000 1.0
C      1  0.3940010000000  0.4226740000000  0.5083140000000 1.0
C      1  0.5104980000000  0.6017170000000  0.6017880000000 1.0
C      1  0.5972280000000  0.4339180000000  0.5015740000000 1.0
C      1  0.4683010000000  0.5678470000000  0.4860050000000 1.0
C      1  0.5704160000000  0.4731990000000  0.4805270000000 1.0
C      1  0.4950910000000  0.4907930000000  0.5699190000000 1.0
C      1  0.6223780000000  0.5094080000000  0.5033850000000 1.0
C      1  0.5405970000000  0.5896510000000  0.5378380000000 1.0
C      1  0.5899920000000  0.4751620000000  0.5646620000000 1.0
C      1  0.4676200000000  0.5254000000000  0.5307150000000 1.0
C      1  0.4479790000000  0.4455020000000  0.5957700000000 1.0
C      1  0.5881760000000  0.5048410000000  0.5685570000000 1.0
C      1  0.5711300000000  0.4196600000000  0.5435160000000 1.0
C      1  0.4926860000000  0.5686820000000  0.4151970000000 1.0
C      1  0.5646660000000  0.5081820000000  0.4423200000000 1.0
C      1  0.4170390000000  0.5431420000000  0.5111120000000 1.0
C      1  0.5590680000000  0.4131100000000  0.4810660000000 1.0
C      1  0.6079270000000  0.4814940000000  0.5149800000000 1.0
C      1  0.5028860000000  0.5922850000000  0.4996670000000 1.0
C      1  0.3860230000000  0.5092660000000  0.5361550000000 1.0
C      1  0.5234090000000  0.4137660000000  0.5454110000000 1.0
C      1  0.5902450000000  0.5171410000000  0.5113840000000 1.0
C      1  0.5764640000000  0.5657720000000  0.4603070000000 1.0
C      1  0.4724750000000  0.5958410000000  0.5661760000000 1.0
C      1  0.5608550000000  0.5458310000000  0.5650670000000 1.0
C      1  0.4259100000000  0.5123890000000  0.5740580000000 1.0
C      1  0.4035690000000  0.5806330000000  0.4464300000000 1.0
C      1  0.5104350000000  0.5469570000000  0.5490390000000 1.0
C      1  0.5113740000000  0.5268800000000  0.5752930000000 1.0
C      1  0.4518420000000  0.3985710000000  0.4910880000000 1.0
C      1  0.5521360000000  0.5384720000000  0.6033830000000 1.0
C      1  0.4301300000000  0.5835670000000  0.4056000000000 1.0
C      1  0.5510080000000  0.4642040000000  0.5956070000000 1.0
C      1  0.6002760000000  0.4619520000000  0.4922860000000 1.0
C      1  0.4835960000000  0.3930740000000  0.4984170000000 1.0
C      1  0.4494310000000  0.5479440000000  0.4721510000000 1.0
C      1  0.4985180000000  0.5110020000000  0.3890180000000 1.0
C      1  0.4399520000000  0.4235260000000  0.5101200000000 1.0
C      1  0.4911340000000  0.5703890000000  0.5594210000000 1.0
C      1  0.4802160000000  0.5907230000000  0.4362430000000 1.0
C      1  0.4342120000000  0.5199590000000  0.4658880000000 1.0
C      1  0.5011620000000  0.5667190000000  0.4773110000000 1.0
C      1  0.5363420000000  0.4605710000000  0.4613380000000 1.0
C      1  0.5447190000000  0.5248380000000  0.4757820000000 1.0
C      1  0.5218080000000  0.4671880000000  0.4899410000000 1.0
C      1  0.5374170000000  0.4266270000000  0.4593090000000 1.0
C      1  0.5417430000000  0.4389890000000  0.5821770000000 1.0
C      1  0.4090850000000  0.4275180000000  0.4851020000000 1.0
C      1  0.5852370000000  0.4632440000000  0.4322350000000 1.0
C      1  0.4561100000000  0.4995280000000  0.5713280000000 1.0
C      1  0.5381830000000  0.4955170000000  0.4275320000000 1.0
C      1  0.4690080000000  0.5475500000000  0.5564880000000 1.0
C      1  0.4703530000000  0.5023470000000  0.3844900000000 1.0
C      1  0.5157290000000  0.4292470000000  0.5008240000000 1.0
C      1  0.4173250000000  0.4901780000000  0.4241560000000 1.0
C      1  0.4781580000000  0.5213860000000  0.4790130000000 1.0
C      1  0.4901250000000  0.4493890000000  0.5600860000000 1.0
C      1  0.4539500000000  0.5282860000000  0.4996090000000 1.0
C      1  0.5897660000000  0.4994160000000  0.4834230000000 1.0
C      1  0.5156710000000  0.4992940000000  0.5947060000000 1.0
C      1  0.5515570000000  0.5289430000000  0.3914120000000 1.0
C      1  0.5056020000000  0.4622840000000  0.4126370000000 1.0
C      1  0.4617850000000  0.4815340000000  0.4602490000000 1.0
C      1  0.5477880000000  0.4062960000000  0.5325650000000 1.0
C      1  0.3859060000000  0.5549110000000  0.5156320000000 1.0
C      1  0.4819390000000  0.6033920000000  0.5134960000000 1.0
C      1  0.4704530000000  0.3921940000000  0.4434230000000 1.0
C      1  0.5597260000000  0.5163400000000  0.5034640000000 1.0
C      1  0.5776110000000  0.4563330000000  0.5815910000000 1.0
C      1  0.5748120000000  0.5335800000000  0.4320670000000 1.0
C      1  0.5523950000000  0.4581970000000  0.3938100000000 1.0
C      1  0.4525650000000  0.5945100000000  0.4478590000000 1.0
C      1  0.5489410000000  0.5640590000000  0.4444510000000 1.0
C      1  0.4544460000000  0.6087860000000  0.4998570000000 1.0
C      1  0.3844300000000  0.5754100000000  0.4623430000000 1.0
C      1  0.4431370000000  0.4313730000000  0.4483760000000 1.0
C      1  0.4587570000000  0.4119080000000  0.5434050000000 1.0
C      1  0.4140060000000  0.4099030000000  0.4649650000000 1.0
C      1  0.4226250000000  0.4561790000000  0.5992090000000 1.0
C      1  0.5969030000000  0.4350280000000  0.4491420000000 1.0
C      1  0.4665610000000  0.4757010000000  0.5414440000000 1.0
C      1  0.4646490000000  0.4820480000000  0.4031200000000 1.0
C      1  0.5363800000000  0.5402990000000  0.5291600000000 1.0
C      1  0.5758030000000  0.6094290000000  0.4458240000000 1.0
C      1  0.4995830000000  0.4546820000000  0.5075720000000 1.0
C      1  0.4087920000000  0.4916800000000  0.4954520000000 1.0
C      1  0.5158760000000  0.4895440000000  0.3950710000000 1.0
C      1  0.4127920000000  0.4946170000000  0.5349920000000 1.0
C      1  0.4182710000000  0.5145060000000  0.4093560000000 1.0
C      1  0.5075600000000  0.5260840000000  0.4900440000000 1.0
C      1  0.5186890000000  0.5539490000000  0.5035100000000 1.0
C      1  0.4540340000000  0.4744610000000  0.5121530000000 1.0
C      1  0.5893920000000  0.5260530000000  0.5415830000000 1.0
C      1  0.5292770000000  0.4488110000000  0.3962510000000 1.0
C      1  0.5279860000000  0.5455070000000  0.5983830000000 1.0
C      1  0.5154790000000  0.4293890000000  0.5708840000000 1.0
C      1  0.5504830000000  0.5542130000000  0.4914520000000 1.0
C      1  0.5251490000000  0.5486810000000  0.4612930000000 1.0
C      1  0.5511930000000  0.4642560000000  0.5024500000000 1.0
C      1  0.5044430000000  0.4198900000000  0.5266360000000 1.0
C      1  0.4604050000000  0.4494380000000  0.4714320000000 1.0
C      1  0.4228000000000  0.4711980000000  0.5139560000000 1.0
C      1  0.4292470000000  0.5381450000000  0.5868940000000 1.0
C      1  0.4794840000000  0.4830800000000  0.5991250000000 1.0
C      1  0.4901090000000  0.4586350000000  0.6149520000000 1.0
C      1  0.6256280000000  0.5400150000000  0.4939720000000 1.0
C      1  0.4419070000000  0.5577810000000  0.5386540000000 1.0
C      1  0.4585100000000  0.5195810000000  0.4427440000000 1.0
C      1  0.5564890000000  0.5696060000000  0.5473040000000 1.0
C      1  0.4411290000000  0.5485900000000  0.4390980000000 1.0
C      1  0.4893760000000  0.5604060000000  0.4470230000000 1.0
C      1  0.4782870000000  0.4361320000000  0.6044860000000 1.0
C      1  0.4217570000000  0.5183890000000  0.4949450000000 1.0
C      1  0.4596820000000  0.3904350000000  0.5224850000000 1.0
C      1  0.5417890000000  0.5188530000000  0.5623760000000 1.0
C      1  0.4296820000000  0.4436810000000  0.4217270000000 1.0
C      1  0.5882640000000  0.4364060000000  0.5283860000000 1.0
C      1  0.4448840000000  0.4001690000000  0.4611040000000 1.0
C      1  0.4980960000000  0.4687000000000  0.5343390000000 1.0
C      1  0.5436290000000  0.4349350000000  0.4976980000000 1.0
C      1  0.5579330000000  0.4774340000000  0.5277980000000 1.0
C      1  0.4910990000000  0.5486390000000  0.5226560000000 1.0
C      1  0.5876660000000  0.4200960000000  0.4782600000000 1.0
C      1  0.4039760000000  0.4184430000000  0.5335100000000 1.0
C      1  0.5693940000000  0.5478350000000  0.5261050000000 1.0
C      1  0.5196270000000  0.5422520000000  0.4282740000000 1.0
C      1  0.5816240000000  0.5937080000000  0.4992000000000 1.0
C      1  0.5416310000000  0.5067280000000  0.5305990000000 1.0
C      1  0.6013300000000  0.5510960000000  0.4782770000000 1.0
C      1  0.4125520000000  0.4634820000000  0.4161160000000 1.0
C      1  0.5629100000000  0.5127560000000  0.5875890000000 1.0
C      1  0.4866680000000  0.5292840000000  0.4500330000000 1.0
C      1  0.4948200000000  0.4892140000000  0.4576640000000 1.0
C      1  0.5174060000000  0.3880490000000  0.4956930000000 1.0
C      1  0.4608190000000  0.4362170000000  0.4168970000000 1.0
C      1  0.5682550000000  0.4276880000000  0.5706200000000 1.0
C      1  0.4997250000000  0.5097990000000  0.6204680000000 1.0
C      1  0.5651060000000  0.4782360000000  0.4159970000000 1.0
C      1  0.4347960000000  0.5612310000000  0.5715550000000 1.0
C      1  0.4696800000000  0.4490070000000  0.5041520000000 1.0
C      1  0.6055510000000  0.4661720000000  0.4596990000000 1.0
C      1  0.4402440000000  0.5329030000000  0.4100410000000 1.0
C      1  0.5502560000000  0.5456240000000  0.4158980000000 1.0
C      1  0.6033610000000  0.5452270000000  0.4462540000000 1.0
END
