TITL C-2847944-5688-397 -0.000710652689205822 125000 -693.856994752739 0 0 131 (C1) n - 1
REM
REM in /home/bkarasulu/work/CARBON/AIRSS/Generating-Clusters/AIREBO/with-SteepDescent/Only-C1/SD-CG-opt/Try1-1.4A-POS3A/HFTN-CG
REM
REM
REM
REM
REM
REM ./C.cell (11c1c37f851c82e70ff6c80c92926a4b)
REM
REM compiler GCC version 9.2.1 20190827 (Red Hat 9.2.1-1)
REM options -cpp -mtune=generic -march=x86-64 -g -O0 -fpre-include=/usr/include/finclude/math-vector-fortran.h
REM seed -1646357925 206555333 -226909644 1571024370 -524649436 1101987101 1801715763 1741945441 745703293 -2072926869 1952641832 1519973419 633024945 1923058351 -1483488361 673032188 419711460 1666091430 -707502059 -1294001042 1920604889 -849172278 -746209989 -952146702 -2134174620 -715879897 -375991823 -1969276446 -2099157894 1502257945 -102168464 1570737860 1738757831
REM
CELL 1.54180   50.00000   50.00000   50.00000   90.00000   90.00000   90.00000
LATT -1
SFAC C  
C      1  0.4796310000000  0.5884200000000  0.4911040000000 1.0
C      1  0.4857450000000  0.5050660000000  0.4850360000000 1.0
C      1  0.5462990000000  0.3994510000000  0.5099680000000 1.0
C      1  0.4472290000000  0.4406500000000  0.5314100000000 1.0
C      1  0.5084660000000  0.4706980000000  0.4047190000000 1.0
C      1  0.4523110000000  0.5105120000000  0.5419770000000 1.0
C      1  0.5800130000000  0.4776160000000  0.5344410000000 1.0
C      1  0.4695570000000  0.4086480000000  0.5229610000000 1.0
C      1  0.4909280000000  0.4914810000000  0.4052870000000 1.0
C      1  0.4441510000000  0.5011970000000  0.4927730000000 1.0
C      1  0.4573880000000  0.5627940000000  0.4449880000000 1.0
C      1  0.5947020000000  0.5156660000000  0.4988580000000 1.0
C      1  0.4306350000000  0.4864920000000  0.5181800000000 1.0
C      1  0.5768270000000  0.5044250000000  0.5634040000000 1.0
C      1  0.4473730000000  0.5523910000000  0.4726150000000 1.0
C      1  0.4375030000000  0.4763340000000  0.4493640000000 1.0
C      1  0.5084580000000  0.4251780000000  0.4265190000000 1.0
C      1  0.5151060000000  0.5406020000000  0.5835090000000 1.0
C      1  0.4805050000000  0.5054940000000  0.5244060000000 1.0
C      1  0.5143350000000  0.5665590000000  0.5537420000000 1.0
C      1  0.4226470000000  0.5495680000000  0.5454060000000 1.0
C      1  0.4198360000000  0.5031610000000  0.5425260000000 1.0
C      1  0.5638900000000  0.4612570000000  0.5509580000000 1.0
C      1  0.5118630000000  0.5952920000000  0.4945840000000 1.0
C      1  0.4265570000000  0.5287480000000  0.4834130000000 1.0
C      1  0.5581510000000  0.5856540000000  0.4799850000000 1.0
C      1  0.4125050000000  0.4632010000000  0.5058070000000 1.0
C      1  0.4937400000000  0.5603840000000  0.4899140000000 1.0
C      1  0.5506650000000  0.5191500000000  0.5495370000000 1.0
C      1  0.5337250000000  0.5243850000000  0.4297880000000 1.0
C      1  0.5799540000000  0.4356050000000  0.4060830000000 1.0
C      1  0.4474340000000  0.4082860000000  0.5430110000000 1.0
C      1  0.4593180000000  0.4426830000000  0.4709850000000 1.0
C      1  0.5276000000000  0.4523350000000  0.5886660000000 1.0
C      1  0.4173670000000  0.4546150000000  0.5383460000000 1.0
C      1  0.4786520000000  0.5418330000000  0.4714160000000 1.0
C      1  0.4761000000000  0.5436060000000  0.4071340000000 1.0
C      1  0.5777090000000  0.5439290000000  0.5244980000000 1.0
C      1  0.5575030000000  0.4234950000000  0.5201460000000 1.0
C      1  0.5288850000000  0.4654450000000  0.5286330000000 1.0
C      1  0.4729010000000  0.5855440000000  0.5883500000000 1.0
C      1  0.5642870000000  0.5322880000000  0.4418710000000 1.0
C      1  0.4871210000000  0.4591270000000  0.4970260000000 1.0
C      1  0.4892670000000  0.4502010000000  0.4382410000000 1.0
C      1  0.4800730000000  0.4382320000000  0.5229050000000 1.0
C      1  0.4945840000000  0.5679540000000  0.4174560000000 1.0
C      1  0.4652960000000  0.4613510000000  0.5514680000000 1.0
C      1  0.4267650000000  0.4706200000000  0.4207180000000 1.0
C      1  0.5846490000000  0.5112120000000  0.5310140000000 1.0
C      1  0.5006930000000  0.4324590000000  0.5873530000000 1.0
C      1  0.4824290000000  0.5770260000000  0.4414640000000 1.0
C      1  0.4439670000000  0.5148000000000  0.4367080000000 1.0
C      1  0.5696600000000  0.4926630000000  0.4989140000000 1.0
C      1  0.5282050000000  0.4859550000000  0.4721310000000 1.0
C      1  0.4977340000000  0.4638980000000  0.6000380000000 1.0
C      1  0.5800560000000  0.5038440000000  0.4456540000000 1.0
C      1  0.5795620000000  0.5686760000000  0.5012530000000 1.0
C      1  0.5616010000000  0.4866740000000  0.4676730000000 1.0
C      1  0.5207090000000  0.4624700000000  0.4341100000000 1.0
C      1  0.4619860000000  0.4769310000000  0.5233630000000 1.0
C      1  0.5824030000000  0.4647900000000  0.5081620000000 1.0
C      1  0.4346360000000  0.5798380000000  0.5093380000000 1.0
C      1  0.4390860000000  0.5318350000000  0.5224570000000 1.0
C      1  0.5295440000000  0.5736260000000  0.4660700000000 1.0
C      1  0.4067410000000  0.4686720000000  0.5571790000000 1.0
C      1  0.4601100000000  0.5072490000000  0.4648940000000 1.0
C      1  0.5220920000000  0.4128020000000  0.4441240000000 1.0
C      1  0.4692480000000  0.5642050000000  0.5695580000000 1.0
C      1  0.5505290000000  0.4342970000000  0.5457860000000 1.0
C      1  0.4966530000000  0.4474640000000  0.5499310000000 1.0
C      1  0.4779580000000  0.5731620000000  0.5387090000000 1.0
C      1  0.4963110000000  0.5214710000000  0.4572350000000 1.0
C      1  0.4553290000000  0.4689840000000  0.4921780000000 1.0
C      1  0.5481820000000  0.5189840000000  0.4975250000000 1.0
C      1  0.4702890000000  0.4935620000000  0.5611480000000 1.0
C      1  0.5259150000000  0.3977470000000  0.4927390000000 1.0
C      1  0.5200530000000  0.4263190000000  0.4752590000000 1.0
C      1  0.4676840000000  0.4961850000000  0.4274420000000 1.0
C      1  0.5414900000000  0.4580450000000  0.4863850000000 1.0
C      1  0.5630560000000  0.5521840000000  0.4765130000000 1.0
C      1  0.4947650000000  0.5154370000000  0.4284220000000 1.0
C      1  0.5048000000000  0.5223340000000  0.5075620000000 1.0
C      1  0.4214820000000  0.5044390000000  0.4601670000000 1.0
C      1  0.4266870000000  0.4522120000000  0.4703050000000 1.0
C      1  0.5726450000000  0.4565700000000  0.4186790000000 1.0
C      1  0.5340770000000  0.4926560000000  0.4258890000000 1.0
C      1  0.5003360000000  0.4790870000000  0.5583990000000 1.0
C      1  0.4688050000000  0.3999170000000  0.4966200000000 1.0
C      1  0.5457880000000  0.5832390000000  0.5206290000000 1.0
C      1  0.5328760000000  0.5333560000000  0.5242730000000 1.0
C      1  0.5012930000000  0.4806620000000  0.5185100000000 1.0
C      1  0.4958530000000  0.4768600000000  0.4710070000000 1.0
C      1  0.5097630000000  0.5388780000000  0.4124500000000 1.0
C      1  0.4332110000000  0.4367960000000  0.5003200000000 1.0
C      1  0.5354740000000  0.4497810000000  0.4560690000000 1.0
C      1  0.5293270000000  0.5439830000000  0.4568470000000 1.0
C      1  0.5173010000000  0.4465060000000  0.5027910000000 1.0
C      1  0.5050420000000  0.5903240000000  0.5406250000000 1.0
C      1  0.5619500000000  0.4794420000000  0.4345350000000 1.0
C      1  0.5112630000000  0.5328490000000  0.5505260000000 1.0
C      1  0.4874590000000  0.5492600000000  0.5190290000000 1.0
C      1  0.4079840000000  0.4790720000000  0.4760590000000 1.0
C      1  0.4601690000000  0.5888330000000  0.5144920000000 1.0
C      1  0.4766200000000  0.5090770000000  0.5865530000000 1.0
C      1  0.5404900000000  0.4946000000000  0.5180280000000 1.0
C      1  0.5376890000000  0.5201290000000  0.5776180000000 1.0
C      1  0.5333330000000  0.4715130000000  0.5617990000000 1.0
C      1  0.5686010000000  0.5625890000000  0.4446050000000 1.0
C      1  0.5231570000000  0.4329190000000  0.5611080000000 1.0
C      1  0.5511440000000  0.4932820000000  0.5795250000000 1.0
C      1  0.5225220000000  0.5188490000000  0.4787360000000 1.0
C      1  0.5163580000000  0.5011970000000  0.5410600000000 1.0
C      1  0.4476290000000  0.4131710000000  0.4831680000000 1.0
C      1  0.4609060000000  0.5412530000000  0.5017540000000 1.0
C      1  0.4998140000000  0.5900840000000  0.4635040000000 1.0
C      1  0.4713160000000  0.4729810000000  0.4479160000000 1.0
C      1  0.5413470000000  0.5577170000000  0.5021130000000 1.0
C      1  0.4681440000000  0.4019980000000  0.4353440000000 1.0
C      1  0.4855470000000  0.4884590000000  0.6049370000000 1.0
C      1  0.4054640000000  0.5256200000000  0.5467750000000 1.0
C      1  0.4237960000000  0.5553220000000  0.5046140000000 1.0
C      1  0.4837880000000  0.5368120000000  0.5812920000000 1.0
C      1  0.5218480000000  0.5982090000000  0.5196200000000 1.0
C      1  0.4943400000000  0.4048430000000  0.4811210000000 1.0
C      1  0.5509280000000  0.5575740000000  0.5403990000000 1.0
C      1  0.4807230000000  0.4218950000000  0.4550390000000 1.0
C      1  0.5787250000000  0.5235740000000  0.4723490000000 1.0
C      1  0.5404610000000  0.5594140000000  0.5708780000000 1.0
C      1  0.4383980000000  0.5617010000000  0.5629810000000 1.0
C      1  0.4537990000000  0.5425230000000  0.4252040000000 1.0
C      1  0.5646450000000  0.4445540000000  0.5013110000000 1.0
END
