TITL C-2848505-4874-251 0.000984571346198349 125000 -844.353029895465 0 0 154 (C1) n - 1
REM
REM in /home/bkarasulu/work/CARBON/AIRSS/Generating-Clusters/AIREBO/with-SteepDescent/Only-C1/SD-CG-opt/Try1-1.4A-POS3A/HFTN-CG
REM
REM
REM
REM
REM
REM ./C.cell (11c1c37f851c82e70ff6c80c92926a4b)
REM
REM compiler GCC version 9.2.1 20190827 (Red Hat 9.2.1-1)
REM options -cpp -mtune=generic -march=x86-64 -g -O0 -fpre-include=/usr/include/finclude/math-vector-fortran.h
REM seed 1982851689 941521648 816483969 -1350523486 -1276336597 -1797172579 192674168 310177030 1591530810 -644555440 1097246517 -706219325 -582740331 2012407275 684528153 -648097915 192075012 1983267275 1630773160 526672769 -1247982724 1937938696 -1889121020 -1556178065 738508379 2005151426 -1363278338 1139192345 -1968703143 -21998445 -675921788 -1997857959 -348780885
REM
CELL 1.54180   50.00000   50.00000   50.00000   90.00000   90.00000   90.00000
LATT -1
SFAC C  
C      1  0.5054080000000  0.5158070000000  0.6156140000000 1.0
C      1  0.5472520000000  0.5134380000000  0.4837020000000 1.0
C      1  0.4309950000000  0.5673990000000  0.5369420000000 1.0
C      1  0.4899650000000  0.4926090000000  0.4644490000000 1.0
C      1  0.5015910000000  0.5461940000000  0.5771230000000 1.0
C      1  0.5798140000000  0.5562060000000  0.4818820000000 1.0
C      1  0.4461400000000  0.6165320000000  0.4778400000000 1.0
C      1  0.4802890000000  0.4074930000000  0.5220950000000 1.0
C      1  0.4499740000000  0.5498150000000  0.5827130000000 1.0
C      1  0.5002420000000  0.4313010000000  0.4930520000000 1.0
C      1  0.5465710000000  0.6119070000000  0.4508100000000 1.0
C      1  0.5761880000000  0.4639390000000  0.4286070000000 1.0
C      1  0.5969900000000  0.5439170000000  0.5086060000000 1.0
C      1  0.4168560000000  0.4208680000000  0.5215530000000 1.0
C      1  0.4221560000000  0.5694080000000  0.5076450000000 1.0
C      1  0.5387400000000  0.4817860000000  0.4844910000000 1.0
C      1  0.5293090000000  0.4334700000000  0.5637030000000 1.0
C      1  0.5444460000000  0.5766600000000  0.5103680000000 1.0
C      1  0.4281270000000  0.5639130000000  0.4502550000000 1.0
C      1  0.4307040000000  0.5327480000000  0.5697310000000 1.0
C      1  0.5548460000000  0.5153590000000  0.5166920000000 1.0
C      1  0.4670770000000  0.4074160000000  0.4966620000000 1.0
C      1  0.5127200000000  0.5454870000000  0.4278570000000 1.0
C      1  0.5817990000000  0.4448530000000  0.4562350000000 1.0
C      1  0.5087110000000  0.4787750000000  0.4892160000000 1.0
C      1  0.4144160000000  0.5464810000000  0.5514850000000 1.0
C      1  0.4607080000000  0.5281440000000  0.4112090000000 1.0
C      1  0.5260320000000  0.5636880000000  0.5427850000000 1.0
C      1  0.5161790000000  0.5131040000000  0.4585290000000 1.0
C      1  0.5294500000000  0.4066180000000  0.4595420000000 1.0
C      1  0.4308810000000  0.4982300000000  0.5289630000000 1.0
C      1  0.4663710000000  0.5601770000000  0.4894720000000 1.0
C      1  0.4767390000000  0.5843270000000  0.5522360000000 1.0
C      1  0.5653220000000  0.5427530000000  0.5165960000000 1.0
C      1  0.5359210000000  0.4775790000000  0.5314760000000 1.0
C      1  0.4404350000000  0.4896100000000  0.4320280000000 1.0
C      1  0.4981460000000  0.5271010000000  0.4821030000000 1.0
C      1  0.4878600000000  0.4705010000000  0.5233910000000 1.0
C      1  0.4697580000000  0.4467340000000  0.5617650000000 1.0
C      1  0.4112150000000  0.4827330000000  0.4698360000000 1.0
C      1  0.4587310000000  0.4247420000000  0.4470810000000 1.0
C      1  0.5032760000000  0.5559600000000  0.4648500000000 1.0
C      1  0.5067350000000  0.4059390000000  0.4922770000000 1.0
C      1  0.4970060000000  0.4638190000000  0.5554770000000 1.0
C      1  0.3958390000000  0.5134110000000  0.5176840000000 1.0
C      1  0.5112290000000  0.4782760000000  0.4013240000000 1.0
C      1  0.4590400000000  0.4991280000000  0.4704740000000 1.0
C      1  0.4308480000000  0.4645040000000  0.4509940000000 1.0
C      1  0.4260990000000  0.5209930000000  0.5041480000000 1.0
C      1  0.4945880000000  0.4862610000000  0.4243460000000 1.0
C      1  0.5279630000000  0.5402560000000  0.4917980000000 1.0
C      1  0.4987290000000  0.4899340000000  0.5714940000000 1.0
C      1  0.5617100000000  0.4372800000000  0.5305410000000 1.0
C      1  0.3970250000000  0.4708050000000  0.4904370000000 1.0
C      1  0.4287740000000  0.5069950000000  0.4761290000000 1.0
C      1  0.5453250000000  0.5465640000000  0.4374440000000 1.0
C      1  0.5447150000000  0.4175270000000  0.4879770000000 1.0
C      1  0.4634200000000  0.5581340000000  0.5368500000000 1.0
C      1  0.4839200000000  0.5121200000000  0.3960940000000 1.0
C      1  0.5704620000000  0.4906700000000  0.4248060000000 1.0
C      1  0.5125070000000  0.3964060000000  0.5226310000000 1.0
C      1  0.5612820000000  0.5773180000000  0.4883830000000 1.0
C      1  0.4321120000000  0.4415640000000  0.5210330000000 1.0
C      1  0.6003940000000  0.4471140000000  0.4847120000000 1.0
C      1  0.4323210000000  0.5131160000000  0.4443240000000 1.0
C      1  0.4021440000000  0.4409100000000  0.4902860000000 1.0
C      1  0.4976860000000  0.5252800000000  0.5530790000000 1.0
C      1  0.5728780000000  0.4980620000000  0.5838600000000 1.0
C      1  0.5384320000000  0.4194670000000  0.5837080000000 1.0
C      1  0.5567430000000  0.4726050000000  0.5077470000000 1.0
C      1  0.4453030000000  0.5799190000000  0.4921880000000 1.0
C      1  0.5767020000000  0.5756310000000  0.5657330000000 1.0
C      1  0.4857900000000  0.4553990000000  0.4780470000000 1.0
C      1  0.4780690000000  0.4204680000000  0.5499160000000 1.0
C      1  0.5927230000000  0.5170220000000  0.5291160000000 1.0
C      1  0.4505660000000  0.5957150000000  0.5361700000000 1.0
C      1  0.5501660000000  0.4430910000000  0.4318520000000 1.0
C      1  0.5564990000000  0.4251000000000  0.4574730000000 1.0
C      1  0.4443970000000  0.5420770000000  0.4368230000000 1.0
C      1  0.5396580000000  0.4680000000000  0.4109930000000 1.0
C      1  0.5727580000000  0.5441090000000  0.4574290000000 1.0
C      1  0.5345270000000  0.5455720000000  0.5860930000000 1.0
C      1  0.4891940000000  0.4385120000000  0.4154960000000 1.0
C      1  0.5720240000000  0.4792770000000  0.5485570000000 1.0
C      1  0.5281030000000  0.5309550000000  0.5448320000000 1.0
C      1  0.4735370000000  0.5610810000000  0.5753910000000 1.0
C      1  0.3952880000000  0.4843980000000  0.5158590000000 1.0
C      1  0.5614060000000  0.5469180000000  0.5705420000000 1.0
C      1  0.5168370000000  0.5738480000000  0.5897300000000 1.0
C      1  0.5098320000000  0.4449730000000  0.5186350000000 1.0
C      1  0.5101400000000  0.4239160000000  0.5425430000000 1.0
C      1  0.5561010000000  0.5744010000000  0.5389470000000 1.0
C      1  0.5474540000000  0.5892670000000  0.4651220000000 1.0
C      1  0.5488330000000  0.5041930000000  0.5482430000000 1.0
C      1  0.5030020000000  0.5719340000000  0.4105100000000 1.0
C      1  0.5419760000000  0.3956900000000  0.5077740000000 1.0
C      1  0.4468250000000  0.4460500000000  0.4320880000000 1.0
C      1  0.5340540000000  0.5604270000000  0.4645120000000 1.0
C      1  0.5406930000000  0.4426530000000  0.5063370000000 1.0
C      1  0.5767950000000  0.5202690000000  0.5590160000000 1.0
C      1  0.5119330000000  0.4922420000000  0.5178480000000 1.0
C      1  0.5455010000000  0.5087460000000  0.4500670000000 1.0
C      1  0.5170580000000  0.4468670000000  0.4250980000000 1.0
C      1  0.4598280000000  0.4334350000000  0.4774910000000 1.0
C      1  0.4776600000000  0.5109270000000  0.5340390000000 1.0
C      1  0.5318730000000  0.5179910000000  0.5996800000000 1.0
C      1  0.5283140000000  0.4989710000000  0.5752450000000 1.0
C      1  0.5855880000000  0.4902620000000  0.5126470000000 1.0
C      1  0.4820700000000  0.4161920000000  0.4324470000000 1.0
C      1  0.4742660000000  0.3853840000000  0.4813080000000 1.0
C      1  0.4696070000000  0.4793340000000  0.4960540000000 1.0
C      1  0.4396680000000  0.4723140000000  0.5086350000000 1.0
C      1  0.5393250000000  0.5013930000000  0.4174020000000 1.0
C      1  0.5130940000000  0.5635340000000  0.5116560000000 1.0
C      1  0.5609180000000  0.5085380000000  0.6063230000000 1.0
C      1  0.5617210000000  0.4714030000000  0.5762020000000 1.0
C      1  0.4069770000000  0.5521460000000  0.4661620000000 1.0
C      1  0.3928000000000  0.5333530000000  0.5382350000000 1.0
C      1  0.4390250000000  0.4831270000000  0.5802020000000 1.0
C      1  0.4524280000000  0.4622910000000  0.5847710000000 1.0
C      1  0.5977270000000  0.4596290000000  0.5086200000000 1.0
C      1  0.5020760000000  0.4648940000000  0.4497270000000 1.0
C      1  0.5156660000000  0.5217320000000  0.5175390000000 1.0
C      1  0.4334280000000  0.4516300000000  0.4823790000000 1.0
C      1  0.4422700000000  0.4594550000000  0.5463080000000 1.0
C      1  0.4666410000000  0.4562080000000  0.4141880000000 1.0
C      1  0.4648200000000  0.4883580000000  0.4112400000000 1.0
C      1  0.4118710000000  0.4713180000000  0.5373570000000 1.0
C      1  0.5177190000000  0.5176700000000  0.3996400000000 1.0
C      1  0.4858870000000  0.5489090000000  0.5130490000000 1.0
C      1  0.4953840000000  0.5432870000000  0.3986740000000 1.0
C      1  0.4739650000000  0.5525670000000  0.4636010000000 1.0
C      1  0.4825640000000  0.5152140000000  0.6050320000000 1.0
C      1  0.5769170000000  0.4968280000000  0.4831800000000 1.0
C      1  0.5028090000000  0.3998750000000  0.4398900000000 1.0
C      1  0.4636430000000  0.4820910000000  0.5442650000000 1.0
C      1  0.5323920000000  0.4707400000000  0.4582340000000 1.0
C      1  0.4523470000000  0.6057750000000  0.5087850000000 1.0
C      1  0.4700040000000  0.5242830000000  0.4503920000000 1.0
C      1  0.5077320000000  0.5817740000000  0.5602140000000 1.0
C      1  0.4368270000000  0.5879770000000  0.4625600000000 1.0
C      1  0.5042390000000  0.3849080000000  0.4684030000000 1.0
C      1  0.4806900000000  0.5110430000000  0.5014580000000 1.0
C      1  0.4954240000000  0.5175370000000  0.4339190000000 1.0
C      1  0.5826770000000  0.4771500000000  0.4655370000000 1.0
C      1  0.5820650000000  0.4567500000000  0.5341130000000 1.0
C      1  0.4568390000000  0.5312950000000  0.5148090000000 1.0
C      1  0.4757170000000  0.5118630000000  0.5739710000000 1.0
C      1  0.5856690000000  0.5586590000000  0.5376400000000 1.0
C      1  0.4460350000000  0.5078070000000  0.5578840000000 1.0
C      1  0.5305040000000  0.4671750000000  0.5633900000000 1.0
C      1  0.5437500000000  0.5383520000000  0.4044460000000 1.0
C      1  0.4117050000000  0.5477890000000  0.4938420000000 1.0
C      1  0.5748170000000  0.5199010000000  0.4369860000000 1.0
END
