TITL C-2848501-3133-58 0.000557528633988271 125000 -761.195028750553 0 0 139 (C1) n - 1
REM
REM in /home/bkarasulu/work/CARBON/AIRSS/Generating-Clusters/AIREBO/with-SteepDescent/Only-C1/SD-CG-opt/Try1-1.4A-POS3A/HFTN-CG
REM
REM
REM
REM
REM
REM ./C.cell (11c1c37f851c82e70ff6c80c92926a4b)
REM
REM compiler GCC version 9.2.1 20190827 (Red Hat 9.2.1-1)
REM options -cpp -mtune=generic -march=x86-64 -g -O0 -fpre-include=/usr/include/finclude/math-vector-fortran.h
REM seed 653339314 1158576862 1014892725 -1220132073 -786212447 -1366998928 -1238010709 -477871888 -1010170772 1662213666 -1814198170 -676075104 -346855860 2063472145 -780543572 2045580143 -292483964 775018773 1851201880 -767366495 932984922 -1786555536 -2125559190 -842654548 1201932676 1644586240 -2057282161 342122066 304908410 1403968540 1331117825 -1565257403 1366873358
REM
CELL 1.54180   50.00000   50.00000   50.00000   90.00000   90.00000   90.00000
LATT -1
SFAC C  
C      1  0.5883060000000  0.4613140000000  0.5210720000000 1.0
C      1  0.5168000000000  0.5559780000000  0.4334840000000 1.0
C      1  0.5184270000000  0.5657210000000  0.5845270000000 1.0
C      1  0.4925480000000  0.4505860000000  0.4173770000000 1.0
C      1  0.5438640000000  0.5420580000000  0.4435140000000 1.0
C      1  0.4515780000000  0.4774920000000  0.5731490000000 1.0
C      1  0.5846870000000  0.5561950000000  0.5378180000000 1.0
C      1  0.5023330000000  0.4871340000000  0.5829450000000 1.0
C      1  0.5451620000000  0.4444980000000  0.4017210000000 1.0
C      1  0.4774980000000  0.5953050000000  0.5158340000000 1.0
C      1  0.4909270000000  0.5026760000000  0.4740280000000 1.0
C      1  0.4652010000000  0.5207070000000  0.4870330000000 1.0
C      1  0.4272700000000  0.5161870000000  0.4401350000000 1.0
C      1  0.4850200000000  0.4214120000000  0.5475220000000 1.0
C      1  0.4389490000000  0.4471640000000  0.4821900000000 1.0
C      1  0.4324090000000  0.5526310000000  0.4555080000000 1.0
C      1  0.5961920000000  0.5313410000000  0.4929040000000 1.0
C      1  0.4919220000000  0.5968760000000  0.4892600000000 1.0
C      1  0.5340800000000  0.5667460000000  0.4881680000000 1.0
C      1  0.5571880000000  0.4525070000000  0.5293980000000 1.0
C      1  0.5004610000000  0.4498210000000  0.4738410000000 1.0
C      1  0.5066190000000  0.3961070000000  0.4546300000000 1.0
C      1  0.4760470000000  0.5313800000000  0.5836470000000 1.0
C      1  0.4138810000000  0.5265950000000  0.5023220000000 1.0
C      1  0.6095270000000  0.4976000000000  0.5553670000000 1.0
C      1  0.4881260000000  0.4612500000000  0.5965990000000 1.0
C      1  0.5855430000000  0.4916570000000  0.5468290000000 1.0
C      1  0.5703890000000  0.5096250000000  0.5288110000000 1.0
C      1  0.4768100000000  0.4729660000000  0.3962440000000 1.0
C      1  0.5386850000000  0.5202000000000  0.5916280000000 1.0
C      1  0.3899970000000  0.4517240000000  0.4897290000000 1.0
C      1  0.4613440000000  0.4178310000000  0.4961790000000 1.0
C      1  0.4491760000000  0.4912980000000  0.4326010000000 1.0
C      1  0.5077600000000  0.5543730000000  0.4751720000000 1.0
C      1  0.4255690000000  0.4346290000000  0.4539310000000 1.0
C      1  0.4654650000000  0.4894380000000  0.5376560000000 1.0
C      1  0.5202310000000  0.5473820000000  0.5201090000000 1.0
C      1  0.5253760000000  0.4460020000000  0.4925070000000 1.0
C      1  0.5114490000000  0.5224720000000  0.4311110000000 1.0
C      1  0.4198770000000  0.5406730000000  0.5530120000000 1.0
C      1  0.4811510000000  0.4642630000000  0.4951010000000 1.0
C      1  0.5031310000000  0.5332220000000  0.5550380000000 1.0
C      1  0.4651640000000  0.4331430000000  0.4657260000000 1.0
C      1  0.5260540000000  0.4134700000000  0.5212100000000 1.0
C      1  0.4756110000000  0.5010150000000  0.5680830000000 1.0
C      1  0.4969870000000  0.5130250000000  0.5318970000000 1.0
C      1  0.5379020000000  0.6304740000000  0.5268320000000 1.0
C      1  0.5098460000000  0.5334510000000  0.5883740000000 1.0
C      1  0.4553200000000  0.5284240000000  0.4553640000000 1.0
C      1  0.5853690000000  0.4887570000000  0.4608460000000 1.0
C      1  0.5124740000000  0.4944920000000  0.5538690000000 1.0
C      1  0.4680200000000  0.4548390000000  0.4405490000000 1.0
C      1  0.5733460000000  0.4382250000000  0.4469260000000 1.0
C      1  0.5584150000000  0.5630560000000  0.5533020000000 1.0
C      1  0.4369560000000  0.4488400000000  0.4326690000000 1.0
C      1  0.6030090000000  0.5069960000000  0.4794560000000 1.0
C      1  0.4360370000000  0.5011170000000  0.5642000000000 1.0
C      1  0.4792170000000  0.5338870000000  0.4353890000000 1.0
C      1  0.5761080000000  0.4581630000000  0.4724790000000 1.0
C      1  0.5519550000000  0.4250280000000  0.5130510000000 1.0
C      1  0.5335780000000  0.5205280000000  0.5591390000000 1.0
C      1  0.4821660000000  0.5751620000000  0.4691230000000 1.0
C      1  0.4493770000000  0.5309820000000  0.5651380000000 1.0
C      1  0.4846260000000  0.4641770000000  0.5285930000000 1.0
C      1  0.4673010000000  0.4836360000000  0.4586630000000 1.0
C      1  0.4384000000000  0.4346150000000  0.5241920000000 1.0
C      1  0.5247170000000  0.4495520000000  0.4284330000000 1.0
C      1  0.5269660000000  0.6055980000000  0.5224150000000 1.0
C      1  0.5247450000000  0.4435000000000  0.5576410000000 1.0
C      1  0.4130780000000  0.5462200000000  0.4329110000000 1.0
C      1  0.5877570000000  0.5339260000000  0.5197820000000 1.0
C      1  0.5316790000000  0.4436170000000  0.5907540000000 1.0
C      1  0.5299000000000  0.4001570000000  0.4459340000000 1.0
C      1  0.5785960000000  0.4758770000000  0.4979350000000 1.0
C      1  0.5550420000000  0.4945020000000  0.5065850000000 1.0
C      1  0.5505600000000  0.5558280000000  0.5152210000000 1.0
C      1  0.5527080000000  0.4891860000000  0.4620360000000 1.0
C      1  0.4103030000000  0.5232740000000  0.5334740000000 1.0
C      1  0.4693340000000  0.5583820000000  0.5030420000000 1.0
C      1  0.5421590000000  0.4280950000000  0.4482180000000 1.0
C      1  0.5136640000000  0.4186560000000  0.5468620000000 1.0
C      1  0.5742370000000  0.5015650000000  0.4312670000000 1.0
C      1  0.4640540000000  0.4306340000000  0.5647740000000 1.0
C      1  0.4796860000000  0.4320270000000  0.5186270000000 1.0
C      1  0.5412060000000  0.4791450000000  0.4316390000000 1.0
C      1  0.5437520000000  0.4992070000000  0.6081670000000 1.0
C      1  0.5349140000000  0.4733720000000  0.3982750000000 1.0
C      1  0.4727530000000  0.5438520000000  0.5440510000000 1.0
C      1  0.5375220000000  0.5964670000000  0.4619700000000 1.0
C      1  0.5523110000000  0.4350940000000  0.4801850000000 1.0
C      1  0.4670990000000  0.5191140000000  0.5211070000000 1.0
C      1  0.4547200000000  0.5913010000000  0.5312240000000 1.0
C      1  0.5037660000000  0.4212060000000  0.5011320000000 1.0
C      1  0.5155760000000  0.5177430000000  0.5051790000000 1.0
C      1  0.5527500000000  0.5323880000000  0.5397580000000 1.0
C      1  0.4908130000000  0.5369080000000  0.4946160000000 1.0
C      1  0.4925000000000  0.4168360000000  0.4713100000000 1.0
C      1  0.5062360000000  0.4861020000000  0.4995280000000 1.0
C      1  0.4503370000000  0.4595580000000  0.5086840000000 1.0
C      1  0.4199400000000  0.4672030000000  0.4198170000000 1.0
C      1  0.4882860000000  0.5739000000000  0.5477810000000 1.0
C      1  0.4381620000000  0.4868580000000  0.5174540000000 1.0
C      1  0.3954590000000  0.4761620000000  0.4904760000000 1.0
C      1  0.5050670000000  0.4917700000000  0.4465110000000 1.0
C      1  0.5081670000000  0.4660990000000  0.4505720000000 1.0
C      1  0.5142940000000  0.5256220000000  0.4648490000000 1.0
C      1  0.4732390000000  0.5207320000000  0.4065500000000 1.0
C      1  0.4198300000000  0.4961350000000  0.4911670000000 1.0
C      1  0.5260070000000  0.4744500000000  0.5996520000000 1.0
C      1  0.5124240000000  0.5268070000000  0.3975200000000 1.0
C      1  0.4986720000000  0.5687190000000  0.5167780000000 1.0
C      1  0.4643530000000  0.4949870000000  0.4076240000000 1.0
C      1  0.4360320000000  0.4948920000000  0.4652270000000 1.0
C      1  0.4515600000000  0.5676300000000  0.4777740000000 1.0
C      1  0.4876770000000  0.5645140000000  0.4401790000000 1.0
C      1  0.5524120000000  0.5440900000000  0.4733560000000 1.0
C      1  0.4311900000000  0.4143960000000  0.5035050000000 1.0
C      1  0.5406670000000  0.5135340000000  0.4825840000000 1.0
C      1  0.4652140000000  0.4539600000000  0.5815970000000 1.0
C      1  0.5227510000000  0.5968030000000  0.4926140000000 1.0
C      1  0.5327030000000  0.4696770000000  0.5131890000000 1.0
C      1  0.5181480000000  0.5898150000000  0.5442340000000 1.0
C      1  0.4198390000000  0.5551750000000  0.4852080000000 1.0
C      1  0.4213680000000  0.4983680000000  0.5406720000000 1.0
C      1  0.5398050000000  0.5785690000000  0.4425550000000 1.0
C      1  0.5448050000000  0.5129720000000  0.4317030000000 1.0
C      1  0.5706860000000  0.4684380000000  0.5562550000000 1.0
C      1  0.5824370000000  0.5491660000000  0.4760970000000 1.0
C      1  0.4477000000000  0.5653190000000  0.5358020000000 1.0
C      1  0.5075830000000  0.4729560000000  0.3967790000000 1.0
C      1  0.4394610000000  0.5473760000000  0.5108770000000 1.0
C      1  0.4392040000000  0.4282160000000  0.5512700000000 1.0
C      1  0.5568390000000  0.4680200000000  0.5868370000000 1.0
C      1  0.5562860000000  0.4397700000000  0.5670300000000 1.0
C      1  0.4086860000000  0.4917410000000  0.4255250000000 1.0
C      1  0.5145170000000  0.4669920000000  0.5404650000000 1.0
C      1  0.4107500000000  0.4293550000000  0.4832570000000 1.0
C      1  0.5352150000000  0.5762970000000  0.5635080000000 1.0
C      1  0.4869120000000  0.5630820000000  0.5776920000000 1.0
END
