TITL C-2847956-8218-338 -0.00629716498795003 125000 -765.161321073864 0 0 140 (C1) n - 1
REM
REM in /home/bkarasulu/work/CARBON/AIRSS/Generating-Clusters/AIREBO/with-SteepDescent/Only-C1/SD-CG-opt/Try1-1.4A-POS3A/HFTN-CG
REM
REM
REM
REM
REM
REM ./C.cell (11c1c37f851c82e70ff6c80c92926a4b)
REM
REM compiler GCC version 9.2.1 20190827 (Red Hat 9.2.1-1)
REM options -cpp -mtune=generic -march=x86-64 -g -O0 -fpre-include=/usr/include/finclude/math-vector-fortran.h
REM seed -1604495491 -907312022 -1310489541 1626237843 94538117 1183419959 -2028531106 1845975633 -2146497098 1643579358 -853355882 -472905574 -335568569 -1159149680 1576705508 -272382580 -1477177285 -1882013273 -1051658327 -1101663951 -384241999 -661486904 -404192420 1046262166 -2124913909 28352053 1624851533 1716488413 -2143447585 70748910 69047620 2084034582 -1578896411
REM
CELL 1.54180   50.00000   50.00000   50.00000   90.00000   90.00000   90.00000
LATT -1
SFAC C  
C      1  0.4877990000000  0.5149760000000  0.4737970000000 1.0
C      1  0.4332190000000  0.5205670000000  0.4646570000000 1.0
C      1  0.5361560000000  0.5094730000000  0.5827290000000 1.0
C      1  0.5813580000000  0.4614740000000  0.5066380000000 1.0
C      1  0.4359080000000  0.4695490000000  0.5829620000000 1.0
C      1  0.5336930000000  0.4564370000000  0.4110000000000 1.0
C      1  0.4896730000000  0.5045420000000  0.4420320000000 1.0
C      1  0.5714520000000  0.4448540000000  0.5413600000000 1.0
C      1  0.5104920000000  0.4339380000000  0.4531650000000 1.0
C      1  0.5858380000000  0.4447980000000  0.4812780000000 1.0
C      1  0.5190570000000  0.4630530000000  0.6000670000000 1.0
C      1  0.5093720000000  0.5196800000000  0.5385560000000 1.0
C      1  0.4534810000000  0.4693100000000  0.4484610000000 1.0
C      1  0.5793820000000  0.4821790000000  0.5513330000000 1.0
C      1  0.5673550000000  0.5731200000000  0.5334180000000 1.0
C      1  0.5249110000000  0.5521890000000  0.4617560000000 1.0
C      1  0.4232820000000  0.5190290000000  0.5545800000000 1.0
C      1  0.4936240000000  0.5698000000000  0.4041170000000 1.0
C      1  0.5123940000000  0.5952400000000  0.4904690000000 1.0
C      1  0.5105720000000  0.4504250000000  0.3982600000000 1.0
C      1  0.5303140000000  0.4804270000000  0.5660080000000 1.0
C      1  0.5604700000000  0.4393810000000  0.4617680000000 1.0
C      1  0.5344440000000  0.5481360000000  0.5727280000000 1.0
C      1  0.4838310000000  0.4724460000000  0.5329810000000 1.0
C      1  0.5385660000000  0.5971640000000  0.5632920000000 1.0
C      1  0.5342160000000  0.5730840000000  0.4851920000000 1.0
C      1  0.5196780000000  0.4968340000000  0.4514480000000 1.0
C      1  0.5317890000000  0.4311070000000  0.4784230000000 1.0
C      1  0.5879510000000  0.5295500000000  0.5392240000000 1.0
C      1  0.5751190000000  0.5923290000000  0.5114540000000 1.0
C      1  0.5878080000000  0.4955400000000  0.4584490000000 1.0
C      1  0.4301540000000  0.4220010000000  0.5179430000000 1.0
C      1  0.4645820000000  0.4281580000000  0.5535720000000 1.0
C      1  0.5561150000000  0.4635720000000  0.5630760000000 1.0
C      1  0.4834700000000  0.5384750000000  0.5707180000000 1.0
C      1  0.4953120000000  0.5147000000000  0.5130370000000 1.0
C      1  0.5033930000000  0.5936960000000  0.5165290000000 1.0
C      1  0.5280040000000  0.4767840000000  0.5162250000000 1.0
C      1  0.5851570000000  0.5310550000000  0.5673780000000 1.0
C      1  0.5176080000000  0.4115880000000  0.5024160000000 1.0
C      1  0.5385730000000  0.4787030000000  0.4358510000000 1.0
C      1  0.5037830000000  0.4351890000000  0.5234200000000 1.0
C      1  0.5123650000000  0.5211630000000  0.4014330000000 1.0
C      1  0.4869870000000  0.4515050000000  0.4138660000000 1.0
C      1  0.4482740000000  0.5513210000000  0.4290720000000 1.0
C      1  0.5580840000000  0.5096920000000  0.4622250000000 1.0
C      1  0.4386830000000  0.4814890000000  0.4225200000000 1.0
C      1  0.5602710000000  0.4354020000000  0.5126980000000 1.0
C      1  0.4745940000000  0.5462410000000  0.4759430000000 1.0
C      1  0.4912280000000  0.4731770000000  0.4366640000000 1.0
C      1  0.5311760000000  0.4849280000000  0.6057370000000 1.0
C      1  0.5605350000000  0.5208680000000  0.5272280000000 1.0
C      1  0.5459580000000  0.5347330000000  0.5034310000000 1.0
C      1  0.4793570000000  0.4007590000000  0.5517750000000 1.0
C      1  0.4786510000000  0.3815390000000  0.5691650000000 1.0
C      1  0.4440460000000  0.4900400000000  0.4721610000000 1.0
C      1  0.5527610000000  0.4910490000000  0.5346600000000 1.0
C      1  0.4303680000000  0.5600360000000  0.5321430000000 1.0
C      1  0.5437720000000  0.4577790000000  0.4931110000000 1.0
C      1  0.4755050000000  0.4155700000000  0.4471490000000 1.0
C      1  0.5404810000000  0.5605300000000  0.4258940000000 1.0
C      1  0.5507570000000  0.4776720000000  0.4675940000000 1.0
C      1  0.5764710000000  0.5726980000000  0.4565390000000 1.0
C      1  0.4291150000000  0.5067690000000  0.4187500000000 1.0
C      1  0.4230630000000  0.4603500000000  0.5563540000000 1.0
C      1  0.5055660000000  0.5636260000000  0.5636300000000 1.0
C      1  0.5678520000000  0.5531820000000  0.4393520000000 1.0
C      1  0.5918300000000  0.5100500000000  0.4890060000000 1.0
C      1  0.5077950000000  0.4566070000000  0.5686530000000 1.0
C      1  0.5119500000000  0.5554330000000  0.5038970000000 1.0
C      1  0.5196710000000  0.4543580000000  0.5378510000000 1.0
C      1  0.4972910000000  0.4823590000000  0.5027310000000 1.0
C      1  0.4777240000000  0.4563980000000  0.5623320000000 1.0
C      1  0.4571220000000  0.4877290000000  0.5223010000000 1.0
C      1  0.5162730000000  0.5248680000000  0.4895890000000 1.0
C      1  0.4951890000000  0.4024180000000  0.5262950000000 1.0
C      1  0.4318460000000  0.5726360000000  0.5004730000000 1.0
C      1  0.5784910000000  0.5261250000000  0.4440180000000 1.0
C      1  0.4396270000000  0.5221550000000  0.4980260000000 1.0
C      1  0.4911550000000  0.5219170000000  0.4182100000000 1.0
C      1  0.5425630000000  0.5720450000000  0.5510670000000 1.0
C      1  0.5971880000000  0.4646860000000  0.5343250000000 1.0
C      1  0.4236920000000  0.5467870000000  0.4840780000000 1.0
C      1  0.5230890000000  0.5496330000000  0.5344920000000 1.0
C      1  0.5120000000000  0.4007300000000  0.4533080000000 1.0
C      1  0.3777950000000  0.4464790000000  0.4681650000000 1.0
C      1  0.3982890000000  0.4640710000000  0.4629970000000 1.0
C      1  0.5333180000000  0.5386670000000  0.4020600000000 1.0
C      1  0.5647260000000  0.5771770000000  0.4843860000000 1.0
C      1  0.4539030000000  0.5826260000000  0.5225620000000 1.0
C      1  0.5111290000000  0.5315520000000  0.5892430000000 1.0
C      1  0.4015750000000  0.4278430000000  0.5034790000000 1.0
C      1  0.4532340000000  0.5542780000000  0.5750320000000 1.0
C      1  0.5617110000000  0.5321190000000  0.5809710000000 1.0
C      1  0.4318150000000  0.4712460000000  0.5261540000000 1.0
C      1  0.5373400000000  0.4465790000000  0.4421800000000 1.0
C      1  0.4505600000000  0.5142540000000  0.5362820000000 1.0
C      1  0.5458900000000  0.4077810000000  0.5143630000000 1.0
C      1  0.4260480000000  0.4643000000000  0.4769280000000 1.0
C      1  0.4940000000000  0.5570970000000  0.4520550000000 1.0
C      1  0.4674230000000  0.4936920000000  0.4910650000000 1.0
C      1  0.4705030000000  0.5967200000000  0.4620600000000 1.0
C      1  0.4242200000000  0.4525070000000  0.5052070000000 1.0
C      1  0.5002760000000  0.4772570000000  0.4692380000000 1.0
C      1  0.4797250000000  0.4484920000000  0.4546800000000 1.0
C      1  0.4850230000000  0.4067150000000  0.4939420000000 1.0
C      1  0.4729070000000  0.4414760000000  0.5234170000000 1.0
C      1  0.5318200000000  0.5231680000000  0.4605320000000 1.0
C      1  0.5194590000000  0.5797710000000  0.4445340000000 1.0
C      1  0.4583190000000  0.5735010000000  0.4449140000000 1.0
C      1  0.4454000000000  0.4386950000000  0.4726030000000 1.0
C      1  0.4725490000000  0.5351440000000  0.5386880000000 1.0
C      1  0.4813170000000  0.5490940000000  0.4238630000000 1.0
C      1  0.4690730000000  0.5309750000000  0.5051520000000 1.0
C      1  0.5938280000000  0.5310430000000  0.5076560000000 1.0
C      1  0.4214260000000  0.5089620000000  0.5193150000000 1.0
C      1  0.4846080000000  0.5682700000000  0.5197150000000 1.0
C      1  0.4098130000000  0.4894410000000  0.5446180000000 1.0
C      1  0.4344660000000  0.4314960000000  0.5472360000000 1.0
C      1  0.4344970000000  0.5283210000000  0.4357780000000 1.0
C      1  0.5708930000000  0.5532240000000  0.5062660000000 1.0
C      1  0.5857520000000  0.4633500000000  0.4555370000000 1.0
C      1  0.5380340000000  0.5158540000000  0.5495730000000 1.0
C      1  0.4855650000000  0.3964800000000  0.4660010000000 1.0
C      1  0.5027300000000  0.5912050000000  0.5468440000000 1.0
C      1  0.5404040000000  0.5021660000000  0.4973030000000 1.0
C      1  0.4437830000000  0.4380330000000  0.4409580000000 1.0
C      1  0.4673530000000  0.4317320000000  0.4207050000000 1.0
C      1  0.4636860000000  0.4758820000000  0.5807270000000 1.0
C      1  0.4293970000000  0.5487530000000  0.5572210000000 1.0
C      1  0.5700030000000  0.4878210000000  0.4937130000000 1.0
C      1  0.3786510000000  0.4302340000000  0.4906090000000 1.0
C      1  0.4805990000000  0.5050430000000  0.5762650000000 1.0
C      1  0.4540370000000  0.5718070000000  0.4774350000000 1.0
C      1  0.4786170000000  0.4959250000000  0.6073050000000 1.0
C      1  0.4676740000000  0.5672000000000  0.5480970000000 1.0
C      1  0.4574380000000  0.4259950000000  0.4989130000000 1.0
C      1  0.4983960000000  0.5963630000000  0.4651310000000 1.0
C      1  0.5182260000000  0.5754120000000  0.4049120000000 1.0
C      1  0.5010100000000  0.4931090000000  0.5539030000000 1.0
END
