TITL C-2848507-1641-700 0.00019847536063667 125000 -584.711174751053 0 0 110 (C1) n - 1
REM
REM in /home/bkarasulu/work/CARBON/AIRSS/Generating-Clusters/AIREBO/with-SteepDescent/Only-C1/SD-CG-opt/Try1-1.4A-POS3A/HFTN-CG
REM
REM
REM
REM
REM
REM ./C.cell (11c1c37f851c82e70ff6c80c92926a4b)
REM
REM compiler GCC version 9.2.1 20190827 (Red Hat 9.2.1-1)
REM options -cpp -mtune=generic -march=x86-64 -g -O0 -fpre-include=/usr/include/finclude/math-vector-fortran.h
REM seed -1723028192 -1834900680 2004392701 1316519883 -1447023447 1891740338 263259615 1284761952 288467597 1958952479 819817064 779911863 2063270919 -2105377401 -237117758 1155120042 136637404 -1230537721 1056116924 -1295703911 891492594 1667630622 519307397 -1354570971 1305764206 -548956883 1252331509 -228221997 1727129968 -719509727 1718854588 1249796840 890068025
REM
CELL 1.54180   50.00000   50.00000   50.00000   90.00000   90.00000   90.00000
LATT -1
SFAC C  
C      1  0.5193760000000  0.5042750000000  0.5925780000000 1.0
C      1  0.5161650000000  0.4725740000000  0.4179280000000 1.0
C      1  0.4599950000000  0.4686830000000  0.5371820000000 1.0
C      1  0.4418400000000  0.5562790000000  0.4599440000000 1.0
C      1  0.4366850000000  0.4860390000000  0.4186310000000 1.0
C      1  0.5242780000000  0.4075910000000  0.4575760000000 1.0
C      1  0.4359110000000  0.4726400000000  0.4995090000000 1.0
C      1  0.4905470000000  0.4446780000000  0.4456700000000 1.0
C      1  0.4513210000000  0.5166920000000  0.4170370000000 1.0
C      1  0.5549450000000  0.5558820000000  0.4956030000000 1.0
C      1  0.4790260000000  0.5379400000000  0.4626920000000 1.0
C      1  0.4434580000000  0.5086960000000  0.4551960000000 1.0
C      1  0.5700410000000  0.5003310000000  0.4640520000000 1.0
C      1  0.4700260000000  0.5691660000000  0.4679440000000 1.0
C      1  0.4260560000000  0.4749780000000  0.4430190000000 1.0
C      1  0.5003100000000  0.4568480000000  0.5378790000000 1.0
C      1  0.5218380000000  0.5481390000000  0.4962690000000 1.0
C      1  0.5002330000000  0.5808860000000  0.5418660000000 1.0
C      1  0.4931870000000  0.4105480000000  0.5557630000000 1.0
C      1  0.4679710000000  0.4713820000000  0.5878030000000 1.0
C      1  0.5456040000000  0.4211120000000  0.4577200000000 1.0
C      1  0.4401960000000  0.5644430000000  0.5109290000000 1.0
C      1  0.4967270000000  0.5519730000000  0.4389220000000 1.0
C      1  0.5635430000000  0.5773990000000  0.5158410000000 1.0
C      1  0.5824870000000  0.4480450000000  0.5216560000000 1.0
C      1  0.5403800000000  0.5796240000000  0.4802660000000 1.0
C      1  0.5981590000000  0.4296860000000  0.4801140000000 1.0
C      1  0.4600930000000  0.5020680000000  0.5772350000000 1.0
C      1  0.5180770000000  0.4409240000000  0.4787040000000 1.0
C      1  0.5124310000000  0.4114500000000  0.5173030000000 1.0
C      1  0.4156300000000  0.4972320000000  0.4629560000000 1.0
C      1  0.5446330000000  0.4784650000000  0.5025600000000 1.0
C      1  0.5698210000000  0.5311080000000  0.4241880000000 1.0
C      1  0.4821660000000  0.5069460000000  0.4289290000000 1.0
C      1  0.4334110000000  0.4428860000000  0.5157990000000 1.0
C      1  0.4263030000000  0.5500880000000  0.4833720000000 1.0
C      1  0.4260670000000  0.5366770000000  0.5219240000000 1.0
C      1  0.4258710000000  0.5222360000000  0.5506000000000 1.0
C      1  0.5773020000000  0.4410160000000  0.4943460000000 1.0
C      1  0.4989610000000  0.4651840000000  0.4844350000000 1.0
C      1  0.5143530000000  0.5389340000000  0.5281440000000 1.0
C      1  0.4939630000000  0.4896290000000  0.5366900000000 1.0
C      1  0.5938280000000  0.5469220000000  0.4673480000000 1.0
C      1  0.4174070000000  0.4707890000000  0.5279900000000 1.0
C      1  0.4345540000000  0.4984660000000  0.5298650000000 1.0
C      1  0.4850850000000  0.4281070000000  0.5277890000000 1.0
C      1  0.4930600000000  0.4556450000000  0.5710850000000 1.0
C      1  0.4410060000000  0.5062460000000  0.4986370000000 1.0
C      1  0.4669320000000  0.4657440000000  0.5081510000000 1.0
C      1  0.5295470000000  0.5695840000000  0.4532970000000 1.0
C      1  0.4679580000000  0.5169310000000  0.4870640000000 1.0
C      1  0.5399150000000  0.4891860000000  0.5618460000000 1.0
C      1  0.4014090000000  0.4682770000000  0.4980890000000 1.0
C      1  0.4647530000000  0.5762770000000  0.4975650000000 1.0
C      1  0.5569550000000  0.5306760000000  0.5576310000000 1.0
C      1  0.4951560000000  0.4200440000000  0.4647460000000 1.0
C      1  0.5486650000000  0.4793030000000  0.4687930000000 1.0
C      1  0.5120050000000  0.5233600000000  0.5737010000000 1.0
C      1  0.4744110000000  0.5559530000000  0.5635020000000 1.0
C      1  0.4682950000000  0.4850040000000  0.4084580000000 1.0
C      1  0.5650450000000  0.5339660000000  0.4637340000000 1.0
C      1  0.4990670000000  0.4246720000000  0.5762120000000 1.0
C      1  0.5515120000000  0.4472960000000  0.4774070000000 1.0
C      1  0.4986570000000  0.4845840000000  0.4001890000000 1.0
C      1  0.4636300000000  0.4980430000000  0.5467490000000 1.0
C      1  0.4525620000000  0.4297820000000  0.5359850000000 1.0
C      1  0.5024410000000  0.5150890000000  0.5070320000000 1.0
C      1  0.4529840000000  0.5312280000000  0.5660030000000 1.0
C      1  0.5197780000000  0.5085570000000  0.5424400000000 1.0
C      1  0.5372840000000  0.5950080000000  0.5208020000000 1.0
C      1  0.4905560000000  0.5707230000000  0.5127890000000 1.0
C      1  0.5069580000000  0.4928260000000  0.4694400000000 1.0
C      1  0.5118680000000  0.5107810000000  0.4287250000000 1.0
C      1  0.4607630000000  0.4501850000000  0.5618830000000 1.0
C      1  0.4888120000000  0.4878270000000  0.5048970000000 1.0
C      1  0.4583260000000  0.5363500000000  0.5328100000000 1.0
C      1  0.5822600000000  0.4717870000000  0.5346950000000 1.0
C      1  0.5271720000000  0.4866060000000  0.4448080000000 1.0
C      1  0.5502580000000  0.5766110000000  0.5444880000000 1.0
C      1  0.4195240000000  0.5225510000000  0.4840080000000 1.0
C      1  0.5150530000000  0.4754770000000  0.5815650000000 1.0
C      1  0.5185170000000  0.5374410000000  0.4316520000000 1.0
C      1  0.5054520000000  0.5259760000000  0.4759150000000 1.0
C      1  0.4632800000000  0.4300910000000  0.4710130000000 1.0
C      1  0.4749090000000  0.4982830000000  0.4594800000000 1.0
C      1  0.5291160000000  0.4302320000000  0.5057340000000 1.0
C      1  0.5722760000000  0.4941850000000  0.5146450000000 1.0
C      1  0.4799330000000  0.4395430000000  0.4961790000000 1.0
C      1  0.5299840000000  0.4568540000000  0.5211390000000 1.0
C      1  0.5349710000000  0.5072810000000  0.5107420000000 1.0
C      1  0.4426790000000  0.5355150000000  0.4416020000000 1.0
C      1  0.5507400000000  0.4993710000000  0.5924370000000 1.0
C      1  0.4479560000000  0.5663600000000  0.5443480000000 1.0
C      1  0.5466250000000  0.5465950000000  0.4403810000000 1.0
C      1  0.5855900000000  0.5099640000000  0.4920490000000 1.0
C      1  0.5679390000000  0.5004530000000  0.5465180000000 1.0
C      1  0.5417440000000  0.5537820000000  0.5577960000000 1.0
C      1  0.5032120000000  0.5672180000000  0.4751010000000 1.0
C      1  0.4728250000000  0.4648300000000  0.4536780000000 1.0
C      1  0.4785100000000  0.5389690000000  0.5107170000000 1.0
C      1  0.5443870000000  0.4590720000000  0.5491380000000 1.0
C      1  0.4440070000000  0.4546500000000  0.4575060000000 1.0
C      1  0.6063860000000  0.5316880000000  0.4846380000000 1.0
C      1  0.5798750000000  0.5104700000000  0.4349770000000 1.0
C      1  0.5151450000000  0.5873910000000  0.4997500000000 1.0
C      1  0.5077870000000  0.5519710000000  0.5578840000000 1.0
C      1  0.5081430000000  0.4465160000000  0.4242300000000 1.0
C      1  0.5547150000000  0.5239760000000  0.4946040000000 1.0
C      1  0.4452020000000  0.4874860000000  0.6031920000000 1.0
C      1  0.4332590000000  0.4360010000000  0.4839620000000 1.0
END
