TITL C-2848495-5024-568 -0.00113659205501087 125000 -176.648233427217 0 0 36 (C1) n - 1
REM
REM in /home/bkarasulu/work/CARBON/AIRSS/Generating-Clusters/AIREBO/with-SteepDescent/Only-C1/SD-CG-opt/Try1-1.4A-POS3A/HFTN-CG
REM
REM
REM
REM
REM
REM ./C.cell (11c1c37f851c82e70ff6c80c92926a4b)
REM
REM compiler GCC version 9.2.1 20190827 (Red Hat 9.2.1-1)
REM options -cpp -mtune=generic -march=x86-64 -g -O0 -fpre-include=/usr/include/finclude/math-vector-fortran.h
REM seed -1203125638 1196651390 765101328 1726025240 361561357 371407718 -132447756 873961590 2069248133 -855553040 -609969286 1540953570 -1520234195 1730435836 -969580763 -380780649 -634004362 902655757 -765223643 -1064435605 -775415319 1838007520 150854994 629602319 548726058 167569449 779131081 -791994474 -1447173594 186990740 998263253 1082854784 -144233642
REM
CELL 1.54180   50.00000   50.00000   50.00000   90.00000   90.00000   90.00000
LATT -1
SFAC C  
C      1  0.5369550000000  0.5084010000000  0.5166350000000 1.0
C      1  0.5278660000000  0.4928060000000  0.5454630000000 1.0
C      1  0.5123130000000  0.5120770000000  0.4811860000000 1.0
C      1  0.4789710000000  0.4275500000000  0.5187450000000 1.0
C      1  0.4978390000000  0.4879680000000  0.4929570000000 1.0
C      1  0.4661420000000  0.5427600000000  0.5022340000000 1.0
C      1  0.5032480000000  0.5316480000000  0.5542560000000 1.0
C      1  0.4963120000000  0.5393650000000  0.4871130000000 1.0
C      1  0.4570500000000  0.5227070000000  0.4815090000000 1.0
C      1  0.5197590000000  0.4721100000000  0.4519160000000 1.0
C      1  0.4555390000000  0.4731900000000  0.4692940000000 1.0
C      1  0.4729580000000  0.5251470000000  0.4579820000000 1.0
C      1  0.5641700000000  0.4967010000000  0.4384620000000 1.0
C      1  0.4775320000000  0.4468110000000  0.4736570000000 1.0
C      1  0.5493240000000  0.5304030000000  0.5394260000000 1.0
C      1  0.4873860000000  0.5521940000000  0.4571280000000 1.0
C      1  0.5456110000000  0.4764240000000  0.5582560000000 1.0
C      1  0.4587620000000  0.4445110000000  0.5019240000000 1.0
C      1  0.5289400000000  0.5615260000000  0.5204260000000 1.0
C      1  0.5157050000000  0.5347840000000  0.5135540000000 1.0
C      1  0.4887840000000  0.4772200000000  0.4633940000000 1.0
C      1  0.5451380000000  0.5100400000000  0.4836640000000 1.0
C      1  0.4769560000000  0.4978470000000  0.5118540000000 1.0
C      1  0.5406330000000  0.4983480000000  0.4535560000000 1.0
C      1  0.4773450000000  0.4935180000000  0.5448720000000 1.0
C      1  0.5142150000000  0.4646570000000  0.5027130000000 1.0
C      1  0.5136110000000  0.5089430000000  0.4375900000000 1.0
C      1  0.4582390000000  0.5181940000000  0.5472830000000 1.0
C      1  0.4406980000000  0.4646180000000  0.5052100000000 1.0
C      1  0.4504000000000  0.4943360000000  0.4939530000000 1.0
C      1  0.4983820000000  0.4419410000000  0.4992300000000 1.0
C      1  0.4882130000000  0.5044200000000  0.4472270000000 1.0
C      1  0.5379470000000  0.4748330000000  0.5112440000000 1.0
C      1  0.5028140000000  0.5019500000000  0.5546480000000 1.0
C      1  0.5295490000000  0.5422640000000  0.5554330000000 1.0
C      1  0.4846950000000  0.5277910000000  0.5260060000000 1.0
END
