TITL C-2847946-5639-474 0.00154057047739841 125000 -651.087617559832 0 0 118 (C1) n - 1
REM
REM in /home/bkarasulu/work/CARBON/AIRSS/Generating-Clusters/AIREBO/with-SteepDescent/Only-C1/SD-CG-opt/Try1-1.4A-POS3A/HFTN-CG
REM
REM
REM
REM
REM
REM ./C.cell (11c1c37f851c82e70ff6c80c92926a4b)
REM
REM compiler GCC version 9.2.1 20190827 (Red Hat 9.2.1-1)
REM options -cpp -mtune=generic -march=x86-64 -g -O0 -fpre-include=/usr/include/finclude/math-vector-fortran.h
REM seed 1896152904 234142339 -89460328 1706883572 -428863245 1654743417 -185040523 933420189 -1186695117 -671401677 558370560 2025741255 1535315971 -2104776233 1152556866 -1747074573 -451037551 -555136528 -318477424 616771916 -1967429837 1950707024 -927309743 309241747 407066734 460442259 -361129254 825985606 -866975290 1005175237 1372959084 766213078 1165556056
REM
CELL 1.54180   50.00000   50.00000   50.00000   90.00000   90.00000   90.00000
LATT -1
SFAC C  
C      1  0.4970610000000  0.5034770000000  0.5221870000000 1.0
C      1  0.4536760000000  0.4530460000000  0.5430620000000 1.0
C      1  0.5419780000000  0.5556380000000  0.4399510000000 1.0
C      1  0.5020690000000  0.4885470000000  0.5900920000000 1.0
C      1  0.4994870000000  0.5893910000000  0.4533300000000 1.0
C      1  0.5582580000000  0.4761560000000  0.4779380000000 1.0
C      1  0.4730200000000  0.5739500000000  0.5538420000000 1.0
C      1  0.4578710000000  0.5722210000000  0.4769660000000 1.0
C      1  0.5430600000000  0.4635440000000  0.5031020000000 1.0
C      1  0.5684960000000  0.4589290000000  0.4539620000000 1.0
C      1  0.5409340000000  0.5726510000000  0.4684140000000 1.0
C      1  0.4252520000000  0.5257480000000  0.4214970000000 1.0
C      1  0.5168830000000  0.4721520000000  0.4333630000000 1.0
C      1  0.4809740000000  0.5053100000000  0.5702480000000 1.0
C      1  0.5279210000000  0.6189960000000  0.4788690000000 1.0
C      1  0.5165190000000  0.5480120000000  0.5149790000000 1.0
C      1  0.5746720000000  0.5027360000000  0.4342560000000 1.0
C      1  0.4361760000000  0.4425340000000  0.5202580000000 1.0
C      1  0.4661370000000  0.4069440000000  0.4984330000000 1.0
C      1  0.4251980000000  0.5538330000000  0.5476100000000 1.0
C      1  0.5828020000000  0.4735040000000  0.5093470000000 1.0
C      1  0.4458120000000  0.4152960000000  0.5097890000000 1.0
C      1  0.5322790000000  0.4269010000000  0.4582570000000 1.0
C      1  0.5130160000000  0.5459980000000  0.5782150000000 1.0
C      1  0.4772270000000  0.5292350000000  0.4161070000000 1.0
C      1  0.4024430000000  0.4465430000000  0.5217250000000 1.0
C      1  0.5466870000000  0.4839210000000  0.5259230000000 1.0
C      1  0.4406080000000  0.4561100000000  0.4829320000000 1.0
C      1  0.4980060000000  0.4423070000000  0.6034630000000 1.0
C      1  0.5909730000000  0.5269870000000  0.4855340000000 1.0
C      1  0.5215690000000  0.5462780000000  0.4217360000000 1.0
C      1  0.5542460000000  0.5254730000000  0.4491610000000 1.0
C      1  0.5583510000000  0.5547990000000  0.5436480000000 1.0
C      1  0.5474090000000  0.5751430000000  0.5606980000000 1.0
C      1  0.5759120000000  0.4997270000000  0.4922630000000 1.0
C      1  0.4430030000000  0.5417840000000  0.5246930000000 1.0
C      1  0.4267140000000  0.5431810000000  0.4971220000000 1.0
C      1  0.5033720000000  0.4178820000000  0.4635260000000 1.0
C      1  0.5019430000000  0.5216250000000  0.4354480000000 1.0
C      1  0.5195930000000  0.4539190000000  0.4590310000000 1.0
C      1  0.5370910000000  0.4892420000000  0.4547540000000 1.0
C      1  0.5262760000000  0.4989810000000  0.4853360000000 1.0
C      1  0.6005930000000  0.5420690000000  0.5080920000000 1.0
C      1  0.4287720000000  0.4396650000000  0.4600840000000 1.0
C      1  0.4504460000000  0.4371290000000  0.5662500000000 1.0
C      1  0.5148140000000  0.3965290000000  0.5085780000000 1.0
C      1  0.5673030000000  0.4753690000000  0.4307660000000 1.0
C      1  0.5726120000000  0.5674420000000  0.4653840000000 1.0
C      1  0.4175100000000  0.4956590000000  0.4944560000000 1.0
C      1  0.4550940000000  0.4763890000000  0.4561210000000 1.0
C      1  0.4856000000000  0.4352080000000  0.4497650000000 1.0
C      1  0.5259750000000  0.4437420000000  0.5248370000000 1.0
C      1  0.5324000000000  0.5085400000000  0.4293520000000 1.0
C      1  0.4193550000000  0.4671880000000  0.5037360000000 1.0
C      1  0.4218200000000  0.4510760000000  0.4384080000000 1.0
C      1  0.4528400000000  0.5095060000000  0.5290060000000 1.0
C      1  0.5336950000000  0.5237480000000  0.5704960000000 1.0
C      1  0.5199790000000  0.5720590000000  0.5690880000000 1.0
C      1  0.4958340000000  0.4157150000000  0.4938360000000 1.0
C      1  0.4797400000000  0.5662830000000  0.4566430000000 1.0
C      1  0.5298830000000  0.5257520000000  0.4001370000000 1.0
C      1  0.5581350000000  0.4363120000000  0.5281700000000 1.0
C      1  0.4467890000000  0.5069500000000  0.4812740000000 1.0
C      1  0.4380670000000  0.5420740000000  0.4447780000000 1.0
C      1  0.4774860000000  0.4562980000000  0.4680310000000 1.0
C      1  0.5287860000000  0.4825850000000  0.5611040000000 1.0
C      1  0.5677130000000  0.5177230000000  0.5294870000000 1.0
C      1  0.5334990000000  0.5360230000000  0.5385990000000 1.0
C      1  0.4095350000000  0.5217470000000  0.5077650000000 1.0
C      1  0.4624070000000  0.5827440000000  0.5014160000000 1.0
C      1  0.4947410000000  0.5376740000000  0.4636530000000 1.0
C      1  0.4667990000000  0.5559590000000  0.5751490000000 1.0
C      1  0.4977710000000  0.5873310000000  0.5590620000000 1.0
C      1  0.4450890000000  0.4812820000000  0.5463100000000 1.0
C      1  0.5180680000000  0.4479180000000  0.5557130000000 1.0
C      1  0.5224030000000  0.5954690000000  0.4660720000000 1.0
C      1  0.5768940000000  0.4760420000000  0.5394030000000 1.0
C      1  0.5601500000000  0.4314690000000  0.4545240000000 1.0
C      1  0.4501080000000  0.4995470000000  0.5730580000000 1.0
C      1  0.4699990000000  0.4969960000000  0.5026240000000 1.0
C      1  0.4679160000000  0.4626960000000  0.4994500000000 1.0
C      1  0.4898600000000  0.5447040000000  0.5213640000000 1.0
C      1  0.5452090000000  0.4555870000000  0.5736500000000 1.0
C      1  0.5833570000000  0.5433880000000  0.5310510000000 1.0
C      1  0.4365160000000  0.5543560000000  0.4742180000000 1.0
C      1  0.5262450000000  0.5253580000000  0.4684820000000 1.0
C      1  0.4892640000000  0.4870720000000  0.4764230000000 1.0
C      1  0.5285770000000  0.5100110000000  0.5172460000000 1.0
C      1  0.5522970000000  0.5040770000000  0.5527270000000 1.0
C      1  0.5332930000000  0.5497090000000  0.4889600000000 1.0
C      1  0.4859660000000  0.5257590000000  0.5435460000000 1.0
C      1  0.5667580000000  0.4512380000000  0.5519120000000 1.0
C      1  0.4303580000000  0.4810970000000  0.4361180000000 1.0
C      1  0.4379720000000  0.5017710000000  0.4161590000000 1.0
C      1  0.4867630000000  0.5367380000000  0.5818840000000 1.0
C      1  0.4654790000000  0.5034320000000  0.4099390000000 1.0
C      1  0.5296870000000  0.3787830000000  0.5193320000000 1.0
C      1  0.5238720000000  0.5048610000000  0.5947680000000 1.0
C      1  0.5536630000000  0.5244480000000  0.4994000000000 1.0
C      1  0.4054270000000  0.5212300000000  0.5354870000000 1.0
C      1  0.4787340000000  0.4998140000000  0.4474080000000 1.0
C      1  0.5140060000000  0.4672830000000  0.4863630000000 1.0
C      1  0.4969000000000  0.4467890000000  0.5074280000000 1.0
C      1  0.5050850000000  0.4604750000000  0.5845290000000 1.0
C      1  0.4975210000000  0.4847270000000  0.5487510000000 1.0
C      1  0.4409040000000  0.4967290000000  0.5991010000000 1.0
C      1  0.4665530000000  0.5637830000000  0.5251940000000 1.0
C      1  0.4623330000000  0.5259230000000  0.4617440000000 1.0
C      1  0.4838390000000  0.4585960000000  0.5365200000000 1.0
C      1  0.4861540000000  0.4789570000000  0.4215920000000 1.0
C      1  0.4209840000000  0.4956630000000  0.4622260000000 1.0
C      1  0.4278830000000  0.5142160000000  0.5515480000000 1.0
C      1  0.5775770000000  0.4441720000000  0.5074330000000 1.0
C      1  0.5507430000000  0.4481030000000  0.5994400000000 1.0
C      1  0.5435810000000  0.4710890000000  0.4155910000000 1.0
C      1  0.4654410000000  0.5513000000000  0.4310740000000 1.0
C      1  0.4853550000000  0.4456700000000  0.4242360000000 1.0
C      1  0.5782510000000  0.5405310000000  0.4654100000000 1.0
END
