TITL C-2848507-1641-732 -0.000468677528012901 125000 -317.018864133724 0 0 57 (C1) n - 1
REM
REM in /home/bkarasulu/work/CARBON/AIRSS/Generating-Clusters/AIREBO/with-SteepDescent/Only-C1/SD-CG-opt/Try1-1.4A-POS3A/HFTN-CG
REM
REM
REM
REM
REM
REM ./C.cell (11c1c37f851c82e70ff6c80c92926a4b)
REM
REM compiler GCC version 9.2.1 20190827 (Red Hat 9.2.1-1)
REM options -cpp -mtune=generic -march=x86-64 -g -O0 -fpre-include=/usr/include/finclude/math-vector-fortran.h
REM seed 338708747 550169151 499595577 -1958804467 -186331415 -1100593426 -330801769 305789146 -1348013292 -925198521 -621677380 -1536882467 2121594386 -1062391488 2130878859 56536383 1356942149 270751250 1812573151 542150532 -1826224116 -1345506955 10047852 -112569789 1117036613 -154729622 1602283996 956071422 85667729 1303653813 -743517298 77485836 -41097530
REM
CELL 1.54180   50.00000   50.00000   50.00000   90.00000   90.00000   90.00000
LATT -1
SFAC C  
C      1  0.4562380000000  0.5451870000000  0.4433230000000 1.0
C      1  0.4380070000000  0.4150620000000  0.4845470000000 1.0
C      1  0.5484720000000  0.4831550000000  0.4155320000000 1.0
C      1  0.5315100000000  0.4766900000000  0.4368140000000 1.0
C      1  0.5057890000000  0.4824790000000  0.5120350000000 1.0
C      1  0.4877850000000  0.4345330000000  0.5350110000000 1.0
C      1  0.5201320000000  0.4875480000000  0.5633420000000 1.0
C      1  0.5170570000000  0.4472880000000  0.4765450000000 1.0
C      1  0.5007650000000  0.5711780000000  0.5298090000000 1.0
C      1  0.5934680000000  0.4887530000000  0.4779350000000 1.0
C      1  0.4316480000000  0.4810630000000  0.5074300000000 1.0
C      1  0.5344420000000  0.4576070000000  0.4979890000000 1.0
C      1  0.4685060000000  0.4497520000000  0.5160300000000 1.0
C      1  0.4540730000000  0.4988510000000  0.4589920000000 1.0
C      1  0.4894890000000  0.4501860000000  0.4820000000000 1.0
C      1  0.4790440000000  0.5580180000000  0.4883540000000 1.0
C      1  0.4796050000000  0.4770310000000  0.4989970000000 1.0
C      1  0.5031810000000  0.5145580000000  0.5639400000000 1.0
C      1  0.4369830000000  0.4849860000000  0.4823260000000 1.0
C      1  0.5664020000000  0.5076850000000  0.5172370000000 1.0
C      1  0.4830530000000  0.5515670000000  0.4569600000000 1.0
C      1  0.5176300000000  0.5277020000000  0.4860250000000 1.0
C      1  0.4752460000000  0.5647410000000  0.5418270000000 1.0
C      1  0.5238090000000  0.5555640000000  0.5409330000000 1.0
C      1  0.4900110000000  0.4716650000000  0.5645880000000 1.0
C      1  0.5360680000000  0.4896670000000  0.4999390000000 1.0
C      1  0.5054080000000  0.5296430000000  0.5354030000000 1.0
C      1  0.5435420000000  0.5454830000000  0.4853180000000 1.0
C      1  0.4687580000000  0.5343320000000  0.5015950000000 1.0
C      1  0.4745300000000  0.5126410000000  0.5536820000000 1.0
C      1  0.5598170000000  0.5375520000000  0.5102310000000 1.0
C      1  0.5584490000000  0.5447770000000  0.4615020000000 1.0
C      1  0.5128860000000  0.4246470000000  0.5270230000000 1.0
C      1  0.4574770000000  0.5794990000000  0.5559650000000 1.0
C      1  0.4715990000000  0.4857240000000  0.4395700000000 1.0
C      1  0.5031970000000  0.4840920000000  0.4325220000000 1.0
C      1  0.4185110000000  0.4714830000000  0.5342940000000 1.0
C      1  0.4944390000000  0.5249430000000  0.4724150000000 1.0
C      1  0.5677840000000  0.4885430000000  0.4891700000000 1.0
C      1  0.4874180000000  0.4440250000000  0.5616070000000 1.0
C      1  0.4685870000000  0.4861120000000  0.5534980000000 1.0
C      1  0.5256430000000  0.5717010000000  0.4886900000000 1.0
C      1  0.5003590000000  0.5717350000000  0.5012760000000 1.0
C      1  0.4507890000000  0.4312290000000  0.4996040000000 1.0
C      1  0.5331570000000  0.4431900000000  0.5240800000000 1.0
C      1  0.4720930000000  0.5353630000000  0.5317360000000 1.0
C      1  0.5004920000000  0.5672150000000  0.4419120000000 1.0
C      1  0.4423550000000  0.5248290000000  0.4477100000000 1.0
C      1  0.5421750000000  0.5008130000000  0.5403170000000 1.0
C      1  0.5449250000000  0.5346180000000  0.5365920000000 1.0
C      1  0.5480060000000  0.4726440000000  0.4665040000000 1.0
C      1  0.5159620000000  0.5132670000000  0.5128550000000 1.0
C      1  0.4809850000000  0.4710780000000  0.4126960000000 1.0
C      1  0.5319560000000  0.4472030000000  0.4512300000000 1.0
C      1  0.5261960000000  0.4720390000000  0.5343640000000 1.0
C      1  0.4525070000000  0.4723900000000  0.5327080000000 1.0
C      1  0.4715850000000  0.5046770000000  0.4854670000000 1.0
END
