TITL C-2847957-7266-333 0.00102120046881241 125000 -254.773700887997 0 0 48 (C1) n - 1
REM
REM in /home/bkarasulu/work/CARBON/AIRSS/Generating-Clusters/AIREBO/with-SteepDescent/Only-C1/SD-CG-opt/Try1-1.4A-POS3A/HFTN-CG
REM
REM
REM
REM
REM
REM ./C.cell (11c1c37f851c82e70ff6c80c92926a4b)
REM
REM compiler GCC version 9.2.1 20190827 (Red Hat 9.2.1-1)
REM options -cpp -mtune=generic -march=x86-64 -g -O0 -fpre-include=/usr/include/finclude/math-vector-fortran.h
REM seed -1325822065 -698018076 -1968574692 1215028847 1912254489 1839072175 1798396114 1458583226 1967504366 -633885671 -2140463809 2029942825 -1712473108 -1744642809 57807179 -142058128 -2031568706 -715192552 -1636332947 -1141378455 1545747324 -483578056 -693937905 1805310483 -467166025 -1914025425 895658914 764892244 -1896769672 -63387107 1213919824 662381370 -1400061415
REM
CELL 1.54180   50.00000   50.00000   50.00000   90.00000   90.00000   90.00000
LATT -1
SFAC C  
C      1  0.5597170000000  0.5033810000000  0.4997250000000 1.0
C      1  0.4704300000000  0.4458560000000  0.5007800000000 1.0
C      1  0.5300940000000  0.5009100000000  0.5410500000000 1.0
C      1  0.4615370000000  0.5048340000000  0.4836760000000 1.0
C      1  0.5624280000000  0.5445550000000  0.4676230000000 1.0
C      1  0.4763640000000  0.5740500000000  0.5137850000000 1.0
C      1  0.5063290000000  0.4161910000000  0.4769990000000 1.0
C      1  0.4368790000000  0.5073490000000  0.5315950000000 1.0
C      1  0.4804040000000  0.4857120000000  0.5576520000000 1.0
C      1  0.5314420000000  0.5301780000000  0.5369210000000 1.0
C      1  0.4069440000000  0.5230320000000  0.5272140000000 1.0
C      1  0.4701340000000  0.5615930000000  0.4593540000000 1.0
C      1  0.5182200000000  0.5390210000000  0.4985170000000 1.0
C      1  0.5087790000000  0.4545890000000  0.5541800000000 1.0
C      1  0.5352000000000  0.5149320000000  0.4815060000000 1.0
C      1  0.4761240000000  0.4511190000000  0.4513410000000 1.0
C      1  0.5036670000000  0.4450830000000  0.4616180000000 1.0
C      1  0.5271520000000  0.4677080000000  0.4564090000000 1.0
C      1  0.5488390000000  0.4573150000000  0.5264670000000 1.0
C      1  0.4525670000000  0.4928650000000  0.5103430000000 1.0
C      1  0.4857850000000  0.5436780000000  0.4684880000000 1.0
C      1  0.4979800000000  0.5021960000000  0.4287660000000 1.0
C      1  0.5044100000000  0.4398450000000  0.5015740000000 1.0
C      1  0.4825960000000  0.5061130000000  0.4565340000000 1.0
C      1  0.4572060000000  0.4507610000000  0.4764390000000 1.0
C      1  0.5019560000000  0.4874340000000  0.5316130000000 1.0
C      1  0.4902050000000  0.5205460000000  0.4930230000000 1.0
C      1  0.5736610000000  0.5253310000000  0.4842260000000 1.0
C      1  0.5325180000000  0.4688030000000  0.5494470000000 1.0
C      1  0.4333240000000  0.5399460000000  0.5245360000000 1.0
C      1  0.4732280000000  0.4728580000000  0.5206710000000 1.0
C      1  0.4563100000000  0.5528380000000  0.5200090000000 1.0
C      1  0.5360330000000  0.4356210000000  0.5133380000000 1.0
C      1  0.5034010000000  0.5652880000000  0.5142710000000 1.0
C      1  0.5023850000000  0.4913530000000  0.5005000000000 1.0
C      1  0.5482240000000  0.5386130000000  0.5145100000000 1.0
C      1  0.4819650000000  0.5174040000000  0.5494720000000 1.0
C      1  0.5385370000000  0.5433680000000  0.4537620000000 1.0
C      1  0.4540010000000  0.5041000000000  0.5562070000000 1.0
C      1  0.5406970000000  0.4978690000000  0.4545690000000 1.0
C      1  0.5110680000000  0.4681810000000  0.4851630000000 1.0
C      1  0.5083780000000  0.5448820000000  0.5376970000000 1.0
C      1  0.5112020000000  0.5243380000000  0.4593180000000 1.0
C      1  0.4629000000000  0.4803240000000  0.4614400000000 1.0
C      1  0.4808440000000  0.5334660000000  0.5226690000000 1.0
C      1  0.5530470000000  0.4875000000000  0.5210400000000 1.0
C      1  0.4936410000000  0.4484510000000  0.5326610000000 1.0
C      1  0.5212460000000  0.4886240000000  0.4313000000000 1.0
END
