TITL C-2847949-8115-129 0.00146620473123614 125000 -476.620007989482 0 0 90 (C1) n - 1
REM
REM in /home/bkarasulu/work/CARBON/AIRSS/Generating-Clusters/AIREBO/with-SteepDescent/Only-C1/SD-CG-opt/Try1-1.4A-POS3A/HFTN-CG
REM
REM
REM
REM
REM
REM ./C.cell (11c1c37f851c82e70ff6c80c92926a4b)
REM
REM compiler GCC version 9.2.1 20190827 (Red Hat 9.2.1-1)
REM options -cpp -mtune=generic -march=x86-64 -g -O0 -fpre-include=/usr/include/finclude/math-vector-fortran.h
REM seed -1072578575 -260496610 -1119195118 1105085507 -549785420 678527641 1454973300 821127177 -804491088 1134465258 -1072247383 1636791217 -1612270933 -812035537 -1982373106 -1166713393 -1442334730 -1835332162 -1859502449 1871926390 -210147974 1971529765 136741199 1735882784 571762895 -118097477 588313060 -1763045702 1701673635 1639859105 815631732 -1309625063 -1172245817
REM
CELL 1.54180   50.00000   50.00000   50.00000   90.00000   90.00000   90.00000
LATT -1
SFAC C  
C      1  0.5407800000000  0.5746030000000  0.4780760000000 1.0
C      1  0.5534250000000  0.4356940000000  0.5158130000000 1.0
C      1  0.4862000000000  0.4801230000000  0.5769040000000 1.0
C      1  0.4984920000000  0.4702400000000  0.4816860000000 1.0
C      1  0.5596250000000  0.5629260000000  0.4604910000000 1.0
C      1  0.5525080000000  0.5226910000000  0.5215460000000 1.0
C      1  0.4556640000000  0.4761980000000  0.4243260000000 1.0
C      1  0.5800520000000  0.5292840000000  0.5092330000000 1.0
C      1  0.4914130000000  0.4461520000000  0.5132550000000 1.0
C      1  0.5248650000000  0.4483950000000  0.5073650000000 1.0
C      1  0.5301620000000  0.4779470000000  0.4913820000000 1.0
C      1  0.5368750000000  0.4583520000000  0.4514610000000 1.0
C      1  0.5376880000000  0.4882960000000  0.5745850000000 1.0
C      1  0.5659320000000  0.5319030000000  0.4554380000000 1.0
C      1  0.5102990000000  0.4473680000000  0.4627570000000 1.0
C      1  0.5414000000000  0.5364570000000  0.5506590000000 1.0
C      1  0.4734030000000  0.4724560000000  0.5251040000000 1.0
C      1  0.5493870000000  0.4860510000000  0.5370040000000 1.0
C      1  0.5502780000000  0.4613640000000  0.5580250000000 1.0
C      1  0.4217260000000  0.5071540000000  0.4652410000000 1.0
C      1  0.5789480000000  0.4932700000000  0.4923120000000 1.0
C      1  0.4626410000000  0.4974140000000  0.5046740000000 1.0
C      1  0.4600300000000  0.5421450000000  0.4686850000000 1.0
C      1  0.4782670000000  0.5662450000000  0.5374450000000 1.0
C      1  0.4936310000000  0.4235270000000  0.4803590000000 1.0
C      1  0.4980530000000  0.5119700000000  0.5398670000000 1.0
C      1  0.4318860000000  0.5355370000000  0.4531000000000 1.0
C      1  0.4932470000000  0.5022560000000  0.4902050000000 1.0
C      1  0.4466030000000  0.4840360000000  0.5789320000000 1.0
C      1  0.5265320000000  0.4884380000000  0.4597650000000 1.0
C      1  0.4494520000000  0.4491180000000  0.4971100000000 1.0
C      1  0.4516640000000  0.4923760000000  0.4727980000000 1.0
C      1  0.4440550000000  0.4443160000000  0.4553600000000 1.0
C      1  0.5791640000000  0.5276730000000  0.4307460000000 1.0
C      1  0.4438920000000  0.4997930000000  0.4405320000000 1.0
C      1  0.4674310000000  0.5079100000000  0.5826930000000 1.0
C      1  0.5041040000000  0.4977430000000  0.4159130000000 1.0
C      1  0.5558080000000  0.5095440000000  0.5587890000000 1.0
C      1  0.4871960000000  0.4498730000000  0.5644980000000 1.0
C      1  0.4808500000000  0.5363530000000  0.4341070000000 1.0
C      1  0.4700200000000  0.5277490000000  0.5635280000000 1.0
C      1  0.5603280000000  0.4388690000000  0.5436470000000 1.0
C      1  0.5594520000000  0.4446530000000  0.4506790000000 1.0
C      1  0.4822110000000  0.4339950000000  0.4500650000000 1.0
C      1  0.5289640000000  0.5374140000000  0.5085700000000 1.0
C      1  0.4658610000000  0.5135510000000  0.5344470000000 1.0
C      1  0.5093840000000  0.4188400000000  0.5362180000000 1.0
C      1  0.4623160000000  0.4783520000000  0.5527660000000 1.0
C      1  0.5815960000000  0.5215150000000  0.4785110000000 1.0
C      1  0.5215750000000  0.4699840000000  0.5316240000000 1.0
C      1  0.5370910000000  0.5204130000000  0.4553020000000 1.0
C      1  0.5208290000000  0.5207760000000  0.4829750000000 1.0
C      1  0.4813380000000  0.5164430000000  0.4616750000000 1.0
C      1  0.4976870000000  0.4905100000000  0.4466420000000 1.0
C      1  0.5034020000000  0.4147770000000  0.5079480000000 1.0
C      1  0.4270460000000  0.5406670000000  0.5227420000000 1.0
C      1  0.4607240000000  0.4246900000000  0.4759040000000 1.0
C      1  0.5686900000000  0.4255750000000  0.4949800000000 1.0
C      1  0.4666330000000  0.4638020000000  0.4717010000000 1.0
C      1  0.4265830000000  0.4742910000000  0.4976770000000 1.0
C      1  0.5092530000000  0.5033770000000  0.5693850000000 1.0
C      1  0.4363890000000  0.5275980000000  0.5425910000000 1.0
C      1  0.6029190000000  0.5066290000000  0.5091430000000 1.0
C      1  0.5140310000000  0.5369540000000  0.5662300000000 1.0
C      1  0.4914990000000  0.5745750000000  0.4946400000000 1.0
C      1  0.5036370000000  0.5372770000000  0.5245020000000 1.0
C      1  0.5754240000000  0.4335140000000  0.4697810000000 1.0
C      1  0.4769560000000  0.5478780000000  0.5099190000000 1.0
C      1  0.4950700000000  0.5969500000000  0.5126890000000 1.0
C      1  0.5500570000000  0.5619330000000  0.5320590000000 1.0
C      1  0.5042440000000  0.5251040000000  0.4141300000000 1.0
C      1  0.4592550000000  0.5724890000000  0.4840510000000 1.0
C      1  0.5203120000000  0.5383250000000  0.4361500000000 1.0
C      1  0.5520420000000  0.4921400000000  0.5066150000000 1.0
C      1  0.5014700000000  0.5451880000000  0.4807340000000 1.0
C      1  0.4780840000000  0.4658640000000  0.4397540000000 1.0
C      1  0.4340130000000  0.4932110000000  0.5225760000000 1.0
C      1  0.4466830000000  0.5371960000000  0.4980320000000 1.0
C      1  0.4880380000000  0.5499300000000  0.5595520000000 1.0
C      1  0.5092560000000  0.4445140000000  0.5489110000000 1.0
C      1  0.5420050000000  0.5657900000000  0.5045750000000 1.0
C      1  0.4632520000000  0.4376450000000  0.5532330000000 1.0
C      1  0.5004120000000  0.4888320000000  0.5206170000000 1.0
C      1  0.4258170000000  0.5102960000000  0.4967950000000 1.0
C      1  0.4097680000000  0.4714160000000  0.5266840000000 1.0
C      1  0.4519230000000  0.5291990000000  0.4289330000000 1.0
C      1  0.5145610000000  0.5808280000000  0.4696520000000 1.0
C      1  0.4617520000000  0.4347530000000  0.5253740000000 1.0
C      1  0.4984300000000  0.5583050000000  0.4516300000000 1.0
C      1  0.4580950000000  0.5822340000000  0.5152170000000 1.0
END
