TITL C-2847946-5639-292 0.00045435775310879 125000 -818.630000812128 0 0 154 (C1) n - 1
REM
REM in /home/bkarasulu/work/CARBON/AIRSS/Generating-Clusters/AIREBO/with-SteepDescent/Only-C1/SD-CG-opt/Try1-1.4A-POS3A/HFTN-CG
REM
REM
REM
REM
REM
REM ./C.cell (11c1c37f851c82e70ff6c80c92926a4b)
REM
REM compiler GCC version 9.2.1 20190827 (Red Hat 9.2.1-1)
REM options -cpp -mtune=generic -march=x86-64 -g -O0 -fpre-include=/usr/include/finclude/math-vector-fortran.h
REM seed 399515215 -229552219 -644127686 -887223492 -694465035 -794596658 -255697809 1189246853 -1987447795 -523609405 216152777 1126070130 -219077353 1243261147 738195722 -1111578985 1860215301 204495384 931533054 -1310360173 -1252863666 -85113891 147022299 -499707365 -1933604209 1259148749 448734359 -969061307 378097829 1673567187 -956188069 -1008246043 -1903938836
REM
CELL 1.54180   50.00000   50.00000   50.00000   90.00000   90.00000   90.00000
LATT -1
SFAC C  
C      1  0.5719600000000  0.5330380000000  0.4913280000000 1.0
C      1  0.4594890000000  0.4138590000000  0.5488020000000 1.0
C      1  0.5142940000000  0.4401730000000  0.5362970000000 1.0
C      1  0.5745570000000  0.5694740000000  0.5073430000000 1.0
C      1  0.4945260000000  0.4803420000000  0.4519490000000 1.0
C      1  0.4411100000000  0.4377960000000  0.4931270000000 1.0
C      1  0.4818020000000  0.4505040000000  0.4749940000000 1.0
C      1  0.5436500000000  0.4122410000000  0.4705250000000 1.0
C      1  0.5159660000000  0.5719870000000  0.5623740000000 1.0
C      1  0.4381370000000  0.4616390000000  0.4688910000000 1.0
C      1  0.4755260000000  0.4060590000000  0.4725180000000 1.0
C      1  0.5121860000000  0.4418120000000  0.4265230000000 1.0
C      1  0.5022490000000  0.4306560000000  0.4564230000000 1.0
C      1  0.4695430000000  0.6003010000000  0.5532340000000 1.0
C      1  0.4934200000000  0.4870500000000  0.3913560000000 1.0
C      1  0.5140460000000  0.6012520000000  0.5516810000000 1.0
C      1  0.4601400000000  0.5124700000000  0.5338400000000 1.0
C      1  0.5712400000000  0.4720480000000  0.4825000000000 1.0
C      1  0.4337990000000  0.4744120000000  0.5360810000000 1.0
C      1  0.4169990000000  0.4237260000000  0.4725910000000 1.0
C      1  0.5794580000000  0.4975460000000  0.4615600000000 1.0
C      1  0.5655840000000  0.4434700000000  0.5265560000000 1.0
C      1  0.4538880000000  0.5085610000000  0.4479880000000 1.0
C      1  0.5176670000000  0.4723860000000  0.4315140000000 1.0
C      1  0.4917070000000  0.5669480000000  0.4117680000000 1.0
C      1  0.4504280000000  0.4601430000000  0.5888690000000 1.0
C      1  0.5592540000000  0.4354960000000  0.5709350000000 1.0
C      1  0.4670190000000  0.4735760000000  0.5287920000000 1.0
C      1  0.4481320000000  0.5286960000000  0.4196600000000 1.0
C      1  0.4850960000000  0.5909930000000  0.5265750000000 1.0
C      1  0.5624310000000  0.4282370000000  0.4219090000000 1.0
C      1  0.5640640000000  0.4803470000000  0.4266140000000 1.0
C      1  0.5202940000000  0.5023680000000  0.4865460000000 1.0
C      1  0.4075140000000  0.4747480000000  0.4906770000000 1.0
C      1  0.4931240000000  0.5188940000000  0.4743160000000 1.0
C      1  0.5043820000000  0.3916990000000  0.5220390000000 1.0
C      1  0.4521150000000  0.4812960000000  0.6060380000000 1.0
C      1  0.5716490000000  0.4504680000000  0.4147790000000 1.0
C      1  0.5328570000000  0.5278660000000  0.3991850000000 1.0
C      1  0.4822000000000  0.6033710000000  0.4781040000000 1.0
C      1  0.4455620000000  0.4147530000000  0.5177820000000 1.0
C      1  0.4451220000000  0.4775810000000  0.4247080000000 1.0
C      1  0.4733680000000  0.4419260000000  0.5245570000000 1.0
C      1  0.5467440000000  0.5678640000000  0.5177670000000 1.0
C      1  0.5564590000000  0.5689540000000  0.4640440000000 1.0
C      1  0.5122160000000  0.4521050000000  0.4883300000000 1.0
C      1  0.4084580000000  0.4471300000000  0.4914380000000 1.0
C      1  0.4685400000000  0.5876810000000  0.5014010000000 1.0
C      1  0.5506230000000  0.4525050000000  0.4991660000000 1.0
C      1  0.4414670000000  0.4413470000000  0.5385680000000 1.0
C      1  0.3993750000000  0.5268830000000  0.4877540000000 1.0
C      1  0.4282220000000  0.4853070000000  0.5056220000000 1.0
C      1  0.5208540000000  0.4908920000000  0.4085080000000 1.0
C      1  0.5138790000000  0.4200200000000  0.5636840000000 1.0
C      1  0.5159610000000  0.4969550000000  0.5258390000000 1.0
C      1  0.4611420000000  0.5237850000000  0.5720300000000 1.0
C      1  0.4634510000000  0.5605850000000  0.4525120000000 1.0
C      1  0.5081420000000  0.5264110000000  0.5663820000000 1.0
C      1  0.5890090000000  0.4580280000000  0.5077540000000 1.0
C      1  0.5214650000000  0.4762620000000  0.5908530000000 1.0
C      1  0.4707310000000  0.5092950000000  0.6013740000000 1.0
C      1  0.4911140000000  0.4838190000000  0.5917800000000 1.0
C      1  0.4891000000000  0.5356770000000  0.6000650000000 1.0
C      1  0.5139100000000  0.5197910000000  0.4251450000000 1.0
C      1  0.5311680000000  0.5730440000000  0.4743400000000 1.0
C      1  0.4549320000000  0.5525110000000  0.5590690000000 1.0
C      1  0.4391570000000  0.5408140000000  0.4657440000000 1.0
C      1  0.4641200000000  0.4298300000000  0.5785250000000 1.0
C      1  0.5768850000000  0.5780460000000  0.4806750000000 1.0
C      1  0.5588130000000  0.4608770000000  0.5513340000000 1.0
C      1  0.5879210000000  0.4681480000000  0.4466720000000 1.0
C      1  0.5170670000000  0.5972690000000  0.5168440000000 1.0
C      1  0.5145560000000  0.5987560000000  0.4826880000000 1.0
C      1  0.5227080000000  0.4028290000000  0.4956240000000 1.0
C      1  0.4606170000000  0.5829190000000  0.5694260000000 1.0
C      1  0.5070360000000  0.4288850000000  0.5078990000000 1.0
C      1  0.5365160000000  0.5537420000000  0.4210720000000 1.0
C      1  0.5249980000000  0.4958290000000  0.4550490000000 1.0
C      1  0.4048880000000  0.4923200000000  0.5369440000000 1.0
C      1  0.4892550000000  0.5160390000000  0.5273330000000 1.0
C      1  0.6057480000000  0.5414250000000  0.4521860000000 1.0
C      1  0.5217460000000  0.5408150000000  0.5940150000000 1.0
C      1  0.4649140000000  0.4142150000000  0.4468640000000 1.0
C      1  0.5123420000000  0.5468270000000  0.4768750000000 1.0
C      1  0.5811640000000  0.4850720000000  0.5528900000000 1.0
C      1  0.5484970000000  0.5440980000000  0.5825750000000 1.0
C      1  0.5269250000000  0.5296000000000  0.4514150000000 1.0
C      1  0.5806440000000  0.5303390000000  0.5383780000000 1.0
C      1  0.4159130000000  0.5158690000000  0.4601080000000 1.0
C      1  0.5889260000000  0.5453470000000  0.5150170000000 1.0
C      1  0.4675440000000  0.4817130000000  0.4089250000000 1.0
C      1  0.4429360000000  0.5684030000000  0.5127950000000 1.0
C      1  0.5588040000000  0.5186130000000  0.5765000000000 1.0
C      1  0.4423460000000  0.4995820000000  0.5572960000000 1.0
C      1  0.4992330000000  0.5206690000000  0.3944800000000 1.0
C      1  0.4185080000000  0.5727490000000  0.4940760000000 1.0
C      1  0.4775730000000  0.5302580000000  0.4464280000000 1.0
C      1  0.5349300000000  0.4304070000000  0.5824580000000 1.0
C      1  0.4751650000000  0.4187400000000  0.5015280000000 1.0
C      1  0.4175350000000  0.5194420000000  0.5633660000000 1.0
C      1  0.5844890000000  0.4433250000000  0.4581560000000 1.0
C      1  0.4683470000000  0.5482780000000  0.5043150000000 1.0
C      1  0.5523090000000  0.5283620000000  0.5187220000000 1.0
C      1  0.4868320000000  0.4419260000000  0.5562790000000 1.0
C      1  0.4826050000000  0.5632400000000  0.5424600000000 1.0
C      1  0.5553700000000  0.5721940000000  0.5647050000000 1.0
C      1  0.4890610000000  0.4518370000000  0.5887330000000 1.0
C      1  0.4827710000000  0.5636130000000  0.4803270000000 1.0
C      1  0.4759970000000  0.5921170000000  0.4504020000000 1.0
C      1  0.4419800000000  0.5133540000000  0.5097730000000 1.0
C      1  0.5153870000000  0.5730580000000  0.4273020000000 1.0
C      1  0.5494640000000  0.4722540000000  0.4563790000000 1.0
C      1  0.4173590000000  0.4552090000000  0.4427500000000 1.0
C      1  0.4525660000000  0.4918750000000  0.4748090000000 1.0
C      1  0.5698470000000  0.4140120000000  0.5322020000000 1.0
C      1  0.5305730000000  0.4486990000000  0.4610400000000 1.0
C      1  0.4129710000000  0.5360550000000  0.5415960000000 1.0
C      1  0.4877100000000  0.5033910000000  0.5660580000000 1.0
C      1  0.5651330000000  0.4991130000000  0.5111560000000 1.0
C      1  0.5531770000000  0.5072420000000  0.4810160000000 1.0
C      1  0.5639470000000  0.4332120000000  0.4763620000000 1.0
C      1  0.4957720000000  0.4813630000000  0.5451880000000 1.0
C      1  0.4266160000000  0.5044440000000  0.4299030000000 1.0
C      1  0.4957540000000  0.5443060000000  0.5210940000000 1.0
C      1  0.5804620000000  0.5126530000000  0.5598040000000 1.0
C      1  0.4917400000000  0.4040660000000  0.5442200000000 1.0
C      1  0.5510090000000  0.5002920000000  0.4073630000000 1.0
C      1  0.4089090000000  0.5186750000000  0.5156420000000 1.0
C      1  0.5807920000000  0.4817580000000  0.5238690000000 1.0
C      1  0.4673660000000  0.4722530000000  0.4947520000000 1.0
C      1  0.4711300000000  0.4361930000000  0.4320130000000 1.0
C      1  0.5336870000000  0.5183860000000  0.5454100000000 1.0
C      1  0.4609260000000  0.5233200000000  0.4844820000000 1.0
C      1  0.4653510000000  0.4644560000000  0.4486980000000 1.0
C      1  0.4919550000000  0.5558130000000  0.5731140000000 1.0
C      1  0.4876400000000  0.4566510000000  0.4103520000000 1.0
C      1  0.5391930000000  0.4944240000000  0.5689270000000 1.0
C      1  0.5255910000000  0.4682800000000  0.5519260000000 1.0
C      1  0.5275150000000  0.4513540000000  0.5997230000000 1.0
C      1  0.5785500000000  0.5297520000000  0.4598640000000 1.0
C      1  0.4463330000000  0.5596430000000  0.4233130000000 1.0
C      1  0.5260790000000  0.4756950000000  0.5036050000000 1.0
C      1  0.4134010000000  0.4837720000000  0.4614320000000 1.0
C      1  0.4320480000000  0.5564880000000  0.5391550000000 1.0
C      1  0.4803610000000  0.5379740000000  0.4136270000000 1.0
C      1  0.5420720000000  0.5910280000000  0.5390530000000 1.0
C      1  0.5551030000000  0.5441500000000  0.4457280000000 1.0
C      1  0.4133360000000  0.5515210000000  0.4780260000000 1.0
C      1  0.5374650000000  0.4232400000000  0.4395280000000 1.0
C      1  0.5352600000000  0.5523600000000  0.5457750000000 1.0
C      1  0.5074740000000  0.5921620000000  0.4498700000000 1.0
C      1  0.5242820000000  0.5445100000000  0.5081720000000 1.0
C      1  0.4630770000000  0.4656640000000  0.5616320000000 1.0
C      1  0.5054050000000  0.4014500000000  0.4689140000000 1.0
END
