TITL C-2848501-3133-551 -4.39367377931957e-07 125000 -148.549444024599 0 0 28 (C1) n - 1
REM
REM in /home/bkarasulu/work/CARBON/AIRSS/Generating-Clusters/AIREBO/with-SteepDescent/Only-C1/SD-CG-opt/Try1-1.4A-POS3A/HFTN-CG
REM
REM
REM
REM
REM
REM ./C.cell (11c1c37f851c82e70ff6c80c92926a4b)
REM
REM compiler GCC version 9.2.1 20190827 (Red Hat 9.2.1-1)
REM options -cpp -mtune=generic -march=x86-64 -g -O0 -fpre-include=/usr/include/finclude/math-vector-fortran.h
REM seed 289343281 -1796012682 -1093384731 745507708 1229339313 2098171711 1925211022 -1967680176 -1501027242 -1086578379 -614771086 -1892578261 1610428240 1726456551 -657770355 -954478279 -127291190 -276125462 -1290209760 -2059792159 -2087464384 -33536476 -483857169 -449468669 -323545622 -1002415149 1515318220 2025961663 739408915 -513408577 1120781083 421240701 -1759806284
REM
CELL 1.54180   50.00000   50.00000   50.00000   90.00000   90.00000   90.00000
LATT -1
SFAC C  
C      1  0.5531350000000  0.4949130000000  0.5275870000000 1.0
C      1  0.5109890000000  0.5411440000000  0.4529910000000 1.0
C      1  0.4603280000000  0.4991850000000  0.5218810000000 1.0
C      1  0.5326050000000  0.5092460000000  0.5138260000000 1.0
C      1  0.5050060000000  0.4773150000000  0.5686010000000 1.0
C      1  0.5259020000000  0.5359240000000  0.4744480000000 1.0
C      1  0.5435220000000  0.4521140000000  0.5449900000000 1.0
C      1  0.4662480000000  0.4817700000000  0.4492650000000 1.0
C      1  0.5554190000000  0.4657640000000  0.5228660000000 1.0
C      1  0.4547820000000  0.4697260000000  0.4224700000000 1.0
C      1  0.4898600000000  0.4552700000000  0.5586240000000 1.0
C      1  0.5346620000000  0.4720320000000  0.5644930000000 1.0
C      1  0.4718950000000  0.5300290000000  0.4192380000000 1.0
C      1  0.4993970000000  0.4819170000000  0.5961920000000 1.0
C      1  0.5588160000000  0.5486080000000  0.5064650000000 1.0
C      1  0.5505000000000  0.4955710000000  0.5571340000000 1.0
C      1  0.4546810000000  0.5032360000000  0.4266250000000 1.0
C      1  0.4672600000000  0.5047080000000  0.5456710000000 1.0
C      1  0.4943940000000  0.5358730000000  0.4327820000000 1.0
C      1  0.5083570000000  0.5264760000000  0.5646530000000 1.0
C      1  0.4985040000000  0.5030380000000  0.5522130000000 1.0
C      1  0.4459720000000  0.5237960000000  0.4025530000000 1.0
C      1  0.4744930000000  0.4782700000000  0.4730820000000 1.0
C      1  0.5064680000000  0.5015240000000  0.5207640000000 1.0
C      1  0.5394110000000  0.5317260000000  0.4982030000000 1.0
C      1  0.4277670000000  0.5324710000000  0.3852360000000 1.0
C      1  0.4859680000000  0.4578510000000  0.4939810000000 1.0
C      1  0.4836590000000  0.4905020000000  0.5031650000000 1.0
END
