TITL C-2847947-6848-549 -7937.798529786 125000 -754.997585206714 0 0 138 (C1) n - 1
REM
REM in /home/bkarasulu/work/CARBON/AIRSS/Generating-Clusters/AIREBO/with-SteepDescent/Only-C1/SD-CG-opt/Try1-1.4A-POS3A/HFTN-CG
REM
REM
REM
REM
REM
REM ./C.cell (11c1c37f851c82e70ff6c80c92926a4b)
REM
REM compiler GCC version 9.2.1 20190827 (Red Hat 9.2.1-1)
REM options -cpp -mtune=generic -march=x86-64 -g -O0 -fpre-include=/usr/include/finclude/math-vector-fortran.h
REM seed -2111775929 442758277 905697239 1984460332 -497821736 -1057723875 -1171687008 1434294221 60476753 -299530427 1105372873 -412830286 -1256853786 -507812889 -1565258422 1568746835 1849130121 -1558988149 1861187705 -19678935 826686371 1667601581 338075174 -330236595 -676556123 -1724309662 -800505126 -1029059174 -1491325321 1809910359 -612465339 1291769965 -1825437227
REM
CELL 1.54180   50.00000   50.00000   50.00000   90.00000   90.00000   90.00000
LATT -1
SFAC C  
C      1  0.4469170000000  0.5707460000000  0.5256620000000 1.0
C      1  0.5629930000000  0.5026610000000  0.4155540000000 1.0
C      1  0.4979450000000  0.4757000000000  0.4181660000000 1.0
C      1  0.5585650000000  0.5256670000000  0.4784780000000 1.0
C      1  0.4609400000000  0.5684990000000  0.5562340000000 1.0
C      1  0.4572920000000  0.4558380000000  0.4566200000000 1.0
C      1  0.5488350000000  0.5498380000000  0.5706120000000 1.0
C      1  0.5557790000000  0.4316870000000  0.5078220000000 1.0
C      1  0.6218070000000  0.5000460000000  0.4798660000000 1.0
C      1  0.4179320000000  0.4845300000000  0.5132590000000 1.0
C      1  0.4860710000000  0.3840730000000  0.5605570000000 1.0
C      1  0.5015650000000  0.5848980000000  0.4249980000000 1.0
C      1  0.4257670000000  0.5241160000000  0.5619640000000 1.0
C      1  0.4343890000000  0.4259030000000  0.5567660000000 1.0
C      1  0.5747610000000  0.5185770000000  0.5390260000000 1.0
C      1  0.4279710000000  0.4421110000000  0.4515320000000 1.0
C      1  0.4960380000000  0.5246380000000  0.5002530000000 1.0
C      1  0.4822760000000  0.4393620000000  0.5658420000000 1.0
C      1  0.5236520000000  0.5901260000000  0.4697330000000 1.0
C      1  0.5326390000000  0.4683330000000  0.4443090000000 1.0
C      1  0.5240400000000  0.5391870000000  0.4650290000000 1.0
C      1  0.4947900000000  0.4003590000000  0.4207340000000 1.0
C      1  0.4947830000000  0.5680320000000  0.5848710000000 1.0
C      1  0.4563860000000  0.5499490000000  0.4845120000000 1.0
C      1  0.4575600000000  0.5031270000000  0.4229920000000 1.0
C      1  0.4138230000000  0.4344750000000  0.4798360000000 1.0
C      1  0.5163580000000  0.4958270000000  0.5217260000000 1.0
C      1  0.5215460000000  0.4684500000000  0.4060130000000 1.0
C      1  0.4731570000000  0.4887920000000  0.4938130000000 1.0
C      1  0.5207240000000  0.5236390000000  0.4284680000000 1.0
C      1  0.5456610000000  0.4184740000000  0.4795080000000 1.0
C      1  0.4811710000000  0.4971710000000  0.4091330000000 1.0
C      1  0.5483890000000  0.4146840000000  0.5333460000000 1.0
C      1  0.5688280000000  0.4916850000000  0.4964250000000 1.0
C      1  0.5359670000000  0.5743010000000  0.4500910000000 1.0
C      1  0.5591230000000  0.4839070000000  0.5857120000000 1.0
C      1  0.4790170000000  0.5430990000000  0.4381620000000 1.0
C      1  0.4992020000000  0.4688630000000  0.5596560000000 1.0
C      1  0.4996440000000  0.4545860000000  0.4931210000000 1.0
C      1  0.4582480000000  0.4899240000000  0.5552970000000 1.0
C      1  0.5331220000000  0.5253840000000  0.5778120000000 1.0
C      1  0.5264410000000  0.5396770000000  0.4977200000000 1.0
C      1  0.4617830000000  0.4789730000000  0.5873260000000 1.0
C      1  0.4977060000000  0.4146030000000  0.5601490000000 1.0
C      1  0.4120600000000  0.5479620000000  0.5548470000000 1.0
C      1  0.4835150000000  0.4671760000000  0.4696880000000 1.0
C      1  0.5135920000000  0.4102670000000  0.4783600000000 1.0
C      1  0.4941750000000  0.5636270000000  0.4751070000000 1.0
C      1  0.5526310000000  0.4744730000000  0.4185180000000 1.0
C      1  0.5398150000000  0.5112950000000  0.4540230000000 1.0
C      1  0.3993340000000  0.5437010000000  0.5276930000000 1.0
C      1  0.5010680000000  0.4800350000000  0.4490890000000 1.0
C      1  0.4338810000000  0.5265090000000  0.4903690000000 1.0
C      1  0.4977570000000  0.5196190000000  0.4041430000000 1.0
C      1  0.5856430000000  0.4539100000000  0.5567200000000 1.0
C      1  0.4874280000000  0.4000850000000  0.5327690000000 1.0
C      1  0.4665650000000  0.5822480000000  0.5052700000000 1.0
C      1  0.5041770000000  0.4108670000000  0.5059450000000 1.0
C      1  0.5997040000000  0.5042080000000  0.4918950000000 1.0
C      1  0.4819430000000  0.5322530000000  0.4702570000000 1.0
C      1  0.5123760000000  0.4553100000000  0.5863380000000 1.0
C      1  0.4577700000000  0.5086320000000  0.4740500000000 1.0
C      1  0.5122380000000  0.4631130000000  0.5300770000000 1.0
C      1  0.5227620000000  0.5122350000000  0.5503160000000 1.0
C      1  0.4025300000000  0.4537590000000  0.4056280000000 1.0
C      1  0.5569760000000  0.4252920000000  0.4513780000000 1.0
C      1  0.5356830000000  0.4412070000000  0.5784940000000 1.0
C      1  0.4740640000000  0.4220200000000  0.5121780000000 1.0
C      1  0.5690300000000  0.5457860000000  0.5520570000000 1.0
C      1  0.4826470000000  0.5955380000000  0.4788140000000 1.0
C      1  0.4933810000000  0.5238480000000  0.5434830000000 1.0
C      1  0.5438890000000  0.5196720000000  0.4064860000000 1.0
C      1  0.3902360000000  0.5067040000000  0.4793530000000 1.0
C      1  0.4192160000000  0.5309220000000  0.4326880000000 1.0
C      1  0.4492110000000  0.5172800000000  0.5403400000000 1.0
C      1  0.5282110000000  0.4446020000000  0.4925050000000 1.0
C      1  0.5719710000000  0.4547970000000  0.4134010000000 1.0
C      1  0.5066010000000  0.4938710000000  0.4903330000000 1.0
C      1  0.4269110000000  0.4154440000000  0.4940220000000 1.0
C      1  0.4797930000000  0.4585000000000  0.5927340000000 1.0
C      1  0.4489460000000  0.5339950000000  0.4251670000000 1.0
C      1  0.5843730000000  0.4891980000000  0.5248120000000 1.0
C      1  0.5812820000000  0.5501270000000  0.4850420000000 1.0
C      1  0.4513490000000  0.4887430000000  0.4492250000000 1.0
C      1  0.5189490000000  0.5728260000000  0.4965180000000 1.0
C      1  0.5188160000000  0.4297750000000  0.5284070000000 1.0
C      1  0.4750330000000  0.5070550000000  0.5224320000000 1.0
C      1  0.4555680000000  0.4400600000000  0.5516000000000 1.0
C      1  0.5014620000000  0.5214030000000  0.5825520000000 1.0
C      1  0.5724230000000  0.5345440000000  0.4494160000000 1.0
C      1  0.5557250000000  0.5440980000000  0.5144570000000 1.0
C      1  0.4787180000000  0.5521880000000  0.5101230000000 1.0
C      1  0.5342060000000  0.4379500000000  0.4412080000000 1.0
C      1  0.4031930000000  0.5062080000000  0.4498670000000 1.0
C      1  0.4467070000000  0.4707900000000  0.5044880000000 1.0
C      1  0.4289590000000  0.5704380000000  0.5543750000000 1.0
C      1  0.4879650000000  0.6062880000000  0.5104320000000 1.0
C      1  0.5484920000000  0.5045290000000  0.5940800000000 1.0
C      1  0.5410290000000  0.5093490000000  0.5026320000000 1.0
C      1  0.4885090000000  0.4975760000000  0.5644080000000 1.0
C      1  0.5116360000000  0.4245350000000  0.4477790000000 1.0
C      1  0.5005580000000  0.5717120000000  0.5586970000000 1.0
C      1  0.5846310000000  0.4434290000000  0.5099630000000 1.0
C      1  0.5227070000000  0.5898150000000  0.5437410000000 1.0
C      1  0.5842490000000  0.5264100000000  0.5086470000000 1.0
C      1  0.5906040000000  0.4626820000000  0.5303430000000 1.0
C      1  0.5501930000000  0.4993160000000  0.5424160000000 1.0
C      1  0.5453210000000  0.4697450000000  0.5015370000000 1.0
C      1  0.5561910000000  0.4597760000000  0.5663600000000 1.0
C      1  0.4098820000000  0.5054720000000  0.4984940000000 1.0
C      1  0.4566990000000  0.4665660000000  0.5354640000000 1.0
C      1  0.4851290000000  0.4101620000000  0.4548160000000 1.0
C      1  0.4260090000000  0.4649880000000  0.4796190000000 1.0
C      1  0.4818240000000  0.4522290000000  0.5194050000000 1.0
C      1  0.4326290000000  0.5402040000000  0.5214660000000 1.0
C      1  0.5052170000000  0.6125660000000  0.5301420000000 1.0
C      1  0.5452090000000  0.4693790000000  0.5356210000000 1.0
C      1  0.5385080000000  0.5751570000000  0.5700410000000 1.0
C      1  0.4546380000000  0.4164470000000  0.4908400000000 1.0
C      1  0.4850260000000  0.5521260000000  0.5402970000000 1.0
C      1  0.5622710000000  0.5770920000000  0.4932590000000 1.0
C      1  0.4888900000000  0.5425720000000  0.5959280000000 1.0
C      1  0.5813260000000  0.5161900000000  0.4321220000000 1.0
C      1  0.5676420000000  0.5675160000000  0.5315140000000 1.0
C      1  0.4470250000000  0.5701860000000  0.4664800000000 1.0
C      1  0.5325350000000  0.4840450000000  0.4732680000000 1.0
C      1  0.4633300000000  0.4239900000000  0.4650380000000 1.0
C      1  0.5109350000000  0.5548280000000  0.4378290000000 1.0
C      1  0.4200170000000  0.4810550000000  0.4502440000000 1.0
C      1  0.4727300000000  0.5390390000000  0.6171450000000 1.0
C      1  0.5401800000000  0.5805590000000  0.5189040000000 1.0
C      1  0.4547140000000  0.5653990000000  0.4378160000000 1.0
C      1  0.4118470000000  0.4572410000000  0.4291200000000 1.0
C      1  0.5613930000000  0.5639540000000  0.4614040000000 1.0
C      1  0.4151880000000  0.5343100000000  0.4647810000000 1.0
C      1  0.4822970000000  0.5814070000000  0.4486710000000 1.0
C      1  0.5001640000000  0.5101410000000  0.4519450000000 1.0
C      1  0.5285660000000  0.4193360000000  0.5595340000000 1.0
END
