TITL C-2847957-7266-524 0.000815245793755266 125000 -580.045071845747 0 0 107 (C1) n - 1
REM
REM in /home/bkarasulu/work/CARBON/AIRSS/Generating-Clusters/AIREBO/with-SteepDescent/Only-C1/SD-CG-opt/Try1-1.4A-POS3A/HFTN-CG
REM
REM
REM
REM
REM
REM ./C.cell (11c1c37f851c82e70ff6c80c92926a4b)
REM
REM compiler GCC version 9.2.1 20190827 (Red Hat 9.2.1-1)
REM options -cpp -mtune=generic -march=x86-64 -g -O0 -fpre-include=/usr/include/finclude/math-vector-fortran.h
REM seed -1264269154 -1951007652 -1404168184 166549712 -242078334 774518066 -1151843149 331786504 1799235524 1089394900 -1536810802 1611361419 1178863523 -1894769003 -1593285496 -1712540405 1900970423 -1307142826 -1943441270 -2015288860 147292251 1188033915 -1213096430 979432502 -1498819345 -613475447 -523989026 -1284847751 -1066934738 -547219871 1275342927 -218916229 -2106479149
REM
CELL 1.54180   50.00000   50.00000   50.00000   90.00000   90.00000   90.00000
LATT -1
SFAC C  
C      1  0.4444560000000  0.4796410000000  0.5078760000000 1.0
C      1  0.5232480000000  0.5121230000000  0.3977140000000 1.0
C      1  0.5063950000000  0.5700970000000  0.5595270000000 1.0
C      1  0.5348960000000  0.4656130000000  0.5334560000000 1.0
C      1  0.4755270000000  0.4193550000000  0.5438600000000 1.0
C      1  0.4639670000000  0.4633620000000  0.4774310000000 1.0
C      1  0.5067620000000  0.5344100000000  0.4023870000000 1.0
C      1  0.5325930000000  0.4240150000000  0.5587120000000 1.0
C      1  0.5780750000000  0.4485240000000  0.4938700000000 1.0
C      1  0.5326880000000  0.4546760000000  0.4318190000000 1.0
C      1  0.4145740000000  0.5124780000000  0.4359980000000 1.0
C      1  0.4283130000000  0.5346940000000  0.5201040000000 1.0
C      1  0.5059290000000  0.4547100000000  0.4372140000000 1.0
C      1  0.4582070000000  0.5130690000000  0.4202820000000 1.0
C      1  0.4999840000000  0.5178410000000  0.4855400000000 1.0
C      1  0.5210090000000  0.5357380000000  0.5453950000000 1.0
C      1  0.4270970000000  0.5007600000000  0.5671280000000 1.0
C      1  0.4907560000000  0.5733750000000  0.5111890000000 1.0
C      1  0.5566390000000  0.5559600000000  0.4887970000000 1.0
C      1  0.5280840000000  0.4419580000000  0.5125810000000 1.0
C      1  0.5529070000000  0.5573160000000  0.4574630000000 1.0
C      1  0.4535080000000  0.5483730000000  0.5385580000000 1.0
C      1  0.4470820000000  0.5691670000000  0.4691610000000 1.0
C      1  0.4575520000000  0.5075070000000  0.5020850000000 1.0
C      1  0.5155360000000  0.4716540000000  0.4981260000000 1.0
C      1  0.4061580000000  0.4885590000000  0.5015730000000 1.0
C      1  0.4477860000000  0.5584420000000  0.5074720000000 1.0
C      1  0.4809140000000  0.5295290000000  0.4118440000000 1.0
C      1  0.4880510000000  0.5352690000000  0.5535550000000 1.0
C      1  0.5321730000000  0.5665970000000  0.5014730000000 1.0
C      1  0.4137510000000  0.4554060000000  0.5009160000000 1.0
C      1  0.5755440000000  0.5392350000000  0.5109450000000 1.0
C      1  0.4240710000000  0.5245980000000  0.4664320000000 1.0
C      1  0.5534080000000  0.4790140000000  0.4875830000000 1.0
C      1  0.5163200000000  0.5656870000000  0.5293340000000 1.0
C      1  0.5306930000000  0.4523980000000  0.5707940000000 1.0
C      1  0.4578250000000  0.4703750000000  0.5352190000000 1.0
C      1  0.5100930000000  0.5183530000000  0.5909050000000 1.0
C      1  0.4936900000000  0.4614670000000  0.5183770000000 1.0
C      1  0.5748220000000  0.4978020000000  0.5390580000000 1.0
C      1  0.5138010000000  0.4471270000000  0.4756500000000 1.0
C      1  0.5492670000000  0.5256180000000  0.4815510000000 1.0
C      1  0.4755220000000  0.5635490000000  0.5570970000000 1.0
C      1  0.4303090000000  0.5149260000000  0.4136940000000 1.0
C      1  0.5562180000000  0.5400540000000  0.5756610000000 1.0
C      1  0.5273960000000  0.5077140000000  0.5636240000000 1.0
C      1  0.5508430000000  0.4812840000000  0.4427050000000 1.0
C      1  0.5321180000000  0.4777040000000  0.5815210000000 1.0
C      1  0.4326250000000  0.4711970000000  0.4774000000000 1.0
C      1  0.4796640000000  0.4423940000000  0.5585740000000 1.0
C      1  0.4258910000000  0.5783030000000  0.4903570000000 1.0
C      1  0.4401650000000  0.4354220000000  0.4930680000000 1.0
C      1  0.5068090000000  0.4886780000000  0.5920760000000 1.0
C      1  0.5811550000000  0.4496090000000  0.5222320000000 1.0
C      1  0.5215930000000  0.4972510000000  0.4495890000000 1.0
C      1  0.5241200000000  0.5563470000000  0.4479670000000 1.0
C      1  0.5094310000000  0.5167740000000  0.5181950000000 1.0
C      1  0.4839730000000  0.4408050000000  0.4272030000000 1.0
C      1  0.4837490000000  0.5297240000000  0.5926630000000 1.0
C      1  0.5056890000000  0.5500510000000  0.4941020000000 1.0
C      1  0.5064520000000  0.5278570000000  0.4536910000000 1.0
C      1  0.5731450000000  0.5470660000000  0.4428160000000 1.0
C      1  0.4280990000000  0.4922060000000  0.4590970000000 1.0
C      1  0.4516100000000  0.5411470000000  0.4605720000000 1.0
C      1  0.5904670000000  0.4686870000000  0.4768070000000 1.0
C      1  0.5909290000000  0.4976290000000  0.4887970000000 1.0
C      1  0.5658450000000  0.4666950000000  0.5373880000000 1.0
C      1  0.5821120000000  0.5212600000000  0.4446180000000 1.0
C      1  0.4992750000000  0.4746840000000  0.4617890000000 1.0
C      1  0.5202000000000  0.5560820000000  0.4154500000000 1.0
C      1  0.4374480000000  0.5202400000000  0.5494600000000 1.0
C      1  0.4495790000000  0.4391540000000  0.4605990000000 1.0
C      1  0.5159840000000  0.4909400000000  0.5377060000000 1.0
C      1  0.5460700000000  0.4487600000000  0.4862450000000 1.0
C      1  0.5530730000000  0.4953040000000  0.5139260000000 1.0
C      1  0.5813540000000  0.4676640000000  0.4490510000000 1.0
C      1  0.4810760000000  0.4011430000000  0.4748180000000 1.0
C      1  0.4598530000000  0.4323430000000  0.4371620000000 1.0
C      1  0.5295700000000  0.5533440000000  0.5732000000000 1.0
C      1  0.4362200000000  0.4707160000000  0.5615610000000 1.0
C      1  0.4763950000000  0.4950080000000  0.4766540000000 1.0
C      1  0.5881950000000  0.5136850000000  0.5121200000000 1.0
C      1  0.4716620000000  0.4483420000000  0.5038440000000 1.0
C      1  0.4242660000000  0.5122230000000  0.4967590000000 1.0
C      1  0.5008730000000  0.4218860000000  0.4852450000000 1.0
C      1  0.5520710000000  0.5424470000000  0.5332680000000 1.0
C      1  0.4649030000000  0.5096460000000  0.5335820000000 1.0
C      1  0.5070170000000  0.4527030000000  0.5480400000000 1.0
C      1  0.4807590000000  0.4837990000000  0.5805710000000 1.0
C      1  0.5281330000000  0.4990350000000  0.4823730000000 1.0
C      1  0.4252970000000  0.4644970000000  0.5306590000000 1.0
C      1  0.4964600000000  0.5886630000000  0.4814630000000 1.0
C      1  0.4720660000000  0.5109790000000  0.5668110000000 1.0
C      1  0.4851310000000  0.4848730000000  0.5397110000000 1.0
C      1  0.5605660000000  0.5148630000000  0.5614590000000 1.0
C      1  0.4953330000000  0.4183880000000  0.5174130000000 1.0
C      1  0.4818530000000  0.5715690000000  0.4404110000000 1.0
C      1  0.4787520000000  0.5400410000000  0.4414370000000 1.0
C      1  0.5345430000000  0.5003260000000  0.4182880000000 1.0
C      1  0.4653810000000  0.4150000000000  0.5016100000000 1.0
C      1  0.4650290000000  0.5843020000000  0.4936830000000 1.0
C      1  0.5395510000000  0.5220710000000  0.5127800000000 1.0
C      1  0.4572300000000  0.5081390000000  0.4517590000000 1.0
C      1  0.4657220000000  0.4616380000000  0.5732520000000 1.0
C      1  0.5665510000000  0.5012240000000  0.4653580000000 1.0
C      1  0.5033740000000  0.5792440000000  0.4564160000000 1.0
C      1  0.5231040000000  0.4188090000000  0.5335960000000 1.0
END
