TITL C-2848505-4874-517 -0.000420925778971055 125000 -814.449892330435 0 0 153 (C1) n - 1
REM
REM in /home/bkarasulu/work/CARBON/AIRSS/Generating-Clusters/AIREBO/with-SteepDescent/Only-C1/SD-CG-opt/Try1-1.4A-POS3A/HFTN-CG
REM
REM
REM
REM
REM
REM ./C.cell (11c1c37f851c82e70ff6c80c92926a4b)
REM
REM compiler GCC version 9.2.1 20190827 (Red Hat 9.2.1-1)
REM options -cpp -mtune=generic -march=x86-64 -g -O0 -fpre-include=/usr/include/finclude/math-vector-fortran.h
REM seed 1101572146 -1782085996 -835810696 -291752662 1874701214 267439474 239918560 -1755383667 -1134361523 -498026218 -1600374333 1291880091 1234920975 399689059 -1629494794 -218262432 1734584192 -716547870 913534826 1789135745 742420101 -1255118193 1334094463 15700645 -1447653708 414298574 -1422493145 566193626 1918667028 -506636896 -2081512423 -356266475 -895046672
REM
CELL 1.54180   50.00000   50.00000   50.00000   90.00000   90.00000   90.00000
LATT -1
SFAC C  
C      1  0.5998040000000  0.5134500000000  0.4828530000000 1.0
C      1  0.5805710000000  0.5849860000000  0.4880310000000 1.0
C      1  0.5778270000000  0.5598350000000  0.4778840000000 1.0
C      1  0.5105150000000  0.6056080000000  0.4269920000000 1.0
C      1  0.4783330000000  0.4047080000000  0.5567550000000 1.0
C      1  0.5787090000000  0.4562020000000  0.4689620000000 1.0
C      1  0.4853020000000  0.4891200000000  0.5837340000000 1.0
C      1  0.5015610000000  0.4629230000000  0.4004750000000 1.0
C      1  0.4721470000000  0.4394680000000  0.5979670000000 1.0
C      1  0.4825180000000  0.4665420000000  0.5123880000000 1.0
C      1  0.6052340000000  0.5051120000000  0.5142390000000 1.0
C      1  0.4316940000000  0.4795220000000  0.4366820000000 1.0
C      1  0.5045330000000  0.5874990000000  0.5425020000000 1.0
C      1  0.5226850000000  0.5889920000000  0.4809300000000 1.0
C      1  0.5262570000000  0.4458300000000  0.4268530000000 1.0
C      1  0.5186950000000  0.4063520000000  0.5475290000000 1.0
C      1  0.4785910000000  0.4013020000000  0.5019770000000 1.0
C      1  0.5052080000000  0.5083210000000  0.4847490000000 1.0
C      1  0.4839690000000  0.4226800000000  0.5799940000000 1.0
C      1  0.5635730000000  0.4075970000000  0.5090890000000 1.0
C      1  0.5303900000000  0.4731050000000  0.4665940000000 1.0
C      1  0.4202010000000  0.4623990000000  0.4825690000000 1.0
C      1  0.5801590000000  0.5373000000000  0.4972240000000 1.0
C      1  0.4575310000000  0.4365160000000  0.4224190000000 1.0
C      1  0.5111600000000  0.4120150000000  0.4608140000000 1.0
C      1  0.4650990000000  0.4370780000000  0.4790710000000 1.0
C      1  0.4325810000000  0.4819030000000  0.5836300000000 1.0
C      1  0.5180850000000  0.4204380000000  0.4303070000000 1.0
C      1  0.5742330000000  0.4884850000000  0.5511420000000 1.0
C      1  0.5093110000000  0.5804050000000  0.4442320000000 1.0
C      1  0.5470290000000  0.5233700000000  0.4506850000000 1.0
C      1  0.4162060000000  0.5240880000000  0.5094530000000 1.0
C      1  0.5918030000000  0.4809310000000  0.5321880000000 1.0
C      1  0.4775140000000  0.4583770000000  0.4167480000000 1.0
C      1  0.5326780000000  0.5152260000000  0.5309720000000 1.0
C      1  0.4892040000000  0.5332080000000  0.5543990000000 1.0
C      1  0.5757760000000  0.5054510000000  0.4474950000000 1.0
C      1  0.4549380000000  0.5036620000000  0.4582240000000 1.0
C      1  0.5716190000000  0.5066860000000  0.5093030000000 1.0
C      1  0.4617960000000  0.5373580000000  0.5738780000000 1.0
C      1  0.4634700000000  0.4680880000000  0.5878460000000 1.0
C      1  0.4515190000000  0.5894960000000  0.4879020000000 1.0
C      1  0.4487460000000  0.4067930000000  0.4761580000000 1.0
C      1  0.5157390000000  0.4746710000000  0.5883350000000 1.0
C      1  0.5204770000000  0.5271880000000  0.4335480000000 1.0
C      1  0.4430750000000  0.4909400000000  0.5378260000000 1.0
C      1  0.4810490000000  0.4911540000000  0.4680850000000 1.0
C      1  0.4493800000000  0.5371150000000  0.4166650000000 1.0
C      1  0.4279410000000  0.4731500000000  0.5130620000000 1.0
C      1  0.5257210000000  0.5537770000000  0.5428420000000 1.0
C      1  0.4721960000000  0.4523190000000  0.5408190000000 1.0
C      1  0.5620190000000  0.5138190000000  0.5481050000000 1.0
C      1  0.5047380000000  0.4401280000000  0.4752310000000 1.0
C      1  0.5024630000000  0.5522520000000  0.3959780000000 1.0
C      1  0.4855120000000  0.5213240000000  0.5922580000000 1.0
C      1  0.5294590000000  0.5383380000000  0.5062390000000 1.0
C      1  0.4068090000000  0.5112920000000  0.5349800000000 1.0
C      1  0.5193990000000  0.4837380000000  0.4118210000000 1.0
C      1  0.4472040000000  0.4647470000000  0.5581580000000 1.0
C      1  0.5618240000000  0.5936620000000  0.5120340000000 1.0
C      1  0.4835080000000  0.4900450000000  0.4282850000000 1.0
C      1  0.5465310000000  0.4866760000000  0.5205430000000 1.0
C      1  0.5542270000000  0.4386650000000  0.5461220000000 1.0
C      1  0.5335670000000  0.4251420000000  0.5619550000000 1.0
C      1  0.4156030000000  0.5046800000000  0.4519100000000 1.0
C      1  0.4531290000000  0.4528170000000  0.5026290000000 1.0
C      1  0.3918930000000  0.5189320000000  0.4899240000000 1.0
C      1  0.5953800000000  0.4766360000000  0.4984860000000 1.0
C      1  0.5431090000000  0.4125800000000  0.4603670000000 1.0
C      1  0.5024080000000  0.5092000000000  0.5167080000000 1.0
C      1  0.5745540000000  0.5496170000000  0.4279320000000 1.0
C      1  0.4747920000000  0.5156400000000  0.4093920000000 1.0
C      1  0.5608430000000  0.4749410000000  0.5735870000000 1.0
C      1  0.4579700000000  0.5798950000000  0.5505480000000 1.0
C      1  0.5023560000000  0.5554320000000  0.4280770000000 1.0
C      1  0.5471090000000  0.4436670000000  0.4703130000000 1.0
C      1  0.4875060000000  0.5347870000000  0.4777020000000 1.0
C      1  0.5174930000000  0.4444210000000  0.5810290000000 1.0
C      1  0.4816000000000  0.4590410000000  0.4590100000000 1.0
C      1  0.5723210000000  0.4464370000000  0.4393950000000 1.0
C      1  0.4446710000000  0.5659390000000  0.5242820000000 1.0
C      1  0.4843130000000  0.5005030000000  0.5512300000000 1.0
C      1  0.5055190000000  0.6104170000000  0.4703540000000 1.0
C      1  0.5831920000000  0.6150170000000  0.5005290000000 1.0
C      1  0.4965310000000  0.5540220000000  0.5875680000000 1.0
C      1  0.5363060000000  0.5738810000000  0.4594200000000 1.0
C      1  0.5847920000000  0.5264920000000  0.4257700000000 1.0
C      1  0.5425800000000  0.5739460000000  0.5212760000000 1.0
C      1  0.5350240000000  0.5199760000000  0.4799150000000 1.0
C      1  0.5184190000000  0.5293410000000  0.5944080000000 1.0
C      1  0.4520910000000  0.5230930000000  0.5445700000000 1.0
C      1  0.5106470000000  0.5784800000000  0.5105100000000 1.0
C      1  0.4826700000000  0.5944610000000  0.4996460000000 1.0
C      1  0.5196040000000  0.5254420000000  0.5606510000000 1.0
C      1  0.4871280000000  0.5673410000000  0.5577220000000 1.0
C      1  0.5586850000000  0.5551950000000  0.4548900000000 1.0
C      1  0.5350430000000  0.4585060000000  0.5053610000000 1.0
C      1  0.5003630000000  0.4386550000000  0.5045990000000 1.0
C      1  0.4042300000000  0.4844930000000  0.5309300000000 1.0
C      1  0.4502080000000  0.4583960000000  0.4459400000000 1.0
C      1  0.4482550000000  0.4104150000000  0.5092560000000 1.0
C      1  0.4670130000000  0.4211910000000  0.5346300000000 1.0
C      1  0.4330250000000  0.5571670000000  0.4371360000000 1.0
C      1  0.4161960000000  0.4434090000000  0.4638790000000 1.0
C      1  0.5586510000000  0.5444080000000  0.5225870000000 1.0
C      1  0.4319650000000  0.4900920000000  0.4770560000000 1.0
C      1  0.4347610000000  0.5306310000000  0.4533110000000 1.0
C      1  0.5939030000000  0.4864860000000  0.4657260000000 1.0
C      1  0.5615960000000  0.5285560000000  0.5737030000000 1.0
C      1  0.5194230000000  0.5105380000000  0.4073400000000 1.0
C      1  0.4197610000000  0.5540090000000  0.5114470000000 1.0
C      1  0.5509910000000  0.4600370000000  0.4288570000000 1.0
C      1  0.4335320000000  0.5632050000000  0.4860120000000 1.0
C      1  0.4401100000000  0.4261760000000  0.4499500000000 1.0
C      1  0.5086250000000  0.4757090000000  0.4925980000000 1.0
C      1  0.5482970000000  0.4886670000000  0.4422310000000 1.0
C      1  0.4317420000000  0.4344750000000  0.5216860000000 1.0
C      1  0.4982830000000  0.5245580000000  0.3928220000000 1.0
C      1  0.5148980000000  0.4121400000000  0.5150510000000 1.0
C      1  0.4563610000000  0.5971050000000  0.5210220000000 1.0
C      1  0.4811710000000  0.4088980000000  0.4688690000000 1.0
C      1  0.4706880000000  0.4974670000000  0.5201980000000 1.0
C      1  0.5444210000000  0.4881300000000  0.5928770000000 1.0
C      1  0.4250050000000  0.4443880000000  0.5463730000000 1.0
C      1  0.4468370000000  0.5052100000000  0.4252300000000 1.0
C      1  0.5161010000000  0.4911610000000  0.5588700000000 1.0
C      1  0.5251120000000  0.5628330000000  0.5736990000000 1.0
C      1  0.4970950000000  0.4399110000000  0.5554640000000 1.0
C      1  0.4854350000000  0.5831000000000  0.4677130000000 1.0
C      1  0.4645520000000  0.5628730000000  0.4608690000000 1.0
C      1  0.4221390000000  0.5192690000000  0.5565240000000 1.0
C      1  0.3895300000000  0.5118840000000  0.4660400000000 1.0
C      1  0.4935090000000  0.3917280000000  0.5295670000000 1.0
C      1  0.5675070000000  0.4332300000000  0.5225980000000 1.0
C      1  0.5455540000000  0.5162100000000  0.5931150000000 1.0
C      1  0.5687510000000  0.4560920000000  0.5014910000000 1.0
C      1  0.4516790000000  0.5642410000000  0.5758160000000 1.0
C      1  0.5374520000000  0.4255340000000  0.4974190000000 1.0
C      1  0.5559600000000  0.5524760000000  0.5556980000000 1.0
C      1  0.4966220000000  0.5478130000000  0.5061500000000 1.0
C      1  0.4737050000000  0.5445960000000  0.4372870000000 1.0
C      1  0.5122830000000  0.6105830000000  0.5521310000000 1.0
C      1  0.4366020000000  0.5819950000000  0.4578410000000 1.0
C      1  0.4202730000000  0.5052400000000  0.5807160000000 1.0
C      1  0.5394510000000  0.4690350000000  0.5478450000000 1.0
C      1  0.4916280000000  0.5165270000000  0.4480550000000 1.0
C      1  0.4460350000000  0.5099190000000  0.4997310000000 1.0
C      1  0.5081500000000  0.4703280000000  0.4409870000000 1.0
C      1  0.5486570000000  0.4930660000000  0.4872120000000 1.0
C      1  0.4683210000000  0.5458260000000  0.5250910000000 1.0
C      1  0.4543160000000  0.5368830000000  0.4804180000000 1.0
C      1  0.5159250000000  0.4496670000000  0.5327550000000 1.0
C      1  0.5604580000000  0.3940230000000  0.4557440000000 1.0
END
