TITL C-2847958-8115-381 -0.00114684703677793 125000 -402.250996091989 0 0 74 (C1) n - 1
REM
REM in /home/bkarasulu/work/CARBON/AIRSS/Generating-Clusters/AIREBO/with-SteepDescent/Only-C1/SD-CG-opt/Try1-1.4A-POS3A/HFTN-CG
REM
REM
REM
REM
REM
REM ./C.cell (11c1c37f851c82e70ff6c80c92926a4b)
REM
REM compiler GCC version 9.2.1 20190827 (Red Hat 9.2.1-1)
REM options -cpp -mtune=generic -march=x86-64 -g -O0 -fpre-include=/usr/include/finclude/math-vector-fortran.h
REM seed 1328100769 665240850 163643206 1582297797 1712007785 -706406625 989231181 1076081947 -807512539 920379167 -1378689480 1459879894 1827053444 127666014 -515415089 -1909062189 -1368801451 109067700 -1015535055 630122943 1102360351 -824787267 567283621 -1324765055 -1475654949 640688518 385259071 1113368877 1593599735 552428305 -1587789785 628863473 2097054230
REM
CELL 1.54180   50.00000   50.00000   50.00000   90.00000   90.00000   90.00000
LATT -1
SFAC C  
C      1  0.4923450000000  0.4623340000000  0.4332130000000 1.0
C      1  0.5186220000000  0.4208870000000  0.4899780000000 1.0
C      1  0.5115570000000  0.5712820000000  0.5137430000000 1.0
C      1  0.4928940000000  0.5577870000000  0.5288260000000 1.0
C      1  0.4676160000000  0.4658970000000  0.5043480000000 1.0
C      1  0.4558010000000  0.4281470000000  0.5097900000000 1.0
C      1  0.5251980000000  0.4114010000000  0.5204200000000 1.0
C      1  0.4282350000000  0.5030180000000  0.4848120000000 1.0
C      1  0.4855150000000  0.4970960000000  0.4688460000000 1.0
C      1  0.5373020000000  0.5286720000000  0.5162430000000 1.0
C      1  0.5224910000000  0.4704200000000  0.4203130000000 1.0
C      1  0.5788100000000  0.4893190000000  0.5321250000000 1.0
C      1  0.5192210000000  0.5143630000000  0.4927350000000 1.0
C      1  0.5195260000000  0.4640960000000  0.4535880000000 1.0
C      1  0.5002390000000  0.5495290000000  0.4647750000000 1.0
C      1  0.5247860000000  0.4904370000000  0.4691670000000 1.0
C      1  0.5309070000000  0.5632080000000  0.4677810000000 1.0
C      1  0.5512230000000  0.5065370000000  0.4438660000000 1.0
C      1  0.5580790000000  0.5306240000000  0.5502820000000 1.0
C      1  0.4318670000000  0.5027910000000  0.5389360000000 1.0
C      1  0.5121350000000  0.4663820000000  0.5640710000000 1.0
C      1  0.5194930000000  0.4546800000000  0.4862600000000 1.0
C      1  0.5385740000000  0.4896160000000  0.5057410000000 1.0
C      1  0.4970880000000  0.4957610000000  0.4376280000000 1.0
C      1  0.4896930000000  0.5261290000000  0.4843460000000 1.0
C      1  0.4977080000000  0.5542180000000  0.5554540000000 1.0
C      1  0.4787210000000  0.5059010000000  0.5242860000000 1.0
C      1  0.5776600000000  0.5155470000000  0.4588520000000 1.0
C      1  0.5414900000000  0.4603960000000  0.5497580000000 1.0
C      1  0.5020490000000  0.5234920000000  0.5650100000000 1.0
C      1  0.4546230000000  0.5231770000000  0.4861630000000 1.0
C      1  0.5631970000000  0.4675150000000  0.5278330000000 1.0
C      1  0.5690910000000  0.5296980000000  0.5048790000000 1.0
C      1  0.5295680000000  0.4993350000000  0.4305250000000 1.0
C      1  0.5758320000000  0.5176280000000  0.5316150000000 1.0
C      1  0.4467020000000  0.5427830000000  0.5113900000000 1.0
C      1  0.5725370000000  0.5376920000000  0.4783430000000 1.0
C      1  0.4808700000000  0.5852060000000  0.4650910000000 1.0
C      1  0.4661340000000  0.4470010000000  0.4761210000000 1.0
C      1  0.5059170000000  0.5766040000000  0.4846550000000 1.0
C      1  0.4588690000000  0.4923870000000  0.4482460000000 1.0
C      1  0.5046130000000  0.4518610000000  0.5167030000000 1.0
C      1  0.4694700000000  0.4477760000000  0.4431110000000 1.0
C      1  0.5294500000000  0.5165480000000  0.5475420000000 1.0
C      1  0.4422240000000  0.4864600000000  0.5609870000000 1.0
C      1  0.4709280000000  0.4793370000000  0.5442030000000 1.0
C      1  0.5513460000000  0.4597260000000  0.4976050000000 1.0
C      1  0.4474520000000  0.5268660000000  0.5384950000000 1.0
C      1  0.5542370000000  0.5021440000000  0.4782720000000 1.0
C      1  0.4923390000000  0.4748780000000  0.4864290000000 1.0
C      1  0.4682910000000  0.4479510000000  0.5329930000000 1.0
C      1  0.5502420000000  0.4299030000000  0.4813120000000 1.0
C      1  0.5006610000000  0.4801440000000  0.5277270000000 1.0
C      1  0.4744190000000  0.5214880000000  0.4400380000000 1.0
C      1  0.4917830000000  0.4455250000000  0.5539220000000 1.0
C      1  0.4367130000000  0.4704050000000  0.4894440000000 1.0
C      1  0.5293930000000  0.4881990000000  0.5353760000000 1.0
C      1  0.4669470000000  0.5654140000000  0.4495270000000 1.0
C      1  0.4322650000000  0.4381740000000  0.4980540000000 1.0
C      1  0.4448600000000  0.4652260000000  0.4568370000000 1.0
C      1  0.4367210000000  0.5598700000000  0.4859720000000 1.0
C      1  0.4867800000000  0.4311750000000  0.4961040000000 1.0
C      1  0.4242810000000  0.4894980000000  0.5157630000000 1.0
C      1  0.5050110000000  0.4910260000000  0.5747040000000 1.0
C      1  0.4787170000000  0.5355080000000  0.5151400000000 1.0
C      1  0.5541830000000  0.5584950000000  0.5439120000000 1.0
C      1  0.5566530000000  0.5586470000000  0.4677620000000 1.0
C      1  0.4690600000000  0.5265850000000  0.5570650000000 1.0
C      1  0.4444420000000  0.5519420000000  0.4605760000000 1.0
C      1  0.4387950000000  0.5185940000000  0.4564240000000 1.0
C      1  0.4866980000000  0.5467730000000  0.4348870000000 1.0
C      1  0.4730910000000  0.4973940000000  0.5729400000000 1.0
C      1  0.5210250000000  0.4358560000000  0.5400940000000 1.0
C      1  0.5367250000000  0.5616180000000  0.5200280000000 1.0
END
