TITL C-2848505-4874-134 -0.00120389673751393 125000 -947.685802824197 0 0 177 (C1) n - 1
REM
REM in /home/bkarasulu/work/CARBON/AIRSS/Generating-Clusters/AIREBO/with-SteepDescent/Only-C1/SD-CG-opt/Try1-1.4A-POS3A/HFTN-CG
REM
REM
REM
REM
REM
REM ./C.cell (11c1c37f851c82e70ff6c80c92926a4b)
REM
REM compiler GCC version 9.2.1 20190827 (Red Hat 9.2.1-1)
REM options -cpp -mtune=generic -march=x86-64 -g -O0 -fpre-include=/usr/include/finclude/math-vector-fortran.h
REM seed -2025161669 -657220841 954209795 -75847407 1348089554 -1010419008 -644807366 1875245807 -160748970 454344132 -1180866244 137843340 314082731 1571404141 -561255327 1880574657 -16254852 926708915 -497491222 -527259920 620947021 1716180144 -2116349962 1949363066 -1339579491 1576863965 -1293449811 1392525064 2107016551 -801954971 -684193536 1792755201 -85465447
REM
CELL 1.54180   50.00000   50.00000   50.00000   90.00000   90.00000   90.00000
LATT -1
SFAC C  
C      1  0.4774530000000  0.4433830000000  0.4435440000000 1.0
C      1  0.5868440000000  0.4678000000000  0.5028570000000 1.0
C      1  0.4679510000000  0.5427540000000  0.3988410000000 1.0
C      1  0.5939730000000  0.4348080000000  0.4987160000000 1.0
C      1  0.5012970000000  0.5330540000000  0.6129020000000 1.0
C      1  0.4869740000000  0.5148680000000  0.4765430000000 1.0
C      1  0.4738210000000  0.4939550000000  0.4452030000000 1.0
C      1  0.5659000000000  0.4730470000000  0.5291450000000 1.0
C      1  0.5110080000000  0.5775410000000  0.5895170000000 1.0
C      1  0.6045280000000  0.4552820000000  0.5399670000000 1.0
C      1  0.4171270000000  0.5983790000000  0.4679640000000 1.0
C      1  0.4576950000000  0.4084220000000  0.4637970000000 1.0
C      1  0.4949330000000  0.4058090000000  0.5518740000000 1.0
C      1  0.6019090000000  0.4806860000000  0.4752250000000 1.0
C      1  0.5983540000000  0.5220440000000  0.5362090000000 1.0
C      1  0.4907790000000  0.5054980000000  0.5482860000000 1.0
C      1  0.4370360000000  0.4638250000000  0.4860550000000 1.0
C      1  0.5206780000000  0.4689270000000  0.4178090000000 1.0
C      1  0.5441880000000  0.5465510000000  0.5668630000000 1.0
C      1  0.5027210000000  0.4800460000000  0.4977690000000 1.0
C      1  0.5560010000000  0.5003780000000  0.5872360000000 1.0
C      1  0.5244280000000  0.4157510000000  0.5501040000000 1.0
C      1  0.4851740000000  0.5558840000000  0.5516460000000 1.0
C      1  0.4718250000000  0.4737520000000  0.5105830000000 1.0
C      1  0.5690910000000  0.5537330000000  0.5364160000000 1.0
C      1  0.4454310000000  0.5516000000000  0.4772030000000 1.0
C      1  0.4516070000000  0.5127330000000  0.3971990000000 1.0
C      1  0.5593600000000  0.5348940000000  0.4479760000000 1.0
C      1  0.5381360000000  0.4597930000000  0.6068380000000 1.0
C      1  0.5187430000000  0.5418560000000  0.5113880000000 1.0
C      1  0.5174260000000  0.5466860000000  0.5458820000000 1.0
C      1  0.5447240000000  0.5439540000000  0.4125050000000 1.0
C      1  0.5116080000000  0.4029260000000  0.5060400000000 1.0
C      1  0.5556870000000  0.4945820000000  0.5537360000000 1.0
C      1  0.5869420000000  0.5216890000000  0.4483680000000 1.0
C      1  0.6129100000000  0.4775580000000  0.5223920000000 1.0
C      1  0.6015640000000  0.5547320000000  0.5464500000000 1.0
C      1  0.4358750000000  0.5306610000000  0.4963980000000 1.0
C      1  0.4202860000000  0.4281800000000  0.4921240000000 1.0
C      1  0.5638980000000  0.4138850000000  0.4833700000000 1.0
C      1  0.5703030000000  0.5046700000000  0.4904240000000 1.0
C      1  0.5582580000000  0.4671350000000  0.4840550000000 1.0
C      1  0.5313850000000  0.5892240000000  0.4370370000000 1.0
C      1  0.3942380000000  0.4684310000000  0.4953400000000 1.0
C      1  0.4085500000000  0.4937160000000  0.4217340000000 1.0
C      1  0.4983110000000  0.5017180000000  0.5203920000000 1.0
C      1  0.4563120000000  0.4426440000000  0.4062350000000 1.0
C      1  0.5357060000000  0.4850990000000  0.5021270000000 1.0
C      1  0.5100110000000  0.4309400000000  0.4867950000000 1.0
C      1  0.5210260000000  0.4443040000000  0.5878480000000 1.0
C      1  0.5618080000000  0.5346590000000  0.4987040000000 1.0
C      1  0.4683890000000  0.5267570000000  0.5498130000000 1.0
C      1  0.5046270000000  0.4169830000000  0.4562440000000 1.0
C      1  0.4999180000000  0.5691760000000  0.5039220000000 1.0
C      1  0.4905570000000  0.5164590000000  0.4305900000000 1.0
C      1  0.4421850000000  0.5856240000000  0.5538620000000 1.0
C      1  0.4513140000000  0.5659110000000  0.4068320000000 1.0
C      1  0.4924900000000  0.6162080000000  0.5151770000000 1.0
C      1  0.4094000000000  0.4485360000000  0.5104160000000 1.0
C      1  0.4436880000000  0.4153540000000  0.5332930000000 1.0
C      1  0.4342330000000  0.4996930000000  0.5844330000000 1.0
C      1  0.4346290000000  0.4693560000000  0.5682310000000 1.0
C      1  0.5772440000000  0.4676220000000  0.4558060000000 1.0
C      1  0.3895440000000  0.4924890000000  0.5082500000000 1.0
C      1  0.4397400000000  0.5812150000000  0.4510650000000 1.0
C      1  0.4447790000000  0.4162100000000  0.4134060000000 1.0
C      1  0.4911460000000  0.4388950000000  0.5139500000000 1.0
C      1  0.4753990000000  0.5438710000000  0.4631230000000 1.0
C      1  0.5026560000000  0.4776270000000  0.3936030000000 1.0
C      1  0.5383380000000  0.4357640000000  0.5049790000000 1.0
C      1  0.4711930000000  0.4889730000000  0.3997170000000 1.0
C      1  0.5008700000000  0.4862830000000  0.4643860000000 1.0
C      1  0.4227190000000  0.4301530000000  0.5442190000000 1.0
C      1  0.5585200000000  0.5241350000000  0.5371110000000 1.0
C      1  0.4464110000000  0.5837180000000  0.5141590000000 1.0
C      1  0.4340420000000  0.5340750000000  0.5267540000000 1.0
C      1  0.5759000000000  0.5019170000000  0.5204910000000 1.0
C      1  0.4904410000000  0.5590470000000  0.5845470000000 1.0
C      1  0.5567750000000  0.4363060000000  0.4697900000000 1.0
C      1  0.4098040000000  0.4691980000000  0.4664190000000 1.0
C      1  0.4380600000000  0.5037350000000  0.4852510000000 1.0
C      1  0.5188940000000  0.4570720000000  0.4669010000000 1.0
C      1  0.4940240000000  0.5694000000000  0.4745170000000 1.0
C      1  0.4326260000000  0.4872370000000  0.4093480000000 1.0
C      1  0.5383310000000  0.5140730000000  0.5121640000000 1.0
C      1  0.4671220000000  0.5383400000000  0.5201010000000 1.0
C      1  0.4532920000000  0.4709110000000  0.4594830000000 1.0
C      1  0.5385990000000  0.5569990000000  0.4878170000000 1.0
C      1  0.4181200000000  0.4374090000000  0.4631960000000 1.0
C      1  0.6092860000000  0.5019430000000  0.4988970000000 1.0
C      1  0.4268060000000  0.5651420000000  0.5348520000000 1.0
C      1  0.4884050000000  0.3976750000000  0.5238200000000 1.0
C      1  0.5746710000000  0.4870620000000  0.6081040000000 1.0
C      1  0.4817830000000  0.4446730000000  0.4734620000000 1.0
C      1  0.5832150000000  0.5774180000000  0.4870430000000 1.0
C      1  0.5144740000000  0.4443190000000  0.5358040000000 1.0
C      1  0.4556560000000  0.5904880000000  0.4251460000000 1.0
C      1  0.4542300000000  0.4489220000000  0.5801920000000 1.0
C      1  0.5461610000000  0.5743010000000  0.5485230000000 1.0
C      1  0.5558300000000  0.6063430000000  0.4838400000000 1.0
C      1  0.5164630000000  0.5189580000000  0.5963500000000 1.0
C      1  0.4493040000000  0.4147420000000  0.4937040000000 1.0
C      1  0.4440400000000  0.5089290000000  0.4521770000000 1.0
C      1  0.4664450000000  0.4904380000000  0.4840650000000 1.0
C      1  0.5625730000000  0.4641460000000  0.6178310000000 1.0
C      1  0.5280930000000  0.5430050000000  0.4586010000000 1.0
C      1  0.4948490000000  0.5478520000000  0.4063650000000 1.0
C      1  0.4142160000000  0.5076380000000  0.5261000000000 1.0
C      1  0.3944070000000  0.6096160000000  0.4669120000000 1.0
C      1  0.4748560000000  0.5399580000000  0.6017360000000 1.0
C      1  0.4425040000000  0.4630370000000  0.4281610000000 1.0
C      1  0.4245010000000  0.5360100000000  0.4586140000000 1.0
C      1  0.5358890000000  0.4017920000000  0.5250010000000 1.0
C      1  0.4180020000000  0.5213140000000  0.5633310000000 1.0
C      1  0.4566540000000  0.4797770000000  0.5367230000000 1.0
C      1  0.5369010000000  0.4373860000000  0.4458050000000 1.0
C      1  0.4814260000000  0.4694700000000  0.4256320000000 1.0
C      1  0.4143800000000  0.4926680000000  0.4486250000000 1.0
C      1  0.5953370000000  0.5325400000000  0.5040100000000 1.0
C      1  0.5239200000000  0.4857050000000  0.5586580000000 1.0
C      1  0.5520070000000  0.4657350000000  0.4127800000000 1.0
C      1  0.5630500000000  0.5290840000000  0.5765180000000 1.0
C      1  0.5341510000000  0.4205460000000  0.5776050000000 1.0
C      1  0.4659500000000  0.5823800000000  0.5608560000000 1.0
C      1  0.4272110000000  0.4627590000000  0.5356790000000 1.0
C      1  0.4849330000000  0.4467370000000  0.5961760000000 1.0
C      1  0.4595710000000  0.5176770000000  0.5954870000000 1.0
C      1  0.4941970000000  0.4752880000000  0.6006410000000 1.0
C      1  0.5378260000000  0.4605620000000  0.5226500000000 1.0
C      1  0.4110700000000  0.5416320000000  0.4322780000000 1.0
C      1  0.4468380000000  0.5061930000000  0.5535320000000 1.0
C      1  0.5888400000000  0.5642640000000  0.5107430000000 1.0
C      1  0.5695500000000  0.4543430000000  0.4304190000000 1.0
C      1  0.5643510000000  0.5685370000000  0.4688450000000 1.0
C      1  0.4743990000000  0.5685850000000  0.5217230000000 1.0
C      1  0.4753810000000  0.4570860000000  0.3894880000000 1.0
C      1  0.5171490000000  0.6037350000000  0.5130730000000 1.0
C      1  0.4806280000000  0.4337080000000  0.5650500000000 1.0
C      1  0.4541880000000  0.5531100000000  0.4382060000000 1.0
C      1  0.5021670000000  0.5816130000000  0.4442130000000 1.0
C      1  0.5248990000000  0.4868360000000  0.5926260000000 1.0
C      1  0.5523880000000  0.5663410000000  0.4370890000000 1.0
C      1  0.5687600000000  0.4987670000000  0.4621680000000 1.0
C      1  0.5480620000000  0.4033480000000  0.5918220000000 1.0
C      1  0.5351490000000  0.5837010000000  0.5782070000000 1.0
C      1  0.5196840000000  0.5769450000000  0.5304840000000 1.0
C      1  0.5138270000000  0.5179420000000  0.5637140000000 1.0
C      1  0.4284130000000  0.4837300000000  0.5089320000000 1.0
C      1  0.4731290000000  0.4925900000000  0.5902540000000 1.0
C      1  0.6060050000000  0.4943610000000  0.4485280000000 1.0
C      1  0.5628910000000  0.4156150000000  0.5151140000000 1.0
C      1  0.4107080000000  0.4892960000000  0.5545180000000 1.0
C      1  0.6083320000000  0.5255180000000  0.4733790000000 1.0
C      1  0.5657500000000  0.4251890000000  0.4325620000000 1.0
C      1  0.5048420000000  0.5091980000000  0.4060410000000 1.0
C      1  0.5080480000000  0.4407650000000  0.4321150000000 1.0
C      1  0.4079380000000  0.5458360000000  0.5544580000000 1.0
C      1  0.5861710000000  0.4365530000000  0.5283670000000 1.0
C      1  0.5032620000000  0.4590130000000  0.5628520000000 1.0
C      1  0.5877980000000  0.5317120000000  0.5657690000000 1.0
C      1  0.4782540000000  0.4809560000000  0.5615260000000 1.0
C      1  0.4671490000000  0.6078740000000  0.5203090000000 1.0
C      1  0.4809970000000  0.5986480000000  0.4297680000000 1.0
C      1  0.4611280000000  0.3960930000000  0.5164650000000 1.0
C      1  0.5000120000000  0.5477420000000  0.4399830000000 1.0
C      1  0.4827960000000  0.4004860000000  0.4564190000000 1.0
C      1  0.5217970000000  0.4930180000000  0.4384390000000 1.0
C      1  0.5402890000000  0.4821660000000  0.4595550000000 1.0
C      1  0.5375780000000  0.5898750000000  0.4966530000000 1.0
C      1  0.5204740000000  0.5339010000000  0.3973970000000 1.0
C      1  0.4452410000000  0.4324880000000  0.4432590000000 1.0
C      1  0.4906940000000  0.5261430000000  0.5048660000000 1.0
C      1  0.4404720000000  0.5271450000000  0.4232270000000 1.0
C      1  0.4614690000000  0.4444750000000  0.4983040000000 1.0
C      1  0.5316570000000  0.5204950000000  0.4333690000000 1.0
C      1  0.4386450000000  0.5805730000000  0.4854190000000 1.0
C      1  0.4687480000000  0.4306510000000  0.5350030000000 1.0
END
