TITL C-2847956-8218-122 0.000983195854793377 125000 -791.673256203349 0 0 145 (C1) n - 1
REM
REM in /home/bkarasulu/work/CARBON/AIRSS/Generating-Clusters/AIREBO/with-SteepDescent/Only-C1/SD-CG-opt/Try1-1.4A-POS3A/HFTN-CG
REM
REM
REM
REM
REM
REM ./C.cell (11c1c37f851c82e70ff6c80c92926a4b)
REM
REM compiler GCC version 9.2.1 20190827 (Red Hat 9.2.1-1)
REM options -cpp -mtune=generic -march=x86-64 -g -O0 -fpre-include=/usr/include/finclude/math-vector-fortran.h
REM seed 2065659392 1753689078 1745562514 47274438 -1723587535 -805780711 753685994 -1163197911 803269509 296303761 460018313 272008012 1715111341 1510675076 606289256 1425427234 -985682568 240114666 -1006872549 -811045597 602520297 -785726439 -146861054 1554758138 -1814539608 -125127343 1697603965 948797128 645945128 -1548838653 2129588680 -1118651719 290618847
REM
CELL 1.54180   50.00000   50.00000   50.00000   90.00000   90.00000   90.00000
LATT -1
SFAC C  
C      1  0.4829260000000  0.4567240000000  0.5860050000000 1.0
C      1  0.4186020000000  0.4527040000000  0.5269990000000 1.0
C      1  0.6066000000000  0.4714250000000  0.4534950000000 1.0
C      1  0.5089170000000  0.5696950000000  0.5256770000000 1.0
C      1  0.5814780000000  0.4871610000000  0.4592720000000 1.0
C      1  0.5105620000000  0.4668480000000  0.5437970000000 1.0
C      1  0.5276380000000  0.5296850000000  0.5974770000000 1.0
C      1  0.5018630000000  0.5705300000000  0.4761350000000 1.0
C      1  0.4574190000000  0.4376040000000  0.4781120000000 1.0
C      1  0.5325700000000  0.4266530000000  0.5042490000000 1.0
C      1  0.5336490000000  0.4876370000000  0.5747560000000 1.0
C      1  0.4766330000000  0.4646330000000  0.5439580000000 1.0
C      1  0.4997050000000  0.5357880000000  0.6076970000000 1.0
C      1  0.5947960000000  0.4994650000000  0.4948840000000 1.0
C      1  0.5390090000000  0.4493610000000  0.5846430000000 1.0
C      1  0.5195370000000  0.5589620000000  0.4270160000000 1.0
C      1  0.5090760000000  0.4503600000000  0.4218230000000 1.0
C      1  0.5060470000000  0.5312860000000  0.5150520000000 1.0
C      1  0.5033320000000  0.3999240000000  0.4703060000000 1.0
C      1  0.4323520000000  0.4086490000000  0.4532570000000 1.0
C      1  0.4621990000000  0.5159430000000  0.5543960000000 1.0
C      1  0.5552990000000  0.5022730000000  0.4043960000000 1.0
C      1  0.5692940000000  0.5324790000000  0.5716130000000 1.0
C      1  0.4320010000000  0.5023190000000  0.5766270000000 1.0
C      1  0.4667160000000  0.5275530000000  0.4586600000000 1.0
C      1  0.5239320000000  0.4926510000000  0.3960240000000 1.0
C      1  0.4773110000000  0.4448050000000  0.4445430000000 1.0
C      1  0.4302430000000  0.4561430000000  0.4332180000000 1.0
C      1  0.5353970000000  0.5885190000000  0.5156030000000 1.0
C      1  0.4481840000000  0.4216200000000  0.5606310000000 1.0
C      1  0.4397110000000  0.4454520000000  0.5044850000000 1.0
C      1  0.5452200000000  0.5458540000000  0.4398710000000 1.0
C      1  0.4115270000000  0.5359170000000  0.5369180000000 1.0
C      1  0.4615690000000  0.5832370000000  0.4792780000000 1.0
C      1  0.5073480000000  0.4758260000000  0.4422390000000 1.0
C      1  0.5515400000000  0.5797150000000  0.4893260000000 1.0
C      1  0.4993320000000  0.5709250000000  0.5669760000000 1.0
C      1  0.4450400000000  0.5162530000000  0.4121590000000 1.0
C      1  0.5490800000000  0.5105730000000  0.4582530000000 1.0
C      1  0.6272860000000  0.4967160000000  0.4961710000000 1.0
C      1  0.5195600000000  0.5163510000000  0.4660390000000 1.0
C      1  0.5789770000000  0.4190040000000  0.5303450000000 1.0
C      1  0.5284640000000  0.4580720000000  0.5166100000000 1.0
C      1  0.4170710000000  0.5257020000000  0.4862350000000 1.0
C      1  0.4769570000000  0.5431290000000  0.5293060000000 1.0
C      1  0.4828230000000  0.4957450000000  0.5091000000000 1.0
C      1  0.4661110000000  0.5589610000000  0.4339590000000 1.0
C      1  0.6096850000000  0.4881620000000  0.5236810000000 1.0
C      1  0.4957470000000  0.4831940000000  0.3933280000000 1.0
C      1  0.4838420000000  0.4367390000000  0.5299210000000 1.0
C      1  0.5574620000000  0.4873440000000  0.4348750000000 1.0
C      1  0.5524320000000  0.4168200000000  0.5267750000000 1.0
C      1  0.4738710000000  0.6126640000000  0.4676180000000 1.0
C      1  0.5260980000000  0.5104990000000  0.4970960000000 1.0
C      1  0.4679210000000  0.6000490000000  0.5158450000000 1.0
C      1  0.4128120000000  0.5707810000000  0.5018410000000 1.0
C      1  0.5295030000000  0.5695770000000  0.5658920000000 1.0
C      1  0.4765630000000  0.4902760000000  0.4427860000000 1.0
C      1  0.5558940000000  0.4558230000000  0.5365980000000 1.0
C      1  0.5307170000000  0.4392590000000  0.4751780000000 1.0
C      1  0.4269610000000  0.5301660000000  0.4600220000000 1.0
C      1  0.5351240000000  0.5892430000000  0.4643250000000 1.0
C      1  0.4554140000000  0.4062060000000  0.4707100000000 1.0
C      1  0.4231070000000  0.4358830000000  0.4516560000000 1.0
C      1  0.5579170000000  0.4694560000000  0.5676820000000 1.0
C      1  0.4765910000000  0.5845270000000  0.4487220000000 1.0
C      1  0.4799180000000  0.5244180000000  0.4943930000000 1.0
C      1  0.5492850000000  0.5437740000000  0.5326630000000 1.0
C      1  0.4368930000000  0.4769690000000  0.4803020000000 1.0
C      1  0.4715770000000  0.4048700000000  0.4960550000000 1.0
C      1  0.4751450000000  0.5533450000000  0.4783340000000 1.0
C      1  0.4415020000000  0.5434240000000  0.4322940000000 1.0
C      1  0.4416140000000  0.4829040000000  0.4063710000000 1.0
C      1  0.5881120000000  0.4452060000000  0.5389520000000 1.0
C      1  0.4810790000000  0.4147230000000  0.5557000000000 1.0
C      1  0.4592490000000  0.4222160000000  0.5161810000000 1.0
C      1  0.4601020000000  0.4572780000000  0.4190240000000 1.0
C      1  0.4853970000000  0.5530170000000  0.5917710000000 1.0
C      1  0.4850590000000  0.5832970000000  0.5399740000000 1.0
C      1  0.4398560000000  0.5879250000000  0.5006220000000 1.0
C      1  0.5782490000000  0.5357360000000  0.5206160000000 1.0
C      1  0.4117340000000  0.5430570000000  0.5081130000000 1.0
C      1  0.4581660000000  0.4825820000000  0.5865210000000 1.0
C      1  0.5002140000000  0.5037000000000  0.6097270000000 1.0
C      1  0.4956830000000  0.5171370000000  0.4509930000000 1.0
C      1  0.5103430000000  0.5804440000000  0.4471450000000 1.0
C      1  0.4118270000000  0.4959220000000  0.4911230000000 1.0
C      1  0.4449130000000  0.5056570000000  0.4444670000000 1.0
C      1  0.5198150000000  0.5568170000000  0.4973070000000 1.0
C      1  0.4908470000000  0.5422970000000  0.4305990000000 1.0
C      1  0.4453270000000  0.4952700000000  0.5332800000000 1.0
C      1  0.5453570000000  0.5723320000000  0.5405300000000 1.0
C      1  0.5510400000000  0.5271750000000  0.5029700000000 1.0
C      1  0.4886650000000  0.4568150000000  0.4025680000000 1.0
C      1  0.5048060000000  0.4081680000000  0.5024670000000 1.0
C      1  0.4470920000000  0.4710310000000  0.5570780000000 1.0
C      1  0.4756010000000  0.5019850000000  0.4108600000000 1.0
C      1  0.5294680000000  0.4997110000000  0.5992530000000 1.0
C      1  0.4966390000000  0.5226460000000  0.3965350000000 1.0
C      1  0.4156000000000  0.4781780000000  0.5677700000000 1.0
C      1  0.4540940000000  0.5224970000000  0.5148930000000 1.0
C      1  0.4291510000000  0.5238370000000  0.5559350000000 1.0
C      1  0.5117450000000  0.4484490000000  0.5715870000000 1.0
C      1  0.4846050000000  0.4965830000000  0.5404220000000 1.0
C      1  0.4828700000000  0.4831730000000  0.6066190000000 1.0
C      1  0.4361110000000  0.5821920000000  0.5321020000000 1.0
C      1  0.5325730000000  0.4339950000000  0.5483110000000 1.0
C      1  0.4159830000000  0.4828930000000  0.5213560000000 1.0
C      1  0.5320780000000  0.4401860000000  0.4421970000000 1.0
C      1  0.4856300000000  0.6104130000000  0.4960700000000 1.0
C      1  0.4901630000000  0.4745990000000  0.4881600000000 1.0
C      1  0.4555010000000  0.4754080000000  0.5076180000000 1.0
C      1  0.5387780000000  0.5398570000000  0.5712660000000 1.0
C      1  0.5765580000000  0.5562300000000  0.4935240000000 1.0
C      1  0.5165560000000  0.4684350000000  0.4715260000000 1.0
C      1  0.5035260000000  0.4237260000000  0.4505660000000 1.0
C      1  0.5781290000000  0.5238340000000  0.4826860000000 1.0
C      1  0.4701180000000  0.4293070000000  0.5832950000000 1.0
C      1  0.5677940000000  0.4833220000000  0.5204160000000 1.0
C      1  0.4574660000000  0.5684230000000  0.5409920000000 1.0
C      1  0.4189540000000  0.4482700000000  0.4770390000000 1.0
C      1  0.5829530000000  0.5112560000000  0.5626500000000 1.0
C      1  0.4801010000000  0.5429200000000  0.5611760000000 1.0
C      1  0.5326830000000  0.5442880000000  0.4719720000000 1.0
C      1  0.5850380000000  0.4828980000000  0.5665760000000 1.0
C      1  0.5251530000000  0.4966280000000  0.4295520000000 1.0
C      1  0.5803600000000  0.5197810000000  0.4497460000000 1.0
C      1  0.5617370000000  0.5593880000000  0.4640500000000 1.0
C      1  0.5182280000000  0.5262470000000  0.4178430000000 1.0
C      1  0.5854820000000  0.5090120000000  0.5324810000000 1.0
C      1  0.4888310000000  0.4364440000000  0.4770280000000 1.0
C      1  0.5360090000000  0.4812860000000  0.4945760000000 1.0
C      1  0.6008980000000  0.4694280000000  0.5468450000000 1.0
C      1  0.4989820000000  0.4481390000000  0.5036120000000 1.0
C      1  0.5615170000000  0.5254260000000  0.4233850000000 1.0
C      1  0.5572740000000  0.4545500000000  0.4317230000000 1.0
C      1  0.5095060000000  0.5952770000000  0.4954050000000 1.0
C      1  0.5240010000000  0.5263910000000  0.5436290000000 1.0
C      1  0.4335020000000  0.4422860000000  0.5504400000000 1.0
C      1  0.5673220000000  0.4817100000000  0.4874310000000 1.0
C      1  0.4230940000000  0.4816800000000  0.4430960000000 1.0
C      1  0.4026520000000  0.4846740000000  0.4614110000000 1.0
C      1  0.5157380000000  0.4983610000000  0.5515030000000 1.0
C      1  0.4668880000000  0.4682640000000  0.4668490000000 1.0
C      1  0.5089260000000  0.4145110000000  0.5357370000000 1.0
END
