TITL C-2848496-4490-340 0.0052975092158659 125000 -1052.18317480539 0 0 199 (C1) n - 1
REM
REM in /home/bkarasulu/work/CARBON/AIRSS/Generating-Clusters/AIREBO/with-SteepDescent/Only-C1/SD-CG-opt/Try1-1.4A-POS3A/HFTN-CG
REM
REM
REM
REM
REM
REM ./C.cell (11c1c37f851c82e70ff6c80c92926a4b)
REM
REM compiler GCC version 9.2.1 20190827 (Red Hat 9.2.1-1)
REM options -cpp -mtune=generic -march=x86-64 -g -O0 -fpre-include=/usr/include/finclude/math-vector-fortran.h
REM seed 157812746 1531567789 781140443 -692499314 1779966209 -1187522746 -510015409 2097449158 -628847333 1650438384 -2144321132 -496609739 -1922508384 -1972732634 1107237762 1795180136 978351875 1875925336 -586344347 -1765735397 1175526802 -1365387451 729021669 -1486926377 -1941638402 39524787 -522497599 -1545690833 18583157 1348258365 1170460151 -1625155615 1313787854
REM
CELL 1.54180   50.00000   50.00000   50.00000   90.00000   90.00000   90.00000
LATT -1
SFAC C  
C      1  0.5293180000000  0.4325520000000  0.5377130000000 1.0
C      1  0.5466470000000  0.4117360000000  0.5582110000000 1.0
C      1  0.5598830000000  0.4517350000000  0.4828390000000 1.0
C      1  0.4537940000000  0.4878200000000  0.5490000000000 1.0
C      1  0.4544460000000  0.6059470000000  0.4742070000000 1.0
C      1  0.4144670000000  0.5244330000000  0.5688730000000 1.0
C      1  0.5344170000000  0.5370380000000  0.5677400000000 1.0
C      1  0.4509950000000  0.5419320000000  0.4638800000000 1.0
C      1  0.4958850000000  0.5075220000000  0.6154460000000 1.0
C      1  0.6178430000000  0.4850700000000  0.4952540000000 1.0
C      1  0.5675510000000  0.4921710000000  0.4405660000000 1.0
C      1  0.4942430000000  0.5614760000000  0.4670490000000 1.0
C      1  0.5498710000000  0.5374110000000  0.4428560000000 1.0
C      1  0.4992460000000  0.3955710000000  0.4414930000000 1.0
C      1  0.5730690000000  0.5134650000000  0.4770670000000 1.0
C      1  0.3963980000000  0.4433580000000  0.5091600000000 1.0
C      1  0.5853050000000  0.4716820000000  0.5702030000000 1.0
C      1  0.4925300000000  0.4676910000000  0.5283260000000 1.0
C      1  0.5657700000000  0.5657650000000  0.4552610000000 1.0
C      1  0.4449860000000  0.5149870000000  0.4217870000000 1.0
C      1  0.4301100000000  0.4048180000000  0.5112770000000 1.0
C      1  0.5564600000000  0.4917090000000  0.4083030000000 1.0
C      1  0.5936000000000  0.5732840000000  0.4987470000000 1.0
C      1  0.4105050000000  0.4926230000000  0.4274180000000 1.0
C      1  0.4437270000000  0.5652710000000  0.4401610000000 1.0
C      1  0.4130580000000  0.4389760000000  0.4818020000000 1.0
C      1  0.4582530000000  0.4634650000000  0.4026830000000 1.0
C      1  0.4820750000000  0.5700770000000  0.5366570000000 1.0
C      1  0.4200580000000  0.5520420000000  0.5848890000000 1.0
C      1  0.5248610000000  0.5479100000000  0.5367500000000 1.0
C      1  0.3962320000000  0.5161040000000  0.4919920000000 1.0
C      1  0.5090710000000  0.4604610000000  0.6195660000000 1.0
C      1  0.4692140000000  0.5813890000000  0.4558980000000 1.0
C      1  0.3924460000000  0.5626860000000  0.4743420000000 1.0
C      1  0.5861200000000  0.5163620000000  0.5585670000000 1.0
C      1  0.6190190000000  0.5164800000000  0.4819310000000 1.0
C      1  0.5152070000000  0.5177520000000  0.5877360000000 1.0
C      1  0.5030000000000  0.5308610000000  0.4550870000000 1.0
C      1  0.3908580000000  0.4753260000000  0.5170550000000 1.0
C      1  0.4434970000000  0.4144200000000  0.5352100000000 1.0
C      1  0.4101730000000  0.4870230000000  0.4840630000000 1.0
C      1  0.5138880000000  0.5067740000000  0.4017230000000 1.0
C      1  0.5355240000000  0.5504690000000  0.3907820000000 1.0
C      1  0.4215020000000  0.5331500000000  0.4108020000000 1.0
C      1  0.4869190000000  0.3856960000000  0.4886860000000 1.0
C      1  0.5194040000000  0.4644090000000  0.4858240000000 1.0
C      1  0.5110500000000  0.4928870000000  0.5416930000000 1.0
C      1  0.4519880000000  0.4210490000000  0.4480880000000 1.0
C      1  0.5133660000000  0.3841580000000  0.5371860000000 1.0
C      1  0.5012500000000  0.5749820000000  0.6017990000000 1.0
C      1  0.5729050000000  0.4228010000000  0.5569400000000 1.0
C      1  0.4388690000000  0.5203600000000  0.5060150000000 1.0
C      1  0.4684910000000  0.5345310000000  0.4356140000000 1.0
C      1  0.4131380000000  0.5650400000000  0.5565110000000 1.0
C      1  0.4929650000000  0.4208930000000  0.4221590000000 1.0
C      1  0.5187870000000  0.4004530000000  0.5589270000000 1.0
C      1  0.4296280000000  0.4316530000000  0.4339260000000 1.0
C      1  0.5473900000000  0.3962410000000  0.5071120000000 1.0
C      1  0.4804420000000  0.4765900000000  0.4687950000000 1.0
C      1  0.4830880000000  0.4800150000000  0.5795520000000 1.0
C      1  0.5491270000000  0.4016320000000  0.4463760000000 1.0
C      1  0.5146370000000  0.5752570000000  0.5356430000000 1.0
C      1  0.4792720000000  0.4092470000000  0.4653810000000 1.0
C      1  0.4662450000000  0.5364680000000  0.4937980000000 1.0
C      1  0.5333960000000  0.5371380000000  0.5056370000000 1.0
C      1  0.4599740000000  0.4950060000000  0.4977350000000 1.0
C      1  0.5369310000000  0.3748990000000  0.5233620000000 1.0
C      1  0.4966330000000  0.3990330000000  0.5162400000000 1.0
C      1  0.5500140000000  0.5838810000000  0.5598670000000 1.0
C      1  0.4999570000000  0.6068150000000  0.4774680000000 1.0
C      1  0.5348160000000  0.4899340000000  0.5865860000000 1.0
C      1  0.5186710000000  0.5833920000000  0.4641180000000 1.0
C      1  0.4934890000000  0.4946490000000  0.4919720000000 1.0
C      1  0.5621140000000  0.4512950000000  0.4286080000000 1.0
C      1  0.4812030000000  0.5163940000000  0.4717720000000 1.0
C      1  0.5531300000000  0.4253880000000  0.4649090000000 1.0
C      1  0.5212020000000  0.4797590000000  0.3877940000000 1.0
C      1  0.5805340000000  0.5229490000000  0.4469490000000 1.0
C      1  0.5375020000000  0.5063050000000  0.4410520000000 1.0
C      1  0.3903690000000  0.5222740000000  0.5449800000000 1.0
C      1  0.5716190000000  0.5914680000000  0.5172570000000 1.0
C      1  0.5533650000000  0.4776990000000  0.4678810000000 1.0
C      1  0.4896480000000  0.5422530000000  0.5547380000000 1.0
C      1  0.4316640000000  0.4356360000000  0.5491030000000 1.0
C      1  0.5053950000000  0.4309970000000  0.5622840000000 1.0
C      1  0.5891240000000  0.5490820000000  0.4672340000000 1.0
C      1  0.3825500000000  0.5073660000000  0.5218740000000 1.0
C      1  0.4486750000000  0.5665480000000  0.5383530000000 1.0
C      1  0.6113960000000  0.5087930000000  0.5141630000000 1.0
C      1  0.4980200000000  0.5470970000000  0.5873420000000 1.0
C      1  0.4595970000000  0.4594150000000  0.5667830000000 1.0
C      1  0.5360870000000  0.4831090000000  0.5539610000000 1.0
C      1  0.5942290000000  0.4653360000000  0.4957890000000 1.0
C      1  0.4215920000000  0.4939830000000  0.5822240000000 1.0
C      1  0.5150510000000  0.5092840000000  0.5123420000000 1.0
C      1  0.5763320000000  0.4996070000000  0.5793720000000 1.0
C      1  0.4304670000000  0.5857140000000  0.4613490000000 1.0
C      1  0.4409270000000  0.5954950000000  0.5236040000000 1.0
C      1  0.4777520000000  0.5671080000000  0.5030450000000 1.0
C      1  0.5236370000000  0.4178590000000  0.5077060000000 1.0
C      1  0.4893200000000  0.4803570000000  0.6114900000000 1.0
C      1  0.4697100000000  0.5394330000000  0.4022080000000 1.0
C      1  0.4496490000000  0.4909670000000  0.4027090000000 1.0
C      1  0.4679400000000  0.4494700000000  0.4577790000000 1.0
C      1  0.4249680000000  0.5228440000000  0.4750700000000 1.0
C      1  0.5254770000000  0.5751580000000  0.5800060000000 1.0
C      1  0.5581840000000  0.5801110000000  0.4817020000000 1.0
C      1  0.4479550000000  0.5761890000000  0.4893250000000 1.0
C      1  0.5284130000000  0.5540470000000  0.4223740000000 1.0
C      1  0.5787430000000  0.4405310000000  0.4496060000000 1.0
C      1  0.3831530000000  0.5392080000000  0.4744990000000 1.0
C      1  0.5001930000000  0.4650260000000  0.3789540000000 1.0
C      1  0.5113910000000  0.4660900000000  0.5803300000000 1.0
C      1  0.5428980000000  0.4610830000000  0.4023180000000 1.0
C      1  0.4083310000000  0.4644440000000  0.4669620000000 1.0
C      1  0.5060340000000  0.5038090000000  0.4346800000000 1.0
C      1  0.5824280000000  0.6032920000000  0.4872670000000 1.0
C      1  0.5712690000000  0.4049680000000  0.4987020000000 1.0
C      1  0.5791760000000  0.4283790000000  0.5301300000000 1.0
C      1  0.5873900000000  0.5434710000000  0.5568090000000 1.0
C      1  0.4152450000000  0.4555940000000  0.5301930000000 1.0
C      1  0.5292660000000  0.5869270000000  0.4956630000000 1.0
C      1  0.4159410000000  0.5942130000000  0.5123730000000 1.0
C      1  0.4319170000000  0.5045070000000  0.4510260000000 1.0
C      1  0.5013780000000  0.4375800000000  0.5954140000000 1.0
C      1  0.4742720000000  0.4929190000000  0.5269150000000 1.0
C      1  0.4585000000000  0.6100340000000  0.5077200000000 1.0
C      1  0.4429390000000  0.5535390000000  0.4115630000000 1.0
C      1  0.4789350000000  0.5270180000000  0.6016330000000 1.0
C      1  0.4629830000000  0.5159490000000  0.5797190000000 1.0
C      1  0.5527700000000  0.5325510000000  0.5403040000000 1.0
C      1  0.4680940000000  0.4377830000000  0.5899280000000 1.0
C      1  0.5232900000000  0.6035830000000  0.5523430000000 1.0
C      1  0.5641430000000  0.5632050000000  0.5440370000000 1.0
C      1  0.4923730000000  0.5088830000000  0.5641500000000 1.0
C      1  0.5971010000000  0.4824570000000  0.4489830000000 1.0
C      1  0.5381400000000  0.5755390000000  0.4437190000000 1.0
C      1  0.4011920000000  0.5128640000000  0.4111510000000 1.0
C      1  0.5513660000000  0.5550350000000  0.5869330000000 1.0
C      1  0.4818540000000  0.4445120000000  0.5457580000000 1.0
C      1  0.5690160000000  0.5226000000000  0.4149600000000 1.0
C      1  0.5390530000000  0.4641990000000  0.4417380000000 1.0
C      1  0.5673480000000  0.4749410000000  0.5144190000000 1.0
C      1  0.4891070000000  0.5250450000000  0.3899780000000 1.0
C      1  0.4161670000000  0.5449730000000  0.5119320000000 1.0
C      1  0.4150050000000  0.5690010000000  0.4938640000000 1.0
C      1  0.4195420000000  0.4941710000000  0.5159700000000 1.0
C      1  0.5947350000000  0.4587410000000  0.4632910000000 1.0
C      1  0.5849130000000  0.4999010000000  0.5294440000000 1.0
C      1  0.4031590000000  0.4126550000000  0.5016350000000 1.0
C      1  0.4785940000000  0.4842960000000  0.4298800000000 1.0
C      1  0.4785250000000  0.4266800000000  0.4945830000000 1.0
C      1  0.5641540000000  0.4512250000000  0.5671790000000 1.0
C      1  0.4981940000000  0.4346690000000  0.4530470000000 1.0
C      1  0.4426720000000  0.5734970000000  0.5710910000000 1.0
C      1  0.4429560000000  0.5165840000000  0.5573540000000 1.0
C      1  0.5325990000000  0.5330900000000  0.4718520000000 1.0
C      1  0.5224650000000  0.4331860000000  0.4773610000000 1.0
C      1  0.4616360000000  0.4984340000000  0.4540270000000 1.0
C      1  0.4727700000000  0.4196990000000  0.5274360000000 1.0
C      1  0.5377870000000  0.4501970000000  0.5832600000000 1.0
C      1  0.5845130000000  0.4346560000000  0.4989100000000 1.0
C      1  0.5620360000000  0.5202080000000  0.5145860000000 1.0
C      1  0.4180820000000  0.4634450000000  0.4384290000000 1.0
C      1  0.5365340000000  0.4844460000000  0.5034520000000 1.0
C      1  0.4140050000000  0.4902190000000  0.5492940000000 1.0
C      1  0.4258440000000  0.4635920000000  0.5675790000000 1.0
C      1  0.4851470000000  0.6000390000000  0.4989350000000 1.0
C      1  0.4726690000000  0.5877250000000  0.5637940000000 1.0
C      1  0.6113700000000  0.5091140000000  0.4523310000000 1.0
C      1  0.4600260000000  0.4617520000000  0.4997900000000 1.0
C      1  0.4972520000000  0.5512840000000  0.4285120000000 1.0
C      1  0.5854510000000  0.5342560000000  0.4976110000000 1.0
C      1  0.5345580000000  0.4728330000000  0.6159840000000 1.0
C      1  0.4418650000000  0.4702330000000  0.5232580000000 1.0
C      1  0.5408810000000  0.5217450000000  0.3995380000000 1.0
C      1  0.5104560000000  0.5605150000000  0.4964390000000 1.0
C      1  0.5281000000000  0.4056970000000  0.4298260000000 1.0
C      1  0.5487920000000  0.4595820000000  0.5384540000000 1.0
C      1  0.5238640000000  0.4368710000000  0.4168760000000 1.0
C      1  0.4874700000000  0.5787340000000  0.4316740000000 1.0
C      1  0.4997490000000  0.5970090000000  0.5759220000000 1.0
C      1  0.5441730000000  0.5059140000000  0.4815320000000 1.0
C      1  0.4844280000000  0.5225750000000  0.5189640000000 1.0
C      1  0.5984790000000  0.4731950000000  0.5451010000000 1.0
C      1  0.6028140000000  0.4487740000000  0.5313430000000 1.0
C      1  0.4502620000000  0.4658740000000  0.4338120000000 1.0
C      1  0.5013400000000  0.4590200000000  0.4294940000000 1.0
C      1  0.5644500000000  0.4820090000000  0.6026180000000 1.0
C      1  0.5394350000000  0.5957520000000  0.5234630000000 1.0
C      1  0.4445370000000  0.4424500000000  0.4814250000000 1.0
C      1  0.4047640000000  0.5469390000000  0.5372750000000 1.0
C      1  0.4845090000000  0.4558490000000  0.4001140000000 1.0
C      1  0.6148810000000  0.5493380000000  0.4897090000000 1.0
C      1  0.4516420000000  0.5346290000000  0.5341110000000 1.0
C      1  0.5118930000000  0.4779140000000  0.4559340000000 1.0
C      1  0.4932500000000  0.4550750000000  0.4998380000000 1.0
C      1  0.5562330000000  0.5617970000000  0.5109410000000 1.0
C      1  0.4483830000000  0.4114740000000  0.4905350000000 1.0
END
