TITL C-2847945-6269-284 0.000421808362054812 125000 -721.462404452172 0 0 135 (C1) n - 1
REM
REM in /home/bkarasulu/work/CARBON/AIRSS/Generating-Clusters/AIREBO/with-SteepDescent/Only-C1/SD-CG-opt/Try1-1.4A-POS3A/HFTN-CG
REM
REM
REM
REM
REM
REM ./C.cell (11c1c37f851c82e70ff6c80c92926a4b)
REM
REM compiler GCC version 9.2.1 20190827 (Red Hat 9.2.1-1)
REM options -cpp -mtune=generic -march=x86-64 -g -O0 -fpre-include=/usr/include/finclude/math-vector-fortran.h
REM seed 1531426405 -2059466375 -419417210 447124477 693616133 1523550763 84674334 -1634021695 -1915575788 2052096429 957381059 460107436 274599088 -1871323252 -1242326313 592351140 1345089466 1482211808 1778678293 -1506022572 1789343388 -628766987 1116484315 -1592817772 1343355119 1130411444 45690798 1477717370 -471058515 -562910098 -173067281 2126218251 -803238855
REM
CELL 1.54180   50.00000   50.00000   50.00000   90.00000   90.00000   90.00000
LATT -1
SFAC C  
C      1  0.5345310000000  0.4855070000000  0.5373220000000 1.0
C      1  0.5815760000000  0.5063690000000  0.4606530000000 1.0
C      1  0.4071790000000  0.4970460000000  0.4772870000000 1.0
C      1  0.5476150000000  0.5091560000000  0.4184240000000 1.0
C      1  0.5271460000000  0.4435770000000  0.5926780000000 1.0
C      1  0.5705630000000  0.4509960000000  0.4619980000000 1.0
C      1  0.5198310000000  0.4626720000000  0.4181670000000 1.0
C      1  0.4338830000000  0.5364270000000  0.5589870000000 1.0
C      1  0.4366630000000  0.5494130000000  0.4579790000000 1.0
C      1  0.5582560000000  0.4821240000000  0.5690620000000 1.0
C      1  0.4657060000000  0.4444730000000  0.4467460000000 1.0
C      1  0.5042530000000  0.4299550000000  0.4789310000000 1.0
C      1  0.4595260000000  0.4493330000000  0.5413890000000 1.0
C      1  0.4704670000000  0.5198560000000  0.5834890000000 1.0
C      1  0.4963290000000  0.4531800000000  0.4985070000000 1.0
C      1  0.5117720000000  0.5711400000000  0.4758550000000 1.0
C      1  0.4686230000000  0.6123860000000  0.4847010000000 1.0
C      1  0.4817880000000  0.5843450000000  0.4987190000000 1.0
C      1  0.4474630000000  0.5027160000000  0.4223260000000 1.0
C      1  0.4392890000000  0.4667390000000  0.5235140000000 1.0
C      1  0.5695370000000  0.5643510000000  0.4787930000000 1.0
C      1  0.5136770000000  0.6033430000000  0.4845830000000 1.0
C      1  0.4654110000000  0.4913300000000  0.3979450000000 1.0
C      1  0.4739400000000  0.5121680000000  0.5565640000000 1.0
C      1  0.4960550000000  0.5199400000000  0.6007150000000 1.0
C      1  0.5642840000000  0.4989650000000  0.4386610000000 1.0
C      1  0.5571220000000  0.4175590000000  0.4692380000000 1.0
C      1  0.5928380000000  0.4628870000000  0.4754840000000 1.0
C      1  0.5027380000000  0.4015460000000  0.4965620000000 1.0
C      1  0.5934300000000  0.4833830000000  0.4999830000000 1.0
C      1  0.5119720000000  0.4333860000000  0.4226610000000 1.0
C      1  0.5028890000000  0.5453490000000  0.5190110000000 1.0
C      1  0.4776130000000  0.5619590000000  0.4219810000000 1.0
C      1  0.5013460000000  0.4804680000000  0.4639400000000 1.0
C      1  0.4619990000000  0.5572990000000  0.5045370000000 1.0
C      1  0.5419480000000  0.5094200000000  0.5793030000000 1.0
C      1  0.5187750000000  0.4960750000000  0.4178020000000 1.0
C      1  0.4998330000000  0.5468190000000  0.5832410000000 1.0
C      1  0.5036910000000  0.5103470000000  0.4674390000000 1.0
C      1  0.5403380000000  0.4878150000000  0.4791280000000 1.0
C      1  0.4451570000000  0.4558650000000  0.6273950000000 1.0
C      1  0.4450830000000  0.5922860000000  0.4855320000000 1.0
C      1  0.4927400000000  0.4779490000000  0.4092740000000 1.0
C      1  0.4625950000000  0.4586620000000  0.6080350000000 1.0
C      1  0.5132540000000  0.4526950000000  0.5447240000000 1.0
C      1  0.5168170000000  0.4000970000000  0.5260110000000 1.0
C      1  0.5088000000000  0.5388690000000  0.4498190000000 1.0
C      1  0.4428340000000  0.4495870000000  0.4809180000000 1.0
C      1  0.5317280000000  0.5751820000000  0.5567400000000 1.0
C      1  0.4886650000000  0.5772650000000  0.4426710000000 1.0
C      1  0.4966920000000  0.4349230000000  0.4493010000000 1.0
C      1  0.4757350000000  0.5597170000000  0.5747860000000 1.0
C      1  0.5249410000000  0.4754640000000  0.5671390000000 1.0
C      1  0.5408020000000  0.4461610000000  0.4777350000000 1.0
C      1  0.4278070000000  0.4760430000000  0.4278780000000 1.0
C      1  0.5658690000000  0.5556910000000  0.4490410000000 1.0
C      1  0.5136590000000  0.5447520000000  0.4893860000000 1.0
C      1  0.4776880000000  0.5747870000000  0.5510450000000 1.0
C      1  0.4130260000000  0.5677210000000  0.5130700000000 1.0
C      1  0.5341290000000  0.4365870000000  0.5658840000000 1.0
C      1  0.4037840000000  0.5142480000000  0.4524690000000 1.0
C      1  0.5167450000000  0.5008590000000  0.5982640000000 1.0
C      1  0.5783630000000  0.5057750000000  0.5192800000000 1.0
C      1  0.5876390000000  0.4454320000000  0.5420870000000 1.0
C      1  0.5932330000000  0.5348250000000  0.5143110000000 1.0
C      1  0.5277030000000  0.5349420000000  0.4151520000000 1.0
C      1  0.5428500000000  0.5823070000000  0.4677580000000 1.0
C      1  0.5411250000000  0.4205300000000  0.5380490000000 1.0
C      1  0.5571970000000  0.4668940000000  0.4991290000000 1.0
C      1  0.5562440000000  0.5717890000000  0.5546290000000 1.0
C      1  0.5035780000000  0.4313060000000  0.5231520000000 1.0
C      1  0.5146460000000  0.5237830000000  0.5656340000000 1.0
C      1  0.4836970000000  0.5289090000000  0.4866590000000 1.0
C      1  0.4641280000000  0.4589580000000  0.5030950000000 1.0
C      1  0.5584040000000  0.5537290000000  0.5095220000000 1.0
C      1  0.5510410000000  0.4743570000000  0.4513420000000 1.0
C      1  0.4085690000000  0.5420790000000  0.5060200000000 1.0
C      1  0.4486470000000  0.4173860000000  0.4881780000000 1.0
C      1  0.4700830000000  0.5432360000000  0.4589880000000 1.0
C      1  0.4348360000000  0.5855480000000  0.5113290000000 1.0
C      1  0.5419450000000  0.5372920000000  0.4459690000000 1.0
C      1  0.5201130000000  0.5705780000000  0.4449220000000 1.0
C      1  0.5746720000000  0.4980370000000  0.5492590000000 1.0
C      1  0.4585190000000  0.5787350000000  0.5307120000000 1.0
C      1  0.4754650000000  0.4769760000000  0.4489790000000 1.0
C      1  0.4965870000000  0.5430670000000  0.4120580000000 1.0
C      1  0.4498360000000  0.5573040000000  0.4276240000000 1.0
C      1  0.4694560000000  0.4028310000000  0.5531160000000 1.0
C      1  0.4495990000000  0.5176870000000  0.5378800000000 1.0
C      1  0.5657390000000  0.4256490000000  0.5151510000000 1.0
C      1  0.3830810000000  0.4808860000000  0.4857750000000 1.0
C      1  0.4648270000000  0.4639650000000  0.4188890000000 1.0
C      1  0.5112330000000  0.4839550000000  0.4962940000000 1.0
C      1  0.5600730000000  0.4508680000000  0.5559230000000 1.0
C      1  0.4214280000000  0.4249770000000  0.5040370000000 1.0
C      1  0.4724190000000  0.4228350000000  0.5337990000000 1.0
C      1  0.4905540000000  0.4758510000000  0.5343620000000 1.0
C      1  0.4215070000000  0.5132050000000  0.5000230000000 1.0
C      1  0.4697440000000  0.5759540000000  0.4682590000000 1.0
C      1  0.4379560000000  0.4634760000000  0.4517870000000 1.0
C      1  0.4166210000000  0.4456220000000  0.5177020000000 1.0
C      1  0.5734100000000  0.5316480000000  0.4799410000000 1.0
C      1  0.6009500000000  0.5142630000000  0.4877290000000 1.0
C      1  0.5519640000000  0.5207970000000  0.5039950000000 1.0
C      1  0.5736880000000  0.5498940000000  0.5377790000000 1.0
C      1  0.5088450000000  0.4705420000000  0.5944810000000 1.0
C      1  0.5209210000000  0.4586030000000  0.4522430000000 1.0
C      1  0.5098520000000  0.5852120000000  0.5130910000000 1.0
C      1  0.5849870000000  0.4531810000000  0.5131380000000 1.0
C      1  0.5236800000000  0.5075110000000  0.5174450000000 1.0
C      1  0.4785760000000  0.4883120000000  0.5047130000000 1.0
C      1  0.5508760000000  0.4661620000000  0.5293130000000 1.0
C      1  0.4802850000000  0.4642370000000  0.5878430000000 1.0
C      1  0.4957110000000  0.5154390000000  0.4289400000000 1.0
C      1  0.5407610000000  0.5795040000000  0.5016030000000 1.0
C      1  0.4440580000000  0.5339900000000  0.4874830000000 1.0
C      1  0.4516690000000  0.4193810000000  0.4562830000000 1.0
C      1  0.4361440000000  0.4830690000000  0.4782110000000 1.0
C      1  0.4746140000000  0.4643500000000  0.5614840000000 1.0
C      1  0.4512050000000  0.5434420000000  0.5812260000000 1.0
C      1  0.4682790000000  0.5102040000000  0.4483630000000 1.0
C      1  0.5282190000000  0.4072450000000  0.4746860000000 1.0
C      1  0.5260020000000  0.5347760000000  0.5376280000000 1.0
C      1  0.4603500000000  0.5048370000000  0.4810110000000 1.0
C      1  0.4733000000000  0.5307110000000  0.5193020000000 1.0
C      1  0.5523460000000  0.5320780000000  0.5561650000000 1.0
C      1  0.5332600000000  0.4308760000000  0.5065530000000 1.0
C      1  0.4331480000000  0.4969600000000  0.5230290000000 1.0
C      1  0.4736930000000  0.4128010000000  0.5036200000000 1.0
C      1  0.4070380000000  0.5409620000000  0.4559530000000 1.0
C      1  0.4144690000000  0.5041890000000  0.4294640000000 1.0
C      1  0.5340860000000  0.5210110000000  0.4750630000000 1.0
C      1  0.4996420000000  0.5051710000000  0.5414540000000 1.0
C      1  0.5061030000000  0.5719590000000  0.5399360000000 1.0
C      1  0.5740680000000  0.4079170000000  0.4925770000000 1.0
END
