TITL C-2848495-5024-569 -8.26350001333903e-05 125000 -322.442125430495 0 0 59 (C1) n - 1
REM
REM in /home/bkarasulu/work/CARBON/AIRSS/Generating-Clusters/AIREBO/with-SteepDescent/Only-C1/SD-CG-opt/Try1-1.4A-POS3A/HFTN-CG
REM
REM
REM
REM
REM
REM ./C.cell (11c1c37f851c82e70ff6c80c92926a4b)
REM
REM compiler GCC version 9.2.1 20190827 (Red Hat 9.2.1-1)
REM options -cpp -mtune=generic -march=x86-64 -g -O0 -fpre-include=/usr/include/finclude/math-vector-fortran.h
REM seed 1661043114 2109077315 540074215 2064804615 208826558 1417773378 1706381350 1605647632 -160720443 -191614567 -1067004388 -1364389156 1533210495 749220762 -1178506387 675392076 -1555127076 2068160122 1878648469 345452486 -1593312302 -198498661 1814259600 -1105634707 -936742039 1326498163 -1546837781 -547433186 1430761477 1186253465 -1704269817 -96445429 1603943253
REM
CELL 1.54180   50.00000   50.00000   50.00000   90.00000   90.00000   90.00000
LATT -1
SFAC C  
C      1  0.4901350000000  0.5086990000000  0.4883990000000 1.0
C      1  0.4937750000000  0.4829180000000  0.5654020000000 1.0
C      1  0.4489540000000  0.4804710000000  0.5510130000000 1.0
C      1  0.4575340000000  0.4788550000000  0.4476820000000 1.0
C      1  0.5522860000000  0.4295010000000  0.5292610000000 1.0
C      1  0.4712710000000  0.5043890000000  0.4376680000000 1.0
C      1  0.5079390000000  0.4258600000000  0.5526550000000 1.0
C      1  0.5215490000000  0.5319630000000  0.4410980000000 1.0
C      1  0.4568400000000  0.5068790000000  0.5527180000000 1.0
C      1  0.4732250000000  0.5679000000000  0.5010590000000 1.0
C      1  0.5536300000000  0.4558260000000  0.5199660000000 1.0
C      1  0.5478640000000  0.5390320000000  0.4442810000000 1.0
C      1  0.4924540000000  0.4925460000000  0.4615680000000 1.0
C      1  0.4777280000000  0.4544650000000  0.4497390000000 1.0
C      1  0.5548860000000  0.5106330000000  0.5390670000000 1.0
C      1  0.4534700000000  0.5455970000000  0.5094750000000 1.0
C      1  0.4975890000000  0.5737410000000  0.4496030000000 1.0
C      1  0.5111510000000  0.4747060000000  0.5373280000000 1.0
C      1  0.5048270000000  0.5367130000000  0.4831570000000 1.0
C      1  0.4991710000000  0.5595850000000  0.5016320000000 1.0
C      1  0.5108080000000  0.5114490000000  0.5621480000000 1.0
C      1  0.5348930000000  0.4654640000000  0.4501400000000 1.0
C      1  0.4206890000000  0.5134330000000  0.4917390000000 1.0
C      1  0.5104000000000  0.5555370000000  0.5264500000000 1.0
C      1  0.4468020000000  0.5411600000000  0.4597960000000 1.0
C      1  0.5653420000000  0.5546050000000  0.5110150000000 1.0
C      1  0.4388850000000  0.4945070000000  0.5052090000000 1.0
C      1  0.5082440000000  0.4506790000000  0.4894940000000 1.0
C      1  0.4694730000000  0.5333230000000  0.4470610000000 1.0
C      1  0.5286640000000  0.5220350000000  0.4985910000000 1.0
C      1  0.5660770000000  0.4788500000000  0.5336440000000 1.0
C      1  0.5604200000000  0.5231350000000  0.4647780000000 1.0
C      1  0.4654220000000  0.4543510000000  0.5436600000000 1.0
C      1  0.4340700000000  0.5379600000000  0.4849060000000 1.0
C      1  0.4915360000000  0.4930360000000  0.5164540000000 1.0
C      1  0.4874640000000  0.5130060000000  0.5403710000000 1.0
C      1  0.5293730000000  0.5392310000000  0.5590130000000 1.0
C      1  0.4462130000000  0.4687720000000  0.5195430000000 1.0
C      1  0.5455720000000  0.4940080000000  0.4625040000000 1.0
C      1  0.4853170000000  0.4991740000000  0.4102930000000 1.0
C      1  0.5433230000000  0.5112920000000  0.5721890000000 1.0
C      1  0.5192490000000  0.5013380000000  0.4426010000000 1.0
C      1  0.4513890000000  0.4554040000000  0.4679190000000 1.0
C      1  0.5102320000000  0.4937980000000  0.4135930000000 1.0
C      1  0.4914740000000  0.5523470000000  0.5460820000000 1.0
C      1  0.5316490000000  0.4168790000000  0.5422390000000 1.0
C      1  0.5058760000000  0.4614900000000  0.4615290000000 1.0
C      1  0.4611530000000  0.5137050000000  0.5012030000000 1.0
C      1  0.5398210000000  0.5384830000000  0.5266630000000 1.0
C      1  0.4834540000000  0.4302510000000  0.4987690000000 1.0
C      1  0.5274690000000  0.4669860000000  0.5085000000000 1.0
C      1  0.5338430000000  0.4926650000000  0.4922730000000 1.0
C      1  0.4972680000000  0.5458310000000  0.4539720000000 1.0
C      1  0.4843820000000  0.4632610000000  0.5090910000000 1.0
C      1  0.5575710000000  0.5343280000000  0.4910880000000 1.0
C      1  0.5383750000000  0.4843550000000  0.5520740000000 1.0
C      1  0.4633430000000  0.5362910000000  0.5381980000000 1.0
C      1  0.4920800000000  0.4479780000000  0.5461320000000 1.0
C      1  0.4561070000000  0.4493220000000  0.4963030000000 1.0
END
