TITL C-2848496-4490-706 -0.000295150866838355 125000 -676.445425850391 0 0 120 (C1) n - 1
REM
REM in /home/bkarasulu/work/CARBON/AIRSS/Generating-Clusters/AIREBO/with-SteepDescent/Only-C1/SD-CG-opt/Try1-1.4A-POS3A/HFTN-CG
REM
REM
REM
REM
REM
REM ./C.cell (11c1c37f851c82e70ff6c80c92926a4b)
REM
REM compiler GCC version 9.2.1 20190827 (Red Hat 9.2.1-1)
REM options -cpp -mtune=generic -march=x86-64 -g -O0 -fpre-include=/usr/include/finclude/math-vector-fortran.h
REM seed -865335021 1974058562 -2030023703 -1548404857 588467267 -1335101693 -1710431140 -972484933 -2008896104 -1975365979 281451258 1272724764 -1941266035 -1402007763 -2134214033 -211400535 -1184122984 1929448179 886269070 -556060098 1148749215 840616526 -734106666 -1780502338 -1807215442 -1076400672 -462862042 -939519200 -1849778208 587621982 -1608546759 -1987148503 367181926
REM
CELL 1.54180   50.00000   50.00000   50.00000   90.00000   90.00000   90.00000
LATT -1
SFAC C  
C      1  0.4766780000000  0.4892690000000  0.4622300000000 1.0
C      1  0.4285580000000  0.4698540000000  0.5583070000000 1.0
C      1  0.4271190000000  0.4789300000000  0.4440560000000 1.0
C      1  0.5595670000000  0.4890380000000  0.4690150000000 1.0
C      1  0.5682910000000  0.5366670000000  0.5400240000000 1.0
C      1  0.5751900000000  0.4326430000000  0.4744800000000 1.0
C      1  0.5312170000000  0.5739760000000  0.5591200000000 1.0
C      1  0.5597190000000  0.5787710000000  0.5178470000000 1.0
C      1  0.4816670000000  0.5598780000000  0.5697390000000 1.0
C      1  0.5651150000000  0.5487200000000  0.4810290000000 1.0
C      1  0.5206370000000  0.4302310000000  0.5094430000000 1.0
C      1  0.5075740000000  0.5681370000000  0.4689890000000 1.0
C      1  0.4579980000000  0.5373660000000  0.5786170000000 1.0
C      1  0.4658450000000  0.4704970000000  0.4134460000000 1.0
C      1  0.5284420000000  0.4751140000000  0.5418710000000 1.0
C      1  0.4316800000000  0.4898920000000  0.5129180000000 1.0
C      1  0.5586780000000  0.5240990000000  0.4253970000000 1.0
C      1  0.4106460000000  0.5163070000000  0.5088630000000 1.0
C      1  0.4606230000000  0.5265910000000  0.4527770000000 1.0
C      1  0.5819540000000  0.4436430000000  0.4985460000000 1.0
C      1  0.4604200000000  0.5190190000000  0.5349400000000 1.0
C      1  0.4901790000000  0.4584800000000  0.5596690000000 1.0
C      1  0.4968000000000  0.5888240000000  0.4937310000000 1.0
C      1  0.4534350000000  0.4952910000000  0.4868890000000 1.0
C      1  0.4993810000000  0.4714580000000  0.4121980000000 1.0
C      1  0.5481440000000  0.5147970000000  0.5280070000000 1.0
C      1  0.5902650000000  0.5335360000000  0.4686300000000 1.0
C      1  0.5813010000000  0.4833710000000  0.5490570000000 1.0
C      1  0.4421180000000  0.5303400000000  0.5574620000000 1.0
C      1  0.4805370000000  0.4001890000000  0.4688210000000 1.0
C      1  0.4605550000000  0.4375160000000  0.5435520000000 1.0
C      1  0.5140380000000  0.4714890000000  0.5788040000000 1.0
C      1  0.4171160000000  0.5414900000000  0.5287030000000 1.0
C      1  0.4597240000000  0.5584220000000  0.4635600000000 1.0
C      1  0.5604740000000  0.4572960000000  0.5155760000000 1.0
C      1  0.4149560000000  0.5188880000000  0.5512820000000 1.0
C      1  0.4381260000000  0.4435490000000  0.4585550000000 1.0
C      1  0.4991820000000  0.5281290000000  0.4218250000000 1.0
C      1  0.4559320000000  0.4997730000000  0.4105380000000 1.0
C      1  0.5523660000000  0.5230820000000  0.5668380000000 1.0
C      1  0.4469840000000  0.4233420000000  0.5037540000000 1.0
C      1  0.4836310000000  0.4294280000000  0.4738080000000 1.0
C      1  0.4316460000000  0.4454930000000  0.5436360000000 1.0
C      1  0.5482920000000  0.4305550000000  0.4679110000000 1.0
C      1  0.4941020000000  0.4910850000000  0.5190500000000 1.0
C      1  0.4553590000000  0.5585420000000  0.5032220000000 1.0
C      1  0.5532310000000  0.4905080000000  0.5593460000000 1.0
C      1  0.4919030000000  0.5196140000000  0.4642040000000 1.0
C      1  0.4786730000000  0.5095140000000  0.5587670000000 1.0
C      1  0.4267410000000  0.4407400000000  0.5153630000000 1.0
C      1  0.4200280000000  0.4635610000000  0.4999650000000 1.0
C      1  0.5088090000000  0.5920220000000  0.5179310000000 1.0
C      1  0.5142120000000  0.4176670000000  0.4369300000000 1.0
C      1  0.5864660000000  0.5211910000000  0.4448320000000 1.0
C      1  0.4166060000000  0.4913690000000  0.5433630000000 1.0
C      1  0.5066380000000  0.5094650000000  0.5873090000000 1.0
C      1  0.4839970000000  0.4685890000000  0.4415440000000 1.0
C      1  0.5347100000000  0.5485580000000  0.5709950000000 1.0
C      1  0.4400660000000  0.5041260000000  0.4368240000000 1.0
C      1  0.4395010000000  0.5590840000000  0.5297750000000 1.0
C      1  0.5454270000000  0.5241830000000  0.4567120000000 1.0
C      1  0.5445380000000  0.5831230000000  0.4673890000000 1.0
C      1  0.5219760000000  0.5123040000000  0.4783070000000 1.0
C      1  0.4745760000000  0.5380400000000  0.5158590000000 1.0
C      1  0.5155780000000  0.4803990000000  0.4877010000000 1.0
C      1  0.5743590000000  0.4935750000000  0.4451820000000 1.0
C      1  0.4378840000000  0.5445310000000  0.4801860000000 1.0
C      1  0.5198020000000  0.5272570000000  0.5407320000000 1.0
C      1  0.5938910000000  0.5486160000000  0.4980040000000 1.0
C      1  0.4998800000000  0.4139330000000  0.5298270000000 1.0
C      1  0.4434390000000  0.4543110000000  0.4301180000000 1.0
C      1  0.5356290000000  0.5876800000000  0.5329470000000 1.0
C      1  0.5775720000000  0.5566430000000  0.5226510000000 1.0
C      1  0.4708470000000  0.4153010000000  0.5226650000000 1.0
C      1  0.4565270000000  0.4795030000000  0.5690290000000 1.0
C      1  0.5275330000000  0.4635340000000  0.5099150000000 1.0
C      1  0.5319830000000  0.4770890000000  0.4622190000000 1.0
C      1  0.5415020000000  0.5779160000000  0.4946200000000 1.0
C      1  0.5587060000000  0.4913410000000  0.4149950000000 1.0
C      1  0.4845040000000  0.5781370000000  0.5925690000000 1.0
C      1  0.4839940000000  0.4841040000000  0.5885730000000 1.0
C      1  0.5059510000000  0.4219910000000  0.5568060000000 1.0
C      1  0.5315520000000  0.4140590000000  0.4851920000000 1.0
C      1  0.5184500000000  0.5557310000000  0.4987580000000 1.0
C      1  0.5433870000000  0.4363690000000  0.5342070000000 1.0
C      1  0.5230710000000  0.4008870000000  0.4588210000000 1.0
C      1  0.5309290000000  0.4720060000000  0.4080230000000 1.0
C      1  0.5531690000000  0.5576690000000  0.4523460000000 1.0
C      1  0.5314600000000  0.4495240000000  0.4531670000000 1.0
C      1  0.3836680000000  0.5107610000000  0.5050320000000 1.0
C      1  0.4569410000000  0.4858350000000  0.5353280000000 1.0
C      1  0.5663720000000  0.4867370000000  0.5219740000000 1.0
C      1  0.5280120000000  0.4465500000000  0.5603440000000 1.0
C      1  0.5567430000000  0.5046320000000  0.4961390000000 1.0
C      1  0.5357740000000  0.4970370000000  0.5853120000000 1.0
C      1  0.5335490000000  0.5469360000000  0.4274530000000 1.0
C      1  0.4191090000000  0.4633770000000  0.4719550000000 1.0
C      1  0.5055360000000  0.4998420000000  0.5465690000000 1.0
C      1  0.4729860000000  0.5210360000000  0.4226690000000 1.0
C      1  0.5060860000000  0.5355380000000  0.5707500000000 1.0
C      1  0.5211040000000  0.5964650000000  0.4559230000000 1.0
C      1  0.4980650000000  0.4431650000000  0.4509370000000 1.0
C      1  0.5195950000000  0.5092340000000  0.4171070000000 1.0
C      1  0.4307870000000  0.5188720000000  0.4856130000000 1.0
C      1  0.4908310000000  0.4427340000000  0.5015960000000 1.0
C      1  0.5414100000000  0.5349520000000  0.4946120000000 1.0
C      1  0.5281730000000  0.4438180000000  0.4214500000000 1.0
C      1  0.4716560000000  0.5781760000000  0.4834280000000 1.0
C      1  0.5066950000000  0.5458210000000  0.4483370000000 1.0
C      1  0.4794670000000  0.4615790000000  0.5275470000000 1.0
C      1  0.4798060000000  0.4298100000000  0.5697670000000 1.0
C      1  0.5006340000000  0.5725730000000  0.5445350000000 1.0
C      1  0.4528970000000  0.4280240000000  0.4764260000000 1.0
C      1  0.4546290000000  0.5685000000000  0.5509840000000 1.0
C      1  0.4679090000000  0.5131360000000  0.5908190000000 1.0
C      1  0.5308280000000  0.5004720000000  0.4415950000000 1.0
C      1  0.4877330000000  0.5171180000000  0.4978760000000 1.0
C      1  0.5030680000000  0.5488430000000  0.5235070000000 1.0
C      1  0.4818250000000  0.4785310000000  0.4915130000000 1.0
C      1  0.5361510000000  0.5011290000000  0.3915050000000 1.0
END
