TITL C-2847956-8218-477 0.000505298751307688 125000 -543.124207893564 0 0 99 (C1) n - 1
REM
REM in /home/bkarasulu/work/CARBON/AIRSS/Generating-Clusters/AIREBO/with-SteepDescent/Only-C1/SD-CG-opt/Try1-1.4A-POS3A/HFTN-CG
REM
REM
REM
REM
REM
REM ./C.cell (11c1c37f851c82e70ff6c80c92926a4b)
REM
REM compiler GCC version 9.2.1 20190827 (Red Hat 9.2.1-1)
REM options -cpp -mtune=generic -march=x86-64 -g -O0 -fpre-include=/usr/include/finclude/math-vector-fortran.h
REM seed 2062934945 451901470 -1472596633 1953806228 434971247 -504003818 -1685463006 -415987405 -244004547 -780397217 -1454398473 -1442511328 719450672 -1909378295 1165700276 -2111686731 -2018268493 -891242354 -489071670 866743659 -1491025388 -234643552 1897791656 628488431 989983416 751961173 -585878408 -2144029634 -1425479536 -1951768717 -1453547752 1441912511 175155358
REM
CELL 1.54180   50.00000   50.00000   50.00000   90.00000   90.00000   90.00000
LATT -1
SFAC C  
C      1  0.4742450000000  0.4745190000000  0.4910420000000 1.0
C      1  0.5557310000000  0.4701040000000  0.5568060000000 1.0
C      1  0.4779680000000  0.5084830000000  0.5608950000000 1.0
C      1  0.4347200000000  0.4532960000000  0.5662570000000 1.0
C      1  0.5839320000000  0.4832310000000  0.4773100000000 1.0
C      1  0.5423540000000  0.5785830000000  0.5240880000000 1.0
C      1  0.5484020000000  0.4441930000000  0.4662090000000 1.0
C      1  0.4565910000000  0.5539350000000  0.5150580000000 1.0
C      1  0.5186500000000  0.5739470000000  0.5457340000000 1.0
C      1  0.5270920000000  0.4594780000000  0.5189850000000 1.0
C      1  0.5407000000000  0.4085760000000  0.5323290000000 1.0
C      1  0.5145490000000  0.4032610000000  0.5286880000000 1.0
C      1  0.5596110000000  0.5026100000000  0.5140000000000 1.0
C      1  0.5284230000000  0.4619550000000  0.5660610000000 1.0
C      1  0.5441520000000  0.5486090000000  0.5397500000000 1.0
C      1  0.4702260000000  0.4521630000000  0.4300260000000 1.0
C      1  0.5084140000000  0.4671690000000  0.5889370000000 1.0
C      1  0.4524690000000  0.5616490000000  0.4110670000000 1.0
C      1  0.4705050000000  0.4705980000000  0.4077630000000 1.0
C      1  0.5095270000000  0.4659630000000  0.5417640000000 1.0
C      1  0.4923650000000  0.4942980000000  0.4093280000000 1.0
C      1  0.4627000000000  0.5797170000000  0.5085510000000 1.0
C      1  0.4901710000000  0.3957900000000  0.5059720000000 1.0
C      1  0.4479390000000  0.4900140000000  0.4895610000000 1.0
C      1  0.5397920000000  0.4356620000000  0.4419690000000 1.0
C      1  0.4630480000000  0.4681770000000  0.5194010000000 1.0
C      1  0.4458720000000  0.5077330000000  0.5147100000000 1.0
C      1  0.5515140000000  0.4279350000000  0.5161360000000 1.0
C      1  0.5371490000000  0.4275390000000  0.4890840000000 1.0
C      1  0.5000110000000  0.4936960000000  0.5396460000000 1.0
C      1  0.4816160000000  0.4634510000000  0.5769670000000 1.0
C      1  0.5383880000000  0.4833280000000  0.5039870000000 1.0
C      1  0.4867010000000  0.4472750000000  0.5523740000000 1.0
C      1  0.5778010000000  0.4788310000000  0.5042870000000 1.0
C      1  0.4990870000000  0.4669090000000  0.4403190000000 1.0
C      1  0.4696070000000  0.5279870000000  0.5011870000000 1.0
C      1  0.5120450000000  0.5163070000000  0.4504930000000 1.0
C      1  0.4612140000000  0.5166320000000  0.4503320000000 1.0
C      1  0.4538070000000  0.4783320000000  0.5711030000000 1.0
C      1  0.4955310000000  0.4274820000000  0.5167520000000 1.0
C      1  0.4813450000000  0.5390870000000  0.5559820000000 1.0
C      1  0.5615280000000  0.5316930000000  0.5063670000000 1.0
C      1  0.5222470000000  0.6198960000000  0.4893610000000 1.0
C      1  0.5239560000000  0.5646630000000  0.4848290000000 1.0
C      1  0.5206820000000  0.5331990000000  0.4247250000000 1.0
C      1  0.4797840000000  0.4489510000000  0.4769570000000 1.0
C      1  0.5229280000000  0.4940720000000  0.5891140000000 1.0
C      1  0.5121250000000  0.4715990000000  0.4714470000000 1.0
C      1  0.5091530000000  0.4462230000000  0.4939010000000 1.0
C      1  0.5452510000000  0.5590590000000  0.4601640000000 1.0
C      1  0.4910130000000  0.5870180000000  0.5473910000000 1.0
C      1  0.4864560000000  0.5245350000000  0.4717030000000 1.0
C      1  0.4608720000000  0.4129140000000  0.5037900000000 1.0
C      1  0.4380180000000  0.5050010000000  0.4636160000000 1.0
C      1  0.4099280000000  0.4891220000000  0.4722860000000 1.0
C      1  0.4733950000000  0.5705170000000  0.5623660000000 1.0
C      1  0.4950550000000  0.4228970000000  0.4615260000000 1.0
C      1  0.4092640000000  0.5283930000000  0.5408920000000 1.0
C      1  0.4841000000000  0.5505500000000  0.4183810000000 1.0
C      1  0.4996550000000  0.5253260000000  0.4039280000000 1.0
C      1  0.4654850000000  0.4290920000000  0.4456380000000 1.0
C      1  0.5108150000000  0.4080110000000  0.4824100000000 1.0
C      1  0.5050660000000  0.5460680000000  0.5324840000000 1.0
C      1  0.5635640000000  0.5603080000000  0.4881030000000 1.0
C      1  0.5008160000000  0.5640900000000  0.4400760000000 1.0
C      1  0.5430750000000  0.5087190000000  0.4742950000000 1.0
C      1  0.5163590000000  0.5163020000000  0.5566190000000 1.0
C      1  0.4908930000000  0.5196760000000  0.5225810000000 1.0
C      1  0.5887800000000  0.5421980000000  0.5131360000000 1.0
C      1  0.4587660000000  0.4248560000000  0.4779340000000 1.0
C      1  0.5377480000000  0.4990350000000  0.4363890000000 1.0
C      1  0.5242750000000  0.5944680000000  0.4920360000000 1.0
C      1  0.4857710000000  0.4981630000000  0.4417690000000 1.0
C      1  0.5608410000000  0.5821630000000  0.5051340000000 1.0
C      1  0.4522640000000  0.5495490000000  0.5459350000000 1.0
C      1  0.5206540000000  0.5169410000000  0.4922160000000 1.0
C      1  0.5129240000000  0.4361740000000  0.4387930000000 1.0
C      1  0.4396030000000  0.4351140000000  0.5492900000000 1.0
C      1  0.5220070000000  0.4806700000000  0.4187780000000 1.0
C      1  0.5447720000000  0.4747720000000  0.4732030000000 1.0
C      1  0.4571340000000  0.5373180000000  0.4303890000000 1.0
C      1  0.4970870000000  0.4957820000000  0.4858670000000 1.0
C      1  0.4792380000000  0.5965560000000  0.5233690000000 1.0
C      1  0.4978300000000  0.5560790000000  0.4680170000000 1.0
C      1  0.5298220000000  0.5436580000000  0.5092910000000 1.0
C      1  0.5622280000000  0.5323980000000  0.4618590000000 1.0
C      1  0.4313650000000  0.5306370000000  0.5566540000000 1.0
C      1  0.4574080000000  0.4917530000000  0.5400710000000 1.0
C      1  0.4203510000000  0.5262210000000  0.4828020000000 1.0
C      1  0.4651150000000  0.4365490000000  0.5289510000000 1.0
C      1  0.4394510000000  0.5090250000000  0.5712520000000 1.0
C      1  0.5675970000000  0.5000810000000  0.4526820000000 1.0
C      1  0.5016590000000  0.5155030000000  0.5843770000000 1.0
C      1  0.5304000000000  0.5601240000000  0.4338780000000 1.0
C      1  0.4148410000000  0.5155040000000  0.5141530000000 1.0
C      1  0.3995510000000  0.4943320000000  0.4949130000000 1.0
C      1  0.5475520000000  0.4965810000000  0.5715310000000 1.0
C      1  0.5604710000000  0.4584440000000  0.5255420000000 1.0
C      1  0.5450470000000  0.5229550000000  0.5539330000000 1.0
END
