TITL C-2848500-1637-154 -0.00238298955714176 125000 -370.664411106793 0 0 70 (C1) n - 1
REM
REM in /home/bkarasulu/work/CARBON/AIRSS/Generating-Clusters/AIREBO/with-SteepDescent/Only-C1/SD-CG-opt/Try1-1.4A-POS3A/HFTN-CG
REM
REM
REM
REM
REM
REM ./C.cell (11c1c37f851c82e70ff6c80c92926a4b)
REM
REM compiler GCC version 9.2.1 20190827 (Red Hat 9.2.1-1)
REM options -cpp -mtune=generic -march=x86-64 -g -O0 -fpre-include=/usr/include/finclude/math-vector-fortran.h
REM seed -1620450952 -1024554739 1873580478 -1436877767 -228629032 -1946428177 604907652 -377415294 -391436068 -800187358 -68782930 1671913768 -1187751312 1879607426 385210485 -953647041 1050632550 -495477010 1575225408 -1162950461 401760781 -375125986 1571181178 1896004912 -892954411 1924287240 -214429356 -830641009 -260907935 417793190 173993407 -368752564 1680040524
REM
CELL 1.54180   50.00000   50.00000   50.00000   90.00000   90.00000   90.00000
LATT -1
SFAC C  
C      1  0.5480260000000  0.4325500000000  0.4679870000000 1.0
C      1  0.4264920000000  0.4991150000000  0.5012230000000 1.0
C      1  0.5357120000000  0.4417340000000  0.5448390000000 1.0
C      1  0.4809400000000  0.5611380000000  0.4507990000000 1.0
C      1  0.4925630000000  0.5143020000000  0.5524700000000 1.0
C      1  0.4866890000000  0.5362510000000  0.5345780000000 1.0
C      1  0.4486830000000  0.5424690000000  0.4651870000000 1.0
C      1  0.4281500000000  0.4671030000000  0.4960300000000 1.0
C      1  0.4684430000000  0.4904640000000  0.5517620000000 1.0
C      1  0.4288470000000  0.4870780000000  0.5500230000000 1.0
C      1  0.5398690000000  0.4720250000000  0.5507370000000 1.0
C      1  0.4925420000000  0.4872840000000  0.4279200000000 1.0
C      1  0.4398230000000  0.5162210000000  0.4820340000000 1.0
C      1  0.5237450000000  0.4919360000000  0.4277230000000 1.0
C      1  0.5791580000000  0.5528160000000  0.4720630000000 1.0
C      1  0.5032340000000  0.4776750000000  0.4587410000000 1.0
C      1  0.4768100000000  0.4627580000000  0.5603730000000 1.0
C      1  0.4562250000000  0.4616490000000  0.4944770000000 1.0
C      1  0.4482520000000  0.4944050000000  0.5250160000000 1.0
C      1  0.5118190000000  0.5764800000000  0.5064400000000 1.0
C      1  0.5185590000000  0.4364020000000  0.4944760000000 1.0
C      1  0.5352780000000  0.4679230000000  0.4369250000000 1.0
C      1  0.5305000000000  0.4653600000000  0.5028700000000 1.0
C      1  0.5109110000000  0.4872180000000  0.5434320000000 1.0
C      1  0.5054600000000  0.5074640000000  0.4684670000000 1.0
C      1  0.5146340000000  0.4357900000000  0.5283010000000 1.0
C      1  0.4873410000000  0.5585600000000  0.5085740000000 1.0
C      1  0.5320510000000  0.4868220000000  0.5772670000000 1.0
C      1  0.4775280000000  0.5482110000000  0.4819530000000 1.0
C      1  0.5614280000000  0.4823500000000  0.5338060000000 1.0
C      1  0.5115700000000  0.5619850000000  0.4429500000000 1.0
C      1  0.4595260000000  0.5913250000000  0.5795320000000 1.0
C      1  0.5145060000000  0.5080310000000  0.4965980000000 1.0
C      1  0.4875560000000  0.4447600000000  0.5416790000000 1.0
C      1  0.4328410000000  0.5617160000000  0.4540050000000 1.0
C      1  0.4531410000000  0.5206520000000  0.5546450000000 1.0
C      1  0.4960700000000  0.4265580000000  0.4730200000000 1.0
C      1  0.5925520000000  0.5301460000000  0.4790680000000 1.0
C      1  0.4602120000000  0.5679040000000  0.5657010000000 1.0
C      1  0.3998540000000  0.4802290000000  0.4922990000000 1.0
C      1  0.5564140000000  0.4754520000000  0.5074720000000 1.0
C      1  0.5851760000000  0.5045700000000  0.4831780000000 1.0
C      1  0.4882960000000  0.4542560000000  0.4347990000000 1.0
C      1  0.5476890000000  0.4924990000000  0.5975650000000 1.0
C      1  0.5583560000000  0.5565800000000  0.4550530000000 1.0
C      1  0.4576280000000  0.5119770000000  0.4490580000000 1.0
C      1  0.4841790000000  0.5390150000000  0.4250910000000 1.0
C      1  0.4526590000000  0.5367850000000  0.5283010000000 1.0
C      1  0.4726660000000  0.4910080000000  0.5017760000000 1.0
C      1  0.3736450000000  0.4781740000000  0.4885670000000 1.0
C      1  0.5591740000000  0.5059460000000  0.4388160000000 1.0
C      1  0.4737570000000  0.5145580000000  0.4788820000000 1.0
C      1  0.4531050000000  0.5413100000000  0.5749830000000 1.0
C      1  0.4762620000000  0.5127000000000  0.4281750000000 1.0
C      1  0.5840130000000  0.4939450000000  0.5437350000000 1.0
C      1  0.4687610000000  0.5650900000000  0.5362960000000 1.0
C      1  0.5920310000000  0.4571020000000  0.4805360000000 1.0
C      1  0.5785660000000  0.4785080000000  0.4898830000000 1.0
C      1  0.5009110000000  0.4906880000000  0.5757440000000 1.0
C      1  0.5636970000000  0.5004680000000  0.6167260000000 1.0
C      1  0.4739550000000  0.4350630000000  0.4884750000000 1.0
C      1  0.5828240000000  0.4973810000000  0.4344180000000 1.0
C      1  0.4652330000000  0.5837460000000  0.4459790000000 1.0
C      1  0.4828450000000  0.4543990000000  0.5133200000000 1.0
C      1  0.5332290000000  0.5475340000000  0.4478230000000 1.0
C      1  0.4938810000000  0.4295770000000  0.4451320000000 1.0
C      1  0.4849770000000  0.4647380000000  0.5884810000000 1.0
C      1  0.5298640000000  0.5178140000000  0.4472680000000 1.0
C      1  0.5033200000000  0.4815490000000  0.5130770000000 1.0
C      1  0.5253440000000  0.4527150000000  0.4654000000000 1.0
END
