TITL C-2847944-5688-464 0.00460762439905253 125000 -64.8495711319691 0 0 12 (C2) n - 1
REM
REM in /home/bkarasulu/work/CARBON/AIRSS/Generating-Clusters/AIREBO/with-SteepDescent/Only-C1/SD-CG-opt/Try1-1.4A-POS3A/HFTN-CG
REM
REM
REM
REM
REM
REM ./C.cell (11c1c37f851c82e70ff6c80c92926a4b)
REM
REM compiler GCC version 9.2.1 20190827 (Red Hat 9.2.1-1)
REM options -cpp -mtune=generic -march=x86-64 -g -O0 -fpre-include=/usr/include/finclude/math-vector-fortran.h
REM seed -1279430089 -1688225929 1291104988 -698281309 681505214 -1152808995 2132620172 969032005 -1725205805 553813174 -1309374243 -381168210 -1795816278 1075728339 211924764 -1991846719 -1009533712 884028342 332385041 1394013534 -1957266269 -360844079 2036294784 1937906286 961584361 882369377 -1872493801 1747440612 -1722181234 -724520589 2062717679 123468352 -229053223
REM
CELL 1.54180   50.00000   50.00000   50.00000   90.00000   90.00000   90.00000
LATT -1
SFAC C  
C      1  0.5090780000000  0.4581610000000  0.5247230000000 1.0
C      1  0.5023400000000  0.4826260000000  0.5166190000000 1.0
C      1  0.5076100000000  0.5251500000000  0.4581230000000 1.0
C      1  0.4930360000000  0.5069650000000  0.5071590000000 1.0
C      1  0.4823400000000  0.5495490000000  0.5258850000000 1.0
C      1  0.4562740000000  0.5118390000000  0.5372140000000 1.0
C      1  0.5166080000000  0.4348030000000  0.5350820000000 1.0
C      1  0.5211420000000  0.5460470000000  0.4115750000000 1.0
C      1  0.5133240000000  0.5352640000000  0.4341500000000 1.0
C      1  0.4993820000000  0.5156520000000  0.4816110000000 1.0
C      1  0.4768320000000  0.5231680000000  0.5238140000000 1.0
C      1  0.5220330000000  0.4107760000000  0.5440450000000 1.0
END
