TITL C-2848503-6230-440 0.000341058400776913 125000 -830.721215386002 0 0 163 (C1) n - 1
REM
REM in /home/bkarasulu/work/CARBON/AIRSS/Generating-Clusters/AIREBO/with-SteepDescent/Only-C1/SD-CG-opt/Try1-1.4A-POS3A/HFTN-CG
REM
REM
REM
REM
REM
REM ./C.cell (11c1c37f851c82e70ff6c80c92926a4b)
REM
REM compiler GCC version 9.2.1 20190827 (Red Hat 9.2.1-1)
REM options -cpp -mtune=generic -march=x86-64 -g -O0 -fpre-include=/usr/include/finclude/math-vector-fortran.h
REM seed -1721881078 -1959119678 736416587 1464295398 2069781124 -2066455670 -76995694 255311417 -2080120316 1771267841 1637933403 -263342489 1098321140 -1933039448 2023065805 -83727479 236798871 119657335 1402997958 -766325567 515680919 139496654 -1319702528 514298626 -2041657252 80317781 244968393 -2028612811 617170787 226771964 1793223120 946768976 961786059
REM
CELL 1.54180   50.00000   50.00000   50.00000   90.00000   90.00000   90.00000
LATT -1
SFAC C  
C      1  0.4992240000000  0.4867620000000  0.6046840000000 1.0
C      1  0.4371200000000  0.5247050000000  0.4517560000000 1.0
C      1  0.4294910000000  0.5148850000000  0.5432800000000 1.0
C      1  0.5944500000000  0.4660380000000  0.4761320000000 1.0
C      1  0.5042560000000  0.4396500000000  0.5479600000000 1.0
C      1  0.4421200000000  0.5652250000000  0.5425580000000 1.0
C      1  0.5861600000000  0.5100660000000  0.4964920000000 1.0
C      1  0.4976070000000  0.4937440000000  0.4870020000000 1.0
C      1  0.5467750000000  0.4464130000000  0.5356060000000 1.0
C      1  0.5402720000000  0.4824540000000  0.4340230000000 1.0
C      1  0.5430470000000  0.5466950000000  0.4252230000000 1.0
C      1  0.4556630000000  0.5750020000000  0.5066880000000 1.0
C      1  0.5091110000000  0.4636940000000  0.4981640000000 1.0
C      1  0.5621900000000  0.4667260000000  0.4531030000000 1.0
C      1  0.4551550000000  0.4197920000000  0.5310930000000 1.0
C      1  0.5388710000000  0.5156300000000  0.4562340000000 1.0
C      1  0.5113750000000  0.3994590000000  0.4779300000000 1.0
C      1  0.4652280000000  0.4979980000000  0.5643390000000 1.0
C      1  0.5966380000000  0.4783450000000  0.5337100000000 1.0
C      1  0.4535410000000  0.4870910000000  0.4873870000000 1.0
C      1  0.4833410000000  0.4826450000000  0.3857670000000 1.0
C      1  0.5711590000000  0.4921670000000  0.4235780000000 1.0
C      1  0.5407860000000  0.5536700000000  0.5519120000000 1.0
C      1  0.4815240000000  0.5544740000000  0.4616820000000 1.0
C      1  0.5582930000000  0.5291180000000  0.5006560000000 1.0
C      1  0.5020070000000  0.4934940000000  0.5383090000000 1.0
C      1  0.4816390000000  0.5174940000000  0.5253670000000 1.0
C      1  0.5254010000000  0.4752050000000  0.4637290000000 1.0
C      1  0.4241580000000  0.4711540000000  0.3969640000000 1.0
C      1  0.5675540000000  0.5255700000000  0.5466440000000 1.0
C      1  0.4992700000000  0.5720840000000  0.4275040000000 1.0
C      1  0.4758840000000  0.4436290000000  0.4838020000000 1.0
C      1  0.5691560000000  0.5259830000000  0.4269850000000 1.0
C      1  0.4015610000000  0.5427880000000  0.5465170000000 1.0
C      1  0.5606390000000  0.5747330000000  0.5359110000000 1.0
C      1  0.5172010000000  0.5018090000000  0.4204730000000 1.0
C      1  0.5253800000000  0.5855310000000  0.4837480000000 1.0
C      1  0.5259720000000  0.4549460000000  0.5790680000000 1.0
C      1  0.4356160000000  0.5795750000000  0.4725850000000 1.0
C      1  0.4016830000000  0.4987430000000  0.5060560000000 1.0
C      1  0.5551880000000  0.5010770000000  0.5197640000000 1.0
C      1  0.4464470000000  0.4680700000000  0.4463470000000 1.0
C      1  0.5048150000000  0.5380300000000  0.5394440000000 1.0
C      1  0.5363780000000  0.5910460000000  0.4552170000000 1.0
C      1  0.4960700000000  0.4463900000000  0.5869990000000 1.0
C      1  0.5077910000000  0.4465670000000  0.4586390000000 1.0
C      1  0.4708300000000  0.5082930000000  0.4717860000000 1.0
C      1  0.5358910000000  0.5256710000000  0.5331960000000 1.0
C      1  0.4825950000000  0.5235780000000  0.5742380000000 1.0
C      1  0.4294720000000  0.5578800000000  0.5732510000000 1.0
C      1  0.4616690000000  0.5678340000000  0.5787130000000 1.0
C      1  0.5188710000000  0.5429040000000  0.4778760000000 1.0
C      1  0.5719230000000  0.5579840000000  0.5132690000000 1.0
C      1  0.5366080000000  0.5001330000000  0.4839910000000 1.0
C      1  0.4204370000000  0.5522180000000  0.5198170000000 1.0
C      1  0.4908220000000  0.5416330000000  0.4204760000000 1.0
C      1  0.4435600000000  0.5476640000000  0.4953050000000 1.0
C      1  0.4173460000000  0.5261520000000  0.5716870000000 1.0
C      1  0.5648850000000  0.5919510000000  0.4552950000000 1.0
C      1  0.4984900000000  0.4092480000000  0.4282220000000 1.0
C      1  0.4245980000000  0.4342680000000  0.4837260000000 1.0
C      1  0.4125110000000  0.4117700000000  0.4755130000000 1.0
C      1  0.4998090000000  0.4544990000000  0.4112510000000 1.0
C      1  0.5345610000000  0.4293090000000  0.5593990000000 1.0
C      1  0.4871390000000  0.5006370000000  0.4326970000000 1.0
C      1  0.4903260000000  0.5553410000000  0.5648750000000 1.0
C      1  0.4861950000000  0.4694880000000  0.4660740000000 1.0
C      1  0.5463890000000  0.4920770000000  0.5516420000000 1.0
C      1  0.4782180000000  0.4049550000000  0.5192330000000 1.0
C      1  0.4974060000000  0.4232080000000  0.4978520000000 1.0
C      1  0.4883940000000  0.5682430000000  0.5129610000000 1.0
C      1  0.4940540000000  0.5373910000000  0.5007110000000 1.0
C      1  0.5119000000000  0.6053410000000  0.5078890000000 1.0
C      1  0.5676230000000  0.4867570000000  0.4800630000000 1.0
C      1  0.5951490000000  0.5055090000000  0.5443310000000 1.0
C      1  0.5100720000000  0.4279440000000  0.4099210000000 1.0
C      1  0.5727720000000  0.5654200000000  0.4586050000000 1.0
C      1  0.5437380000000  0.4043850000000  0.5437150000000 1.0
C      1  0.4220370000000  0.5807240000000  0.5013310000000 1.0
C      1  0.5609600000000  0.4155840000000  0.5001240000000 1.0
C      1  0.3929860000000  0.5448860000000  0.4741430000000 1.0
C      1  0.4242040000000  0.4996900000000  0.4399750000000 1.0
C      1  0.5287680000000  0.6094290000000  0.5307940000000 1.0
C      1  0.5559680000000  0.6012830000000  0.5315950000000 1.0
C      1  0.5598230000000  0.4978100000000  0.5824420000000 1.0
C      1  0.5424530000000  0.5589090000000  0.4963070000000 1.0
C      1  0.4474050000000  0.4555500000000  0.4762540000000 1.0
C      1  0.5262500000000  0.5744250000000  0.4344320000000 1.0
C      1  0.5156360000000  0.5978880000000  0.5530110000000 1.0
C      1  0.4322860000000  0.5118090000000  0.4817090000000 1.0
C      1  0.5311210000000  0.5807320000000  0.5692390000000 1.0
C      1  0.5075880000000  0.5093200000000  0.4584480000000 1.0
C      1  0.5045910000000  0.5159200000000  0.5937300000000 1.0
C      1  0.5147750000000  0.5617170000000  0.5842100000000 1.0
C      1  0.4593550000000  0.4482410000000  0.5582630000000 1.0
C      1  0.6057380000000  0.5164590000000  0.4643270000000 1.0
C      1  0.5173230000000  0.5073150000000  0.5112730000000 1.0
C      1  0.4257000000000  0.5489360000000  0.4684470000000 1.0
C      1  0.5466340000000  0.5468190000000  0.4585730000000 1.0
C      1  0.4615220000000  0.5881270000000  0.4694050000000 1.0
C      1  0.4873820000000  0.4669560000000  0.5539130000000 1.0
C      1  0.4865590000000  0.4245880000000  0.4503390000000 1.0
C      1  0.5909930000000  0.5314290000000  0.5227180000000 1.0
C      1  0.4663500000000  0.5306510000000  0.4908380000000 1.0
C      1  0.5206630000000  0.5599610000000  0.5197950000000 1.0
C      1  0.5377620000000  0.4513500000000  0.4845670000000 1.0
C      1  0.4445200000000  0.4578720000000  0.5835410000000 1.0
C      1  0.4534710000000  0.5341190000000  0.5346640000000 1.0
C      1  0.4181940000000  0.4621640000000  0.5790000000000 1.0
C      1  0.5383850000000  0.4238270000000  0.4087980000000 1.0
C      1  0.5183030000000  0.4004170000000  0.4498250000000 1.0
C      1  0.4785990000000  0.5835390000000  0.4442620000000 1.0
C      1  0.5703900000000  0.4418190000000  0.4830500000000 1.0
C      1  0.4700630000000  0.5278280000000  0.4439210000000 1.0
C      1  0.5772760000000  0.4594410000000  0.5432580000000 1.0
C      1  0.5489440000000  0.5288000000000  0.5736330000000 1.0
C      1  0.4438510000000  0.4841030000000  0.5417720000000 1.0
C      1  0.5289540000000  0.4850630000000  0.5888360000000 1.0
C      1  0.4673690000000  0.4933510000000  0.4061480000000 1.0
C      1  0.5303410000000  0.4056810000000  0.5124810000000 1.0
C      1  0.5263170000000  0.5374680000000  0.5923920000000 1.0
C      1  0.4749320000000  0.4730020000000  0.5852700000000 1.0
C      1  0.4087120000000  0.5285590000000  0.4983560000000 1.0
C      1  0.4601970000000  0.4156230000000  0.5613850000000 1.0
C      1  0.4629000000000  0.5907510000000  0.5339230000000 1.0
C      1  0.5569760000000  0.4650250000000  0.5693560000000 1.0
C      1  0.4402630000000  0.4829860000000  0.4164150000000 1.0
C      1  0.5279500000000  0.5065230000000  0.3885580000000 1.0
C      1  0.4481220000000  0.4535140000000  0.5266030000000 1.0
C      1  0.4524080000000  0.4925810000000  0.6016230000000 1.0
C      1  0.5949300000000  0.4879490000000  0.4488360000000 1.0
C      1  0.4065380000000  0.4948550000000  0.5327150000000 1.0
C      1  0.4648060000000  0.4893680000000  0.5162770000000 1.0
C      1  0.4185520000000  0.4791150000000  0.4626650000000 1.0
C      1  0.4923660000000  0.5800920000000  0.4813370000000 1.0
C      1  0.4526980000000  0.5412890000000  0.4179560000000 1.0
C      1  0.5523140000000  0.4718290000000  0.5065220000000 1.0
C      1  0.5288260000000  0.4736760000000  0.5310520000000 1.0
C      1  0.5980800000000  0.4809560000000  0.5051950000000 1.0
C      1  0.4872500000000  0.4225050000000  0.5705830000000 1.0
C      1  0.4552330000000  0.5366480000000  0.5667960000000 1.0
C      1  0.5153060000000  0.4750630000000  0.3911780000000 1.0
C      1  0.5705430000000  0.4391110000000  0.4497880000000 1.0
C      1  0.4070910000000  0.4763190000000  0.4897020000000 1.0
C      1  0.4210190000000  0.4544640000000  0.5059900000000 1.0
C      1  0.4134550000000  0.4736180000000  0.5538100000000 1.0
C      1  0.4789180000000  0.4597380000000  0.5135920000000 1.0
C      1  0.4788330000000  0.4677130000000  0.4345870000000 1.0
C      1  0.5521630000000  0.4244540000000  0.4331030000000 1.0
C      1  0.5726470000000  0.5120390000000  0.4578060000000 1.0
C      1  0.4915360000000  0.5821170000000  0.5445040000000 1.0
C      1  0.5474230000000  0.4811940000000  0.4008020000000 1.0
C      1  0.5210980000000  0.5320030000000  0.4100010000000 1.0
C      1  0.5339140000000  0.4272280000000  0.4604430000000 1.0
C      1  0.5195020000000  0.4375560000000  0.5173160000000 1.0
C      1  0.4742870000000  0.3917700000000  0.4893430000000 1.0
C      1  0.4698140000000  0.4127790000000  0.4708390000000 1.0
C      1  0.5675350000000  0.4039020000000  0.5263960000000 1.0
C      1  0.5078160000000  0.5393900000000  0.4487410000000 1.0
C      1  0.5177960000000  0.5055930000000  0.5641370000000 1.0
C      1  0.4847220000000  0.6079160000000  0.5142360000000 1.0
C      1  0.4318910000000  0.5057900000000  0.5944400000000 1.0
C      1  0.5033670000000  0.3853480000000  0.5074250000000 1.0
END
