TITL C-2847954-6904-379 7.56318295395243e-05 125000 -973.293857486225 0 0 188 (C1) n - 1
REM
REM in /home/bkarasulu/work/CARBON/AIRSS/Generating-Clusters/AIREBO/with-SteepDescent/Only-C1/SD-CG-opt/Try1-1.4A-POS3A/HFTN-CG
REM
REM
REM
REM
REM
REM ./C.cell (11c1c37f851c82e70ff6c80c92926a4b)
REM
REM compiler GCC version 9.2.1 20190827 (Red Hat 9.2.1-1)
REM options -cpp -mtune=generic -march=x86-64 -g -O0 -fpre-include=/usr/include/finclude/math-vector-fortran.h
REM seed -596410575 1873964435 -1646637218 -1085434654 1723696524 -498501460 -420415210 -912618191 -421500130 1443613244 -954526460 -1360036738 -1466633309 415390394 1727039115 707943917 345550751 -1839289768 1690479383 843965211 1857360085 784145779 -382715117 1094267894 1487132391 132759057 1836706891 -717075224 373192686 -1762401670 1202865142 -1934016421 385511891
REM
CELL 1.54180   50.00000   50.00000   50.00000   90.00000   90.00000   90.00000
LATT -1
SFAC C  
C      1  0.5120870000000  0.4931090000000  0.4385110000000 1.0
C      1  0.4744410000000  0.5540640000000  0.5459890000000 1.0
C      1  0.4131460000000  0.5329550000000  0.4364400000000 1.0
C      1  0.4125680000000  0.4566540000000  0.4496680000000 1.0
C      1  0.4958300000000  0.5369310000000  0.4226860000000 1.0
C      1  0.5504370000000  0.5268540000000  0.4081790000000 1.0
C      1  0.5812490000000  0.5673700000000  0.4819710000000 1.0
C      1  0.4792160000000  0.4191340000000  0.5477000000000 1.0
C      1  0.5504790000000  0.6027590000000  0.4552420000000 1.0
C      1  0.5409420000000  0.4234940000000  0.4340140000000 1.0
C      1  0.4808740000000  0.4510470000000  0.5488780000000 1.0
C      1  0.4264530000000  0.4172110000000  0.4831280000000 1.0
C      1  0.4048740000000  0.5325890000000  0.5497510000000 1.0
C      1  0.4146100000000  0.4002250000000  0.5069490000000 1.0
C      1  0.5083510000000  0.5120790000000  0.5553900000000 1.0
C      1  0.4966550000000  0.4390250000000  0.6101300000000 1.0
C      1  0.4879080000000  0.4350320000000  0.4169270000000 1.0
C      1  0.5631750000000  0.4440580000000  0.5600010000000 1.0
C      1  0.5176310000000  0.5390350000000  0.4999580000000 1.0
C      1  0.4823770000000  0.5229970000000  0.5380450000000 1.0
C      1  0.5145890000000  0.5122440000000  0.6032490000000 1.0
C      1  0.5873850000000  0.4666160000000  0.5631100000000 1.0
C      1  0.4652000000000  0.4860350000000  0.4391130000000 1.0
C      1  0.4301540000000  0.4545950000000  0.5827550000000 1.0
C      1  0.4776510000000  0.5743170000000  0.4734330000000 1.0
C      1  0.5750960000000  0.4661370000000  0.4284920000000 1.0
C      1  0.4988580000000  0.5210810000000  0.4527300000000 1.0
C      1  0.3960890000000  0.4856020000000  0.4517260000000 1.0
C      1  0.5608310000000  0.5040340000000  0.5012580000000 1.0
C      1  0.4825860000000  0.4350140000000  0.4761160000000 1.0
C      1  0.4018130000000  0.4545710000000  0.5140050000000 1.0
C      1  0.4513910000000  0.4875080000000  0.5566190000000 1.0
C      1  0.5792310000000  0.4368010000000  0.4695450000000 1.0
C      1  0.4387840000000  0.4888960000000  0.4093990000000 1.0
C      1  0.4183070000000  0.4857100000000  0.5489390000000 1.0
C      1  0.5357600000000  0.5945480000000  0.5438290000000 1.0
C      1  0.5092790000000  0.4114080000000  0.5484640000000 1.0
C      1  0.4795010000000  0.5592030000000  0.5850690000000 1.0
C      1  0.5366540000000  0.4280240000000  0.5116250000000 1.0
C      1  0.4415350000000  0.5845650000000  0.4553050000000 1.0
C      1  0.4564760000000  0.4250170000000  0.4955250000000 1.0
C      1  0.4214340000000  0.4068890000000  0.5323170000000 1.0
C      1  0.4888620000000  0.4063640000000  0.4611000000000 1.0
C      1  0.5727910000000  0.5321940000000  0.5364010000000 1.0
C      1  0.4638460000000  0.4653280000000  0.5096250000000 1.0
C      1  0.5734030000000  0.4101380000000  0.4880860000000 1.0
C      1  0.4231680000000  0.4709940000000  0.4849760000000 1.0
C      1  0.5987640000000  0.4425020000000  0.5421800000000 1.0
C      1  0.3970940000000  0.5011260000000  0.4817210000000 1.0
C      1  0.5714390000000  0.5123220000000  0.5903700000000 1.0
C      1  0.5478240000000  0.5866220000000  0.5141920000000 1.0
C      1  0.5460320000000  0.5288750000000  0.5156510000000 1.0
C      1  0.4607870000000  0.4607920000000  0.4785520000000 1.0
C      1  0.4461190000000  0.5005390000000  0.6026970000000 1.0
C      1  0.4350290000000  0.4357760000000  0.5383640000000 1.0
C      1  0.5509670000000  0.4199730000000  0.4609120000000 1.0
C      1  0.5022700000000  0.5971410000000  0.5385700000000 1.0
C      1  0.4863760000000  0.5169500000000  0.4004210000000 1.0
C      1  0.5449990000000  0.5813900000000  0.5653950000000 1.0
C      1  0.5863870000000  0.4756470000000  0.5242490000000 1.0
C      1  0.4906380000000  0.4469160000000  0.4452850000000 1.0
C      1  0.5942020000000  0.5175790000000  0.5667510000000 1.0
C      1  0.6113250000000  0.4977420000000  0.5182430000000 1.0
C      1  0.4506980000000  0.4535310000000  0.5580180000000 1.0
C      1  0.6100590000000  0.4760300000000  0.4921530000000 1.0
C      1  0.5429180000000  0.5812760000000  0.4338600000000 1.0
C      1  0.4838600000000  0.5673760000000  0.4226230000000 1.0
C      1  0.5559000000000  0.4566270000000  0.4758930000000 1.0
C      1  0.4132000000000  0.4760460000000  0.5787210000000 1.0
C      1  0.4432640000000  0.5398060000000  0.4743230000000 1.0
C      1  0.4493040000000  0.4113170000000  0.4586410000000 1.0
C      1  0.5185200000000  0.5693510000000  0.5148330000000 1.0
C      1  0.4093480000000  0.4408590000000  0.4774000000000 1.0
C      1  0.5421600000000  0.4660280000000  0.4563270000000 1.0
C      1  0.5966660000000  0.5424360000000  0.4910890000000 1.0
C      1  0.5821210000000  0.4919240000000  0.4152710000000 1.0
C      1  0.4823200000000  0.4745760000000  0.4614200000000 1.0
C      1  0.5278710000000  0.4192220000000  0.4815180000000 1.0
C      1  0.4262440000000  0.5016870000000  0.4992970000000 1.0
C      1  0.4517450000000  0.5010270000000  0.4742700000000 1.0
C      1  0.4138080000000  0.5524240000000  0.4851330000000 1.0
C      1  0.4266590000000  0.5590250000000  0.5224190000000 1.0
C      1  0.5808670000000  0.5890070000000  0.5057820000000 1.0
C      1  0.4309440000000  0.5585390000000  0.4498080000000 1.0
C      1  0.5169320000000  0.5465090000000  0.3986820000000 1.0
C      1  0.5247780000000  0.4332180000000  0.5628380000000 1.0
C      1  0.3924900000000  0.4807850000000  0.5085930000000 1.0
C      1  0.4530830000000  0.5225550000000  0.5001160000000 1.0
C      1  0.4741010000000  0.5431110000000  0.4603870000000 1.0
C      1  0.4573440000000  0.4301830000000  0.4310870000000 1.0
C      1  0.5436770000000  0.5549320000000  0.5708950000000 1.0
C      1  0.5511360000000  0.4857480000000  0.3862550000000 1.0
C      1  0.5547760000000  0.4393390000000  0.5884140000000 1.0
C      1  0.4864720000000  0.3952240000000  0.4993070000000 1.0
C      1  0.4389760000000  0.5923640000000  0.4826900000000 1.0
C      1  0.5416750000000  0.5710960000000  0.4779220000000 1.0
C      1  0.5374090000000  0.5043760000000  0.5713890000000 1.0
C      1  0.5125120000000  0.5426550000000  0.5697280000000 1.0
C      1  0.5167550000000  0.4515130000000  0.5882310000000 1.0
C      1  0.4664930000000  0.5825160000000  0.5628340000000 1.0
C      1  0.5168610000000  0.6232190000000  0.5241090000000 1.0
C      1  0.5565090000000  0.5559650000000  0.5023230000000 1.0
C      1  0.4357600000000  0.5695320000000  0.5534850000000 1.0
C      1  0.5430240000000  0.6041160000000  0.4848310000000 1.0
C      1  0.4596360000000  0.5167800000000  0.4461880000000 1.0
C      1  0.5887760000000  0.5176940000000  0.4646050000000 1.0
C      1  0.4896930000000  0.4720880000000  0.5888830000000 1.0
C      1  0.5660530000000  0.5367600000000  0.5674310000000 1.0
C      1  0.4584480000000  0.5129750000000  0.3997590000000 1.0
C      1  0.4664460000000  0.4078700000000  0.5195320000000 1.0
C      1  0.5160030000000  0.5570580000000  0.4507340000000 1.0
C      1  0.5901450000000  0.5103950000000  0.4962340000000 1.0
C      1  0.5128370000000  0.5994790000000  0.5000980000000 1.0
C      1  0.5113280000000  0.4484420000000  0.4883860000000 1.0
C      1  0.5363360000000  0.4167670000000  0.5902700000000 1.0
C      1  0.4935760000000  0.4506740000000  0.5173330000000 1.0
C      1  0.5431660000000  0.4659720000000  0.4256580000000 1.0
C      1  0.4430060000000  0.4850050000000  0.5237510000000 1.0
C      1  0.5158410000000  0.3936640000000  0.4876180000000 1.0
C      1  0.5143590000000  0.4755460000000  0.5286130000000 1.0
C      1  0.4711910000000  0.5945480000000  0.5308100000000 1.0
C      1  0.5062000000000  0.4979110000000  0.3958130000000 1.0
C      1  0.4494100000000  0.4029280000000  0.5475460000000 1.0
C      1  0.4667460000000  0.5962610000000  0.4970330000000 1.0
C      1  0.5053920000000  0.4706620000000  0.4138570000000 1.0
C      1  0.4427760000000  0.5294110000000  0.4238820000000 1.0
C      1  0.5076440000000  0.5596020000000  0.5988130000000 1.0
C      1  0.4527670000000  0.5209040000000  0.5512780000000 1.0
C      1  0.4582390000000  0.5653560000000  0.5209190000000 1.0
C      1  0.4038670000000  0.5312250000000  0.4674300000000 1.0
C      1  0.5275020000000  0.5063700000000  0.5306120000000 1.0
C      1  0.5440300000000  0.5607280000000  0.4067770000000 1.0
C      1  0.4891420000000  0.6144680000000  0.4816120000000 1.0
C      1  0.5055990000000  0.5644160000000  0.5444550000000 1.0
C      1  0.5981560000000  0.4831830000000  0.4681450000000 1.0
C      1  0.4144560000000  0.5275960000000  0.5179400000000 1.0
C      1  0.5148670000000  0.4746050000000  0.4669120000000 1.0
C      1  0.5811240000000  0.5218990000000  0.4130320000000 1.0
C      1  0.4434560000000  0.4447930000000  0.4574970000000 1.0
C      1  0.5094070000000  0.4883970000000  0.4975080000000 1.0
C      1  0.4855300000000  0.5037840000000  0.4788150000000 1.0
C      1  0.5180880000000  0.3832310000000  0.5547960000000 1.0
C      1  0.4613690000000  0.5519050000000  0.4089930000000 1.0
C      1  0.4920710000000  0.6091320000000  0.4530040000000 1.0
C      1  0.3667670000000  0.5091650000000  0.4857530000000 1.0
C      1  0.5364000000000  0.5419710000000  0.4331730000000 1.0
C      1  0.4681590000000  0.3870200000000  0.4718560000000 1.0
C      1  0.5390290000000  0.4573650000000  0.5434450000000 1.0
C      1  0.4578840000000  0.4613480000000  0.4169510000000 1.0
C      1  0.5092320000000  0.5864020000000  0.4349480000000 1.0
C      1  0.5578470000000  0.5291000000000  0.4562060000000 1.0
C      1  0.5959580000000  0.5408250000000  0.5214670000000 1.0
C      1  0.5581170000000  0.5009540000000  0.4378480000000 1.0
C      1  0.4709880000000  0.4973610000000  0.5826310000000 1.0
C      1  0.4194690000000  0.5782870000000  0.4973210000000 1.0
C      1  0.4134630000000  0.5024600000000  0.4276080000000 1.0
C      1  0.4866170000000  0.5258770000000  0.5046470000000 1.0
C      1  0.4337300000000  0.4803070000000  0.4421700000000 1.0
C      1  0.5048490000000  0.4185820000000  0.5171460000000 1.0
C      1  0.5573280000000  0.5043560000000  0.5451090000000 1.0
C      1  0.5618840000000  0.4821450000000  0.5795850000000 1.0
C      1  0.5090780000000  0.5783450000000  0.4739840000000 1.0
C      1  0.5357130000000  0.4965140000000  0.4126520000000 1.0
C      1  0.5626580000000  0.5627490000000  0.4549850000000 1.0
C      1  0.5430110000000  0.4664000000000  0.6009470000000 1.0
C      1  0.5879880000000  0.4618840000000  0.4526770000000 1.0
C      1  0.4964080000000  0.4801470000000  0.5571250000000 1.0
C      1  0.6111770000000  0.4543350000000  0.5166780000000 1.0
C      1  0.5937420000000  0.5324090000000  0.4352220000000 1.0
C      1  0.5408750000000  0.5254100000000  0.5973480000000 1.0
C      1  0.4345740000000  0.4481580000000  0.5074500000000 1.0
C      1  0.4746600000000  0.4550680000000  0.6142740000000 1.0
C      1  0.3999950000000  0.4989590000000  0.5292020000000 1.0
C      1  0.4808630000000  0.4583210000000  0.3938050000000 1.0
C      1  0.5189850000000  0.4865900000000  0.6119370000000 1.0
C      1  0.5770670000000  0.4224410000000  0.5380600000000 1.0
C      1  0.4881230000000  0.5263680000000  0.5872430000000 1.0
C      1  0.5410130000000  0.4581880000000  0.5018210000000 1.0
C      1  0.5553000000000  0.4788470000000  0.5227080000000 1.0
C      1  0.4217950000000  0.5022830000000  0.5880770000000 1.0
C      1  0.5212810000000  0.4412730000000  0.4195080000000 1.0
C      1  0.4750650000000  0.5556900000000  0.4991090000000 1.0
C      1  0.4701980000000  0.5876800000000  0.4431080000000 1.0
C      1  0.5641180000000  0.4154910000000  0.5147330000000 1.0
C      1  0.5991190000000  0.4940130000000  0.5498770000000 1.0
C      1  0.4526140000000  0.5463880000000  0.5709300000000 1.0
C      1  0.4226320000000  0.5210390000000  0.5670400000000 1.0
C      1  0.5260810000000  0.5315830000000  0.4702180000000 1.0
END
