TITL C-2848505-4874-211 0.00192830075473782 125000 -580.782710940559 0 0 106 (C1) n - 1
REM
REM in /home/bkarasulu/work/CARBON/AIRSS/Generating-Clusters/AIREBO/with-SteepDescent/Only-C1/SD-CG-opt/Try1-1.4A-POS3A/HFTN-CG
REM
REM
REM
REM
REM
REM ./C.cell (11c1c37f851c82e70ff6c80c92926a4b)
REM
REM compiler GCC version 9.2.1 20190827 (Red Hat 9.2.1-1)
REM options -cpp -mtune=generic -march=x86-64 -g -O0 -fpre-include=/usr/include/finclude/math-vector-fortran.h
REM seed -1592740472 -1280140109 561478685 -282529368 573310590 -484161317 -1932481609 413652859 831743581 1910606416 160364389 1001559826 958334029 808455661 2009307194 617556119 1084602389 -197634860 740667089 -499492716 2027924945 -1086546959 -754412235 -407000311 -2088095449 -1171417354 -12091163 957299541 961286278 -2074917220 -800124925 -129159576 92384443
REM
CELL 1.54180   50.00000   50.00000   50.00000   90.00000   90.00000   90.00000
LATT -1
SFAC C  
C      1  0.5719070000000  0.5154790000000  0.5425220000000 1.0
C      1  0.5202420000000  0.4914650000000  0.4139560000000 1.0
C      1  0.5218970000000  0.4970400000000  0.4474560000000 1.0
C      1  0.5828530000000  0.4610900000000  0.4358410000000 1.0
C      1  0.5426420000000  0.4617790000000  0.5645220000000 1.0
C      1  0.4737260000000  0.4135290000000  0.4690200000000 1.0
C      1  0.5253050000000  0.5848850000000  0.4986860000000 1.0
C      1  0.4568170000000  0.4298740000000  0.5248050000000 1.0
C      1  0.5138740000000  0.5789860000000  0.4519990000000 1.0
C      1  0.5322030000000  0.5674690000000  0.5195860000000 1.0
C      1  0.4677830000000  0.5367780000000  0.4852400000000 1.0
C      1  0.4481460000000  0.5483030000000  0.5541960000000 1.0
C      1  0.4945020000000  0.4492810000000  0.4934420000000 1.0
C      1  0.4633820000000  0.5446190000000  0.5153960000000 1.0
C      1  0.5233920000000  0.4613210000000  0.4159630000000 1.0
C      1  0.4491210000000  0.5471410000000  0.4597740000000 1.0
C      1  0.5015290000000  0.4703070000000  0.4422470000000 1.0
C      1  0.5388430000000  0.5223910000000  0.5423120000000 1.0
C      1  0.5304130000000  0.4935530000000  0.5294980000000 1.0
C      1  0.4619970000000  0.5723570000000  0.4496220000000 1.0
C      1  0.5424590000000  0.5441130000000  0.4140650000000 1.0
C      1  0.4527230000000  0.4433810000000  0.5495590000000 1.0
C      1  0.5572630000000  0.5296790000000  0.5699500000000 1.0
C      1  0.5098390000000  0.4728240000000  0.5125900000000 1.0
C      1  0.4284580000000  0.5426950000000  0.4864090000000 1.0
C      1  0.5050240000000  0.4490210000000  0.5691140000000 1.0
C      1  0.5590050000000  0.5392190000000  0.4377660000000 1.0
C      1  0.5268450000000  0.4828000000000  0.4778490000000 1.0
C      1  0.4990490000000  0.5063800000000  0.5750250000000 1.0
C      1  0.4734500000000  0.4778670000000  0.4376440000000 1.0
C      1  0.5466500000000  0.5429520000000  0.5163810000000 1.0
C      1  0.5673940000000  0.4763000000000  0.5131250000000 1.0
C      1  0.5450270000000  0.4186680000000  0.5341720000000 1.0
C      1  0.4990920000000  0.5514980000000  0.4379970000000 1.0
C      1  0.4970530000000  0.5190570000000  0.4480030000000 1.0
C      1  0.5495830000000  0.5149370000000  0.4525160000000 1.0
C      1  0.5095320000000  0.5340790000000  0.5450150000000 1.0
C      1  0.4492960000000  0.5265450000000  0.5709880000000 1.0
C      1  0.5333400000000  0.5240100000000  0.4792440000000 1.0
C      1  0.4911970000000  0.5487920000000  0.5677310000000 1.0
C      1  0.5174720000000  0.4073630000000  0.4915550000000 1.0
C      1  0.4907000000000  0.5525390000000  0.4709340000000 1.0
C      1  0.5285700000000  0.4720110000000  0.5917640000000 1.0
C      1  0.5389030000000  0.5338890000000  0.5910980000000 1.0
C      1  0.4801620000000  0.5169490000000  0.5207100000000 1.0
C      1  0.4463280000000  0.5238800000000  0.4365990000000 1.0
C      1  0.4401080000000  0.4670610000000  0.5703970000000 1.0
C      1  0.4753530000000  0.4694140000000  0.5520870000000 1.0
C      1  0.5827800000000  0.5040340000000  0.5198630000000 1.0
C      1  0.4607380000000  0.4474610000000  0.4971150000000 1.0
C      1  0.5021840000000  0.4175460000000  0.4704270000000 1.0
C      1  0.5369920000000  0.5718670000000  0.4724200000000 1.0
C      1  0.5232030000000  0.4883520000000  0.5615170000000 1.0
C      1  0.5838090000000  0.5215250000000  0.4955900000000 1.0
C      1  0.5464420000000  0.5108170000000  0.5049220000000 1.0
C      1  0.4625890000000  0.4736780000000  0.5939820000000 1.0
C      1  0.5110870000000  0.5332520000000  0.5848680000000 1.0
C      1  0.5299290000000  0.4353440000000  0.5508970000000 1.0
C      1  0.5865440000000  0.5453490000000  0.4816250000000 1.0
C      1  0.5164490000000  0.5482590000000  0.4857190000000 1.0
C      1  0.5641300000000  0.4380850000000  0.4867770000000 1.0
C      1  0.4876820000000  0.4274180000000  0.5185830000000 1.0
C      1  0.4336910000000  0.5128110000000  0.4727720000000 1.0
C      1  0.4494690000000  0.4892110000000  0.5138120000000 1.0
C      1  0.5007180000000  0.4001110000000  0.5127340000000 1.0
C      1  0.5918990000000  0.5509460000000  0.4499870000000 1.0
C      1  0.5619770000000  0.5608470000000  0.4626390000000 1.0
C      1  0.5660460000000  0.5024250000000  0.4783710000000 1.0
C      1  0.4139670000000  0.4929430000000  0.5315400000000 1.0
C      1  0.5404630000000  0.4237790000000  0.5023570000000 1.0
C      1  0.5586320000000  0.4709810000000  0.4807010000000 1.0
C      1  0.5044160000000  0.4479210000000  0.5351880000000 1.0
C      1  0.4330320000000  0.5468750000000  0.5269960000000 1.0
C      1  0.4848010000000  0.5852770000000  0.4684760000000 1.0
C      1  0.4119510000000  0.4748630000000  0.5108470000000 1.0
C      1  0.5395490000000  0.4562470000000  0.5124750000000 1.0
C      1  0.4536480000000  0.4544050000000  0.4445560000000 1.0
C      1  0.4407380000000  0.4884050000000  0.5466870000000 1.0
C      1  0.5103130000000  0.5272070000000  0.5117050000000 1.0
C      1  0.4339130000000  0.5141560000000  0.5041730000000 1.0
C      1  0.4664510000000  0.4971320000000  0.5696580000000 1.0
C      1  0.4737040000000  0.5099190000000  0.4259960000000 1.0
C      1  0.4605320000000  0.4274390000000  0.4477950000000 1.0
C      1  0.5154120000000  0.5391000000000  0.4135100000000 1.0
C      1  0.4599700000000  0.4959940000000  0.4611000000000 1.0
C      1  0.5598260000000  0.4592780000000  0.5395520000000 1.0
C      1  0.4719060000000  0.5624930000000  0.5532110000000 1.0
C      1  0.4802900000000  0.4840250000000  0.5251800000000 1.0
C      1  0.4375700000000  0.4668140000000  0.4910320000000 1.0
C      1  0.4827190000000  0.5112180000000  0.4747550000000 1.0
C      1  0.4957680000000  0.5881700000000  0.4982660000000 1.0
C      1  0.4729110000000  0.4453970000000  0.5760400000000 1.0
C      1  0.5352160000000  0.4496950000000  0.4417450000000 1.0
C      1  0.4814420000000  0.5721070000000  0.5228430000000 1.0
C      1  0.5044220000000  0.5005040000000  0.4935950000000 1.0
C      1  0.4733180000000  0.5677950000000  0.4229610000000 1.0
C      1  0.5090620000000  0.4470170000000  0.4633080000000 1.0
C      1  0.4953970000000  0.4760310000000  0.5874140000000 1.0
C      1  0.4586540000000  0.4136020000000  0.4948200000000 1.0
C      1  0.4328180000000  0.4669420000000  0.4603350000000 1.0
C      1  0.4108830000000  0.5223930000000  0.5266620000000 1.0
C      1  0.4172260000000  0.5649160000000  0.5032710000000 1.0
C      1  0.5027380000000  0.5139760000000  0.4086850000000 1.0
C      1  0.5096550000000  0.5639170000000  0.5357650000000 1.0
C      1  0.4284310000000  0.4964690000000  0.4459190000000 1.0
C      1  0.5594480000000  0.4596930000000  0.4498910000000 1.0
END
