TITL C-2847947-6848-429 -5.20041552920089e-05 125000 -854.606685717722 0 0 160 (C1) n - 1
REM
REM in /home/bkarasulu/work/CARBON/AIRSS/Generating-Clusters/AIREBO/with-SteepDescent/Only-C1/SD-CG-opt/Try1-1.4A-POS3A/HFTN-CG
REM
REM
REM
REM
REM
REM ./C.cell (11c1c37f851c82e70ff6c80c92926a4b)
REM
REM compiler GCC version 9.2.1 20190827 (Red Hat 9.2.1-1)
REM options -cpp -mtune=generic -march=x86-64 -g -O0 -fpre-include=/usr/include/finclude/math-vector-fortran.h
REM seed 453007225 -554667922 -1935801305 -1590044705 -474033757 843746634 417661691 -2019591402 -495780745 771806614 1973818020 1229708317 -1488345405 1309118424 -2067251029 574953574 -756906889 -1813575321 1206970363 -1072660762 -1716764955 1740804783 843658187 1148302764 -397197798 -1841012747 -1656140405 -239753666 -1121331 -1394803805 -692302106 672427272 1422975413
REM
CELL 1.54180   50.00000   50.00000   50.00000   90.00000   90.00000   90.00000
LATT -1
SFAC C  
C      1  0.4809090000000  0.6025180000000  0.4786400000000 1.0
C      1  0.5967050000000  0.5241460000000  0.4782270000000 1.0
C      1  0.4462210000000  0.4597840000000  0.4916180000000 1.0
C      1  0.4404290000000  0.4932580000000  0.4930970000000 1.0
C      1  0.4741510000000  0.5348280000000  0.4344050000000 1.0
C      1  0.5356920000000  0.5703150000000  0.4721950000000 1.0
C      1  0.5809970000000  0.4326220000000  0.5256650000000 1.0
C      1  0.5279540000000  0.4944720000000  0.5925780000000 1.0
C      1  0.5040240000000  0.5000320000000  0.3976640000000 1.0
C      1  0.4822550000000  0.5140720000000  0.5475770000000 1.0
C      1  0.5620900000000  0.4133410000000  0.4779400000000 1.0
C      1  0.4315930000000  0.5022910000000  0.4069290000000 1.0
C      1  0.4847310000000  0.4831490000000  0.4422380000000 1.0
C      1  0.4708470000000  0.5697540000000  0.5723270000000 1.0
C      1  0.5313770000000  0.4877000000000  0.5020590000000 1.0
C      1  0.4133920000000  0.4777320000000  0.5057010000000 1.0
C      1  0.4511550000000  0.4747240000000  0.5381150000000 1.0
C      1  0.4791830000000  0.3969140000000  0.4704400000000 1.0
C      1  0.5090890000000  0.3908430000000  0.5374020000000 1.0
C      1  0.4616260000000  0.4688430000000  0.4626920000000 1.0
C      1  0.4815720000000  0.5504270000000  0.5203940000000 1.0
C      1  0.4246380000000  0.4542790000000  0.4584520000000 1.0
C      1  0.4443780000000  0.5455260000000  0.4469190000000 1.0
C      1  0.5181940000000  0.5813170000000  0.5646600000000 1.0
C      1  0.4161040000000  0.5037420000000  0.4604070000000 1.0
C      1  0.4947230000000  0.4450700000000  0.4667240000000 1.0
C      1  0.5116480000000  0.4379400000000  0.4313500000000 1.0
C      1  0.5131920000000  0.4693980000000  0.4350640000000 1.0
C      1  0.4854340000000  0.3954140000000  0.5564000000000 1.0
C      1  0.5609720000000  0.4636270000000  0.5718070000000 1.0
C      1  0.4914390000000  0.4819000000000  0.5011550000000 1.0
C      1  0.5205200000000  0.4269510000000  0.4612340000000 1.0
C      1  0.5849300000000  0.4931750000000  0.5086080000000 1.0
C      1  0.4441510000000  0.4672020000000  0.4340540000000 1.0
C      1  0.4840950000000  0.5644980000000  0.4477250000000 1.0
C      1  0.4602510000000  0.5025330000000  0.4670670000000 1.0
C      1  0.4622990000000  0.5704900000000  0.5394130000000 1.0
C      1  0.4199880000000  0.5520730000000  0.4952040000000 1.0
C      1  0.5493800000000  0.4650180000000  0.4655940000000 1.0
C      1  0.5336310000000  0.5094170000000  0.5546610000000 1.0
C      1  0.4995090000000  0.5068710000000  0.6065340000000 1.0
C      1  0.4632500000000  0.4175220000000  0.5465560000000 1.0
C      1  0.5311950000000  0.4000420000000  0.4776100000000 1.0
C      1  0.4522990000000  0.5594890000000  0.4926380000000 1.0
C      1  0.5280660000000  0.4174860000000  0.5307290000000 1.0
C      1  0.4888910000000  0.5198880000000  0.4611710000000 1.0
C      1  0.4668100000000  0.5874120000000  0.4315580000000 1.0
C      1  0.4649150000000  0.4968660000000  0.5162790000000 1.0
C      1  0.5367600000000  0.5078140000000  0.4029500000000 1.0
C      1  0.5289910000000  0.6018210000000  0.4844220000000 1.0
C      1  0.5305240000000  0.5421210000000  0.4359840000000 1.0
C      1  0.6105440000000  0.5440200000000  0.4989450000000 1.0
C      1  0.5149860000000  0.5498230000000  0.4070370000000 1.0
C      1  0.5885530000000  0.4667760000000  0.4709940000000 1.0
C      1  0.4202850000000  0.4634810000000  0.5647840000000 1.0
C      1  0.5258070000000  0.4401810000000  0.5543120000000 1.0
C      1  0.4911940000000  0.5852050000000  0.5496710000000 1.0
C      1  0.4108010000000  0.4751070000000  0.4734190000000 1.0
C      1  0.5271390000000  0.5729780000000  0.5950220000000 1.0
C      1  0.4816270000000  0.4631870000000  0.5401730000000 1.0
C      1  0.4997170000000  0.4759650000000  0.4719000000000 1.0
C      1  0.5150570000000  0.5156140000000  0.4456070000000 1.0
C      1  0.4180110000000  0.5311460000000  0.4403320000000 1.0
C      1  0.4826480000000  0.5456620000000  0.5843980000000 1.0
C      1  0.5622080000000  0.5757430000000  0.4515730000000 1.0
C      1  0.5685210000000  0.5539190000000  0.4321440000000 1.0
C      1  0.4436150000000  0.5465890000000  0.5547950000000 1.0
C      1  0.5754150000000  0.4977030000000  0.4762530000000 1.0
C      1  0.4177730000000  0.4812320000000  0.5371740000000 1.0
C      1  0.5777330000000  0.5309940000000  0.4543070000000 1.0
C      1  0.5591940000000  0.5332010000000  0.5167310000000 1.0
C      1  0.4966430000000  0.4385010000000  0.5936690000000 1.0
C      1  0.5257600000000  0.4768150000000  0.4071470000000 1.0
C      1  0.4121000000000  0.5085620000000  0.5491220000000 1.0
C      1  0.4528360000000  0.5021560000000  0.5817620000000 1.0
C      1  0.4698060000000  0.4268710000000  0.4700500000000 1.0
C      1  0.5068270000000  0.5352420000000  0.5373540000000 1.0
C      1  0.5401910000000  0.4663630000000  0.5904830000000 1.0
C      1  0.4498210000000  0.4136700000000  0.5175970000000 1.0
C      1  0.4473730000000  0.4433740000000  0.5441530000000 1.0
C      1  0.5130440000000  0.5570110000000  0.4938080000000 1.0
C      1  0.5562080000000  0.5028730000000  0.5171690000000 1.0
C      1  0.5526630000000  0.5141410000000  0.5893630000000 1.0
C      1  0.5596580000000  0.4583350000000  0.4973280000000 1.0
C      1  0.5583600000000  0.4318320000000  0.5490760000000 1.0
C      1  0.4895860000000  0.5473550000000  0.4068160000000 1.0
C      1  0.4279940000000  0.5175240000000  0.5135670000000 1.0
C      1  0.4534480000000  0.5331880000000  0.4740720000000 1.0
C      1  0.4657880000000  0.4362010000000  0.4992510000000 1.0
C      1  0.4479560000000  0.5863930000000  0.5129770000000 1.0
C      1  0.5047610000000  0.5949490000000  0.4663500000000 1.0
C      1  0.5406550000000  0.5891820000000  0.5468800000000 1.0
C      1  0.5307570000000  0.5942750000000  0.5158620000000 1.0
C      1  0.4225230000000  0.5669870000000  0.5415940000000 1.0
C      1  0.5799970000000  0.4776260000000  0.4282990000000 1.0
C      1  0.4860720000000  0.6052180000000  0.5056500000000 1.0
C      1  0.4729580000000  0.5262760000000  0.5008900000000 1.0
C      1  0.4906190000000  0.4440580000000  0.5167980000000 1.0
C      1  0.5038970000000  0.3887660000000  0.4624530000000 1.0
C      1  0.4147300000000  0.5248230000000  0.4136980000000 1.0
C      1  0.5777350000000  0.5454500000000  0.4960840000000 1.0
C      1  0.5857510000000  0.4584360000000  0.5491050000000 1.0
C      1  0.5205990000000  0.3972730000000  0.5055360000000 1.0
C      1  0.4529120000000  0.5226510000000  0.5349240000000 1.0
C      1  0.5216570000000  0.4455620000000  0.5844970000000 1.0
C      1  0.4772790000000  0.5205420000000  0.5966690000000 1.0
C      1  0.5400350000000  0.4480540000000  0.4155260000000 1.0
C      1  0.4412390000000  0.4987380000000  0.4389990000000 1.0
C      1  0.5103520000000  0.5484520000000  0.5685330000000 1.0
C      1  0.4800250000000  0.5044540000000  0.4201860000000 1.0
C      1  0.5735900000000  0.5019120000000  0.4415200000000 1.0
C      1  0.4767430000000  0.4822750000000  0.5678860000000 1.0
C      1  0.5617210000000  0.4536950000000  0.4358820000000 1.0
C      1  0.4085520000000  0.5536720000000  0.5207550000000 1.0
C      1  0.4278680000000  0.4380750000000  0.5104430000000 1.0
C      1  0.4154380000000  0.5248030000000  0.4828180000000 1.0
C      1  0.4463400000000  0.4319440000000  0.4523400000000 1.0
C      1  0.3994650000000  0.5267450000000  0.5296220000000 1.0
C      1  0.4833090000000  0.5626360000000  0.4790440000000 1.0
C      1  0.5379500000000  0.5429080000000  0.5877160000000 1.0
C      1  0.5123380000000  0.4652050000000  0.5428550000000 1.0
C      1  0.4417260000000  0.4701530000000  0.5822600000000 1.0
C      1  0.5902080000000  0.5079060000000  0.5390400000000 1.0
C      1  0.5743540000000  0.5059170000000  0.5690990000000 1.0
C      1  0.5015950000000  0.5121770000000  0.5126190000000 1.0
C      1  0.4915620000000  0.4109070000000  0.5161550000000 1.0
C      1  0.5554330000000  0.5235180000000  0.4222040000000 1.0
C      1  0.4609760000000  0.4576030000000  0.4083550000000 1.0
C      1  0.5880370000000  0.4633200000000  0.5155300000000 1.0
C      1  0.5486220000000  0.5397550000000  0.4637360000000 1.0
C      1  0.5149760000000  0.5709100000000  0.4452410000000 1.0
C      1  0.5707130000000  0.4385650000000  0.4644330000000 1.0
C      1  0.5334590000000  0.4379190000000  0.4900530000000 1.0
C      1  0.5439660000000  0.5102060000000  0.4798970000000 1.0
C      1  0.5509970000000  0.4585910000000  0.5294230000000 1.0
C      1  0.4750520000000  0.4193470000000  0.5776880000000 1.0
C      1  0.5757340000000  0.5358290000000  0.5431440000000 1.0
C      1  0.4462450000000  0.5767400000000  0.4509940000000 1.0
C      1  0.5631420000000  0.5656460000000  0.5461160000000 1.0
C      1  0.5157950000000  0.4583090000000  0.5036770000000 1.0
C      1  0.5207840000000  0.4918990000000  0.5320400000000 1.0
C      1  0.4580720000000  0.4893940000000  0.4039410000000 1.0
C      1  0.4525180000000  0.5906920000000  0.4791340000000 1.0
C      1  0.4699910000000  0.3965160000000  0.4982880000000 1.0
C      1  0.5574900000000  0.4864790000000  0.5468690000000 1.0
C      1  0.5551470000000  0.5729080000000  0.5143510000000 1.0
C      1  0.5549110000000  0.4207650000000  0.5101130000000 1.0
C      1  0.5468970000000  0.5372680000000  0.5573890000000 1.0
C      1  0.4684490000000  0.6024140000000  0.4094250000000 1.0
C      1  0.5324720000000  0.5485180000000  0.5196900000000 1.0
C      1  0.4537640000000  0.4293800000000  0.4254480000000 1.0
C      1  0.5133470000000  0.5243010000000  0.4844780000000 1.0
C      1  0.4848840000000  0.4344720000000  0.4162280000000 1.0
C      1  0.5007610000000  0.5783340000000  0.5173370000000 1.0
C      1  0.4687540000000  0.4525210000000  0.5818070000000 1.0
C      1  0.5285370000000  0.4890260000000  0.4582010000000 1.0
C      1  0.5050140000000  0.4990780000000  0.5679060000000 1.0
C      1  0.4310000000000  0.5197570000000  0.5678670000000 1.0
C      1  0.5669780000000  0.5722090000000  0.4854260000000 1.0
C      1  0.4157120000000  0.4415090000000  0.5398140000000 1.0
END
