TITL C-2848502-4955-51 0.000158554008886221 125000 -751.822433335669 0 0 136 (C1) n - 1
REM
REM in /home/bkarasulu/work/CARBON/AIRSS/Generating-Clusters/AIREBO/with-SteepDescent/Only-C1/SD-CG-opt/Try1-1.4A-POS3A/HFTN-CG
REM
REM
REM
REM
REM
REM ./C.cell (11c1c37f851c82e70ff6c80c92926a4b)
REM
REM compiler GCC version 9.2.1 20190827 (Red Hat 9.2.1-1)
REM options -cpp -mtune=generic -march=x86-64 -g -O0 -fpre-include=/usr/include/finclude/math-vector-fortran.h
REM seed -1384174917 -1682725531 1014015476 -634824780 -668841308 1744998623 -1376975483 1925495280 1307289995 1716285031 879866959 1325637029 -1450449346 -678247090 1329961864 1257623171 1150587131 -2095714705 -2013338409 1598159636 -1969033925 1296473480 722164922 1316026466 16400932 -559779220 -631198213 -599564666 189885875 -305648273 1768500986 530197924 -2071504075
REM
CELL 1.54180   50.00000   50.00000   50.00000   90.00000   90.00000   90.00000
LATT -1
SFAC C  
C      1  0.5003610000000  0.5691660000000  0.4688420000000 1.0
C      1  0.4342470000000  0.4652080000000  0.5524610000000 1.0
C      1  0.5423180000000  0.5806360000000  0.5185240000000 1.0
C      1  0.3947040000000  0.5219540000000  0.4966500000000 1.0
C      1  0.4105240000000  0.5373390000000  0.4747450000000 1.0
C      1  0.4997350000000  0.4998550000000  0.5644150000000 1.0
C      1  0.4585760000000  0.5451070000000  0.4841460000000 1.0
C      1  0.5011160000000  0.4499110000000  0.4972360000000 1.0
C      1  0.4401750000000  0.5418890000000  0.5574170000000 1.0
C      1  0.4521670000000  0.5001700000000  0.3994170000000 1.0
C      1  0.4377450000000  0.5289120000000  0.5280090000000 1.0
C      1  0.4479740000000  0.4893280000000  0.4940300000000 1.0
C      1  0.5421400000000  0.5566680000000  0.4414570000000 1.0
C      1  0.6134510000000  0.4560940000000  0.5406850000000 1.0
C      1  0.4662750000000  0.5108540000000  0.5234680000000 1.0
C      1  0.5832080000000  0.4713570000000  0.4797170000000 1.0
C      1  0.5421830000000  0.4777180000000  0.4993940000000 1.0
C      1  0.4713370000000  0.4313770000000  0.4550640000000 1.0
C      1  0.4354090000000  0.5625590000000  0.5236250000000 1.0
C      1  0.5014210000000  0.4794250000000  0.4412900000000 1.0
C      1  0.5048950000000  0.5368170000000  0.4773180000000 1.0
C      1  0.5852820000000  0.4625040000000  0.5315730000000 1.0
C      1  0.4870820000000  0.5096210000000  0.4349530000000 1.0
C      1  0.5202780000000  0.4883140000000  0.4679000000000 1.0
C      1  0.4245150000000  0.5357960000000  0.4502170000000 1.0
C      1  0.5118010000000  0.4623420000000  0.5709170000000 1.0
C      1  0.5565620000000  0.4307990000000  0.5623080000000 1.0
C      1  0.4910340000000  0.5564510000000  0.5091960000000 1.0
C      1  0.5605870000000  0.4181040000000  0.4844260000000 1.0
C      1  0.5261040000000  0.5325310000000  0.4545200000000 1.0
C      1  0.4662810000000  0.4766810000000  0.5197550000000 1.0
C      1  0.4340530000000  0.5285420000000  0.4960700000000 1.0
C      1  0.5571030000000  0.4686600000000  0.4496270000000 1.0
C      1  0.5771040000000  0.4403060000000  0.4701550000000 1.0
C      1  0.4425910000000  0.4181130000000  0.5118320000000 1.0
C      1  0.4686890000000  0.5627670000000  0.4293290000000 1.0
C      1  0.4764220000000  0.5248290000000  0.4634420000000 1.0
C      1  0.4674110000000  0.4942960000000  0.4691690000000 1.0
C      1  0.5087590000000  0.4055820000000  0.5436650000000 1.0
C      1  0.5900410000000  0.5367660000000  0.5172790000000 1.0
C      1  0.5802820000000  0.4926500000000  0.4565550000000 1.0
C      1  0.5512440000000  0.4304500000000  0.5125050000000 1.0
C      1  0.5441420000000  0.5018520000000  0.5738160000000 1.0
C      1  0.5051830000000  0.5218170000000  0.5336200000000 1.0
C      1  0.5310890000000  0.4645660000000  0.5455720000000 1.0
C      1  0.4849980000000  0.5567460000000  0.5886730000000 1.0
C      1  0.4424880000000  0.4572830000000  0.4928580000000 1.0
C      1  0.5087510000000  0.5395580000000  0.5953110000000 1.0
C      1  0.4681730000000  0.4425500000000  0.4931790000000 1.0
C      1  0.4081330000000  0.4822660000000  0.4647220000000 1.0
C      1  0.4120070000000  0.5109020000000  0.5410180000000 1.0
C      1  0.5229460000000  0.5865220000000  0.4840730000000 1.0
C      1  0.4691650000000  0.5205870000000  0.4082180000000 1.0
C      1  0.5730590000000  0.5197670000000  0.5392990000000 1.0
C      1  0.5237000000000  0.4347490000000  0.4768350000000 1.0
C      1  0.5814330000000  0.4879440000000  0.5093460000000 1.0
C      1  0.4536350000000  0.4780440000000  0.4166600000000 1.0
C      1  0.5225300000000  0.4818070000000  0.5908570000000 1.0
C      1  0.5073740000000  0.4113740000000  0.4890410000000 1.0
C      1  0.4762260000000  0.4474280000000  0.5339450000000 1.0
C      1  0.5500930000000  0.5765080000000  0.4662160000000 1.0
C      1  0.5208400000000  0.5859660000000  0.5396780000000 1.0
C      1  0.4626810000000  0.5705560000000  0.5064440000000 1.0
C      1  0.4684130000000  0.4022690000000  0.5157240000000 1.0
C      1  0.4849260000000  0.4496850000000  0.4399480000000 1.0
C      1  0.4176800000000  0.5001020000000  0.4870850000000 1.0
C      1  0.5439940000000  0.4955950000000  0.4154250000000 1.0
C      1  0.4986730000000  0.4777050000000  0.4008110000000 1.0
C      1  0.5633500000000  0.4604060000000  0.5543890000000 1.0
C      1  0.5881740000000  0.5029570000000  0.5603320000000 1.0
C      1  0.5583550000000  0.5342170000000  0.5052090000000 1.0
C      1  0.4338880000000  0.4973610000000  0.5635150000000 1.0
C      1  0.3924200000000  0.4447360000000  0.5115660000000 1.0
C      1  0.4946010000000  0.5684360000000  0.4370940000000 1.0
C      1  0.5183520000000  0.5016090000000  0.4991460000000 1.0
C      1  0.5308340000000  0.5329700000000  0.4989900000000 1.0
C      1  0.4437590000000  0.4456330000000  0.5310940000000 1.0
C      1  0.3976460000000  0.4951960000000  0.4409600000000 1.0
C      1  0.5601000000000  0.5498880000000  0.5476460000000 1.0
C      1  0.4518500000000  0.5805530000000  0.5435060000000 1.0
C      1  0.4877690000000  0.4496690000000  0.5647650000000 1.0
C      1  0.5760350000000  0.4490060000000  0.5043940000000 1.0
C      1  0.4955610000000  0.5419450000000  0.5534640000000 1.0
C      1  0.5470340000000  0.4548190000000  0.4766110000000 1.0
C      1  0.5143740000000  0.5009270000000  0.4061000000000 1.0
C      1  0.5855390000000  0.5437290000000  0.4599920000000 1.0
C      1  0.4788310000000  0.4027680000000  0.5480850000000 1.0
C      1  0.4688580000000  0.5788620000000  0.4657730000000 1.0
C      1  0.4492640000000  0.5122270000000  0.5825800000000 1.0
C      1  0.5696160000000  0.4849550000000  0.5715390000000 1.0
C      1  0.4800750000000  0.5712990000000  0.5582740000000 1.0
C      1  0.4696380000000  0.4118480000000  0.4830590000000 1.0
C      1  0.5080440000000  0.5993800000000  0.5121360000000 1.0
C      1  0.4428940000000  0.4330540000000  0.4610760000000 1.0
C      1  0.4773290000000  0.4633150000000  0.4139800000000 1.0
C      1  0.5297370000000  0.4701020000000  0.4294760000000 1.0
C      1  0.5922390000000  0.5182880000000  0.4710830000000 1.0
C      1  0.5642000000000  0.5102480000000  0.4352190000000 1.0
C      1  0.5194020000000  0.5657020000000  0.5583580000000 1.0
C      1  0.5075170000000  0.5286930000000  0.4156350000000 1.0
C      1  0.4806560000000  0.5889300000000  0.5288410000000 1.0
C      1  0.5962450000000  0.5132390000000  0.4983020000000 1.0
C      1  0.4875850000000  0.5270650000000  0.5049160000000 1.0
C      1  0.5525660000000  0.5317300000000  0.5720770000000 1.0
C      1  0.4066570000000  0.4789970000000  0.5470950000000 1.0
C      1  0.5067620000000  0.5105750000000  0.5928510000000 1.0
C      1  0.4713230000000  0.4239560000000  0.5659320000000 1.0
C      1  0.4928840000000  0.4774740000000  0.4801480000000 1.0
C      1  0.5691170000000  0.5402090000000  0.4370770000000 1.0
C      1  0.3894960000000  0.5226560000000  0.5229590000000 1.0
C      1  0.5656540000000  0.5674120000000  0.5262760000000 1.0
C      1  0.5309760000000  0.5500320000000  0.5803870000000 1.0
C      1  0.5839740000000  0.5648810000000  0.5034460000000 1.0
C      1  0.4948270000000  0.4924370000000  0.5219710000000 1.0
C      1  0.4357650000000  0.4148620000000  0.4827830000000 1.0
C      1  0.5272590000000  0.4983330000000  0.5445050000000 1.0
C      1  0.5288960000000  0.4529610000000  0.5166220000000 1.0
C      1  0.5569340000000  0.4136430000000  0.5359000000000 1.0
C      1  0.4947300000000  0.4236630000000  0.5181200000000 1.0
C      1  0.5149450000000  0.5546510000000  0.4234170000000 1.0
C      1  0.5616060000000  0.4465250000000  0.4259050000000 1.0
C      1  0.4081260000000  0.5741800000000  0.5175790000000 1.0
C      1  0.5192620000000  0.5618600000000  0.5049130000000 1.0
C      1  0.4492630000000  0.5543050000000  0.4527640000000 1.0
C      1  0.4176520000000  0.4486430000000  0.5108250000000 1.0
C      1  0.4474730000000  0.5080670000000  0.6084620000000 1.0
C      1  0.4310930000000  0.4615440000000  0.4619750000000 1.0
C      1  0.5378040000000  0.4418860000000  0.4121670000000 1.0
C      1  0.5330540000000  0.4084230000000  0.5546880000000 1.0
C      1  0.5526690000000  0.4993300000000  0.5234580000000 1.0
C      1  0.4454640000000  0.4857170000000  0.4452680000000 1.0
C      1  0.4668170000000  0.5361410000000  0.5713560000000 1.0
C      1  0.5342680000000  0.5056590000000  0.4469660000000 1.0
C      1  0.4659520000000  0.5479830000000  0.4059260000000 1.0
C      1  0.4243680000000  0.5095600000000  0.4404860000000 1.0
C      1  0.5750750000000  0.5650730000000  0.4769150000000 1.0
END
