TITL C-2847946-5639-136 -0.000713301094024917 125000 -362.378064473555 0 0 66 (C1) n - 1
REM
REM in /home/bkarasulu/work/CARBON/AIRSS/Generating-Clusters/AIREBO/with-SteepDescent/Only-C1/SD-CG-opt/Try1-1.4A-POS3A/HFTN-CG
REM
REM
REM
REM
REM
REM ./C.cell (11c1c37f851c82e70ff6c80c92926a4b)
REM
REM compiler GCC version 9.2.1 20190827 (Red Hat 9.2.1-1)
REM options -cpp -mtune=generic -march=x86-64 -g -O0 -fpre-include=/usr/include/finclude/math-vector-fortran.h
REM seed 2030143145 -1804016552 -175724150 250240226 -1598250860 -896025570 1140871251 -1114254521 -2025871824 1270851289 -1786699886 -539076031 437505316 324185712 -1261891956 -647813982 -48340114 -1399094629 -1366900987 89676269 1643700164 -1930055629 -725599915 -402216084 1872132020 -1780005477 -377893171 37246360 1859271413 1237093867 -1736781886 735606142 -320911925
REM
CELL 1.54180   50.00000   50.00000   50.00000   90.00000   90.00000   90.00000
LATT -1
SFAC C  
C      1  0.4606650000000  0.4716770000000  0.5495090000000 1.0
C      1  0.5104650000000  0.4151720000000  0.5039990000000 1.0
C      1  0.4330070000000  0.4770180000000  0.4912550000000 1.0
C      1  0.5242840000000  0.4873420000000  0.4233590000000 1.0
C      1  0.5256160000000  0.4287840000000  0.5237550000000 1.0
C      1  0.5291360000000  0.5044970000000  0.4722680000000 1.0
C      1  0.5270350000000  0.5554720000000  0.5030730000000 1.0
C      1  0.5259430000000  0.5383350000000  0.4737220000000 1.0
C      1  0.5115450000000  0.4433830000000  0.5467340000000 1.0
C      1  0.5205180000000  0.4549590000000  0.4350510000000 1.0
C      1  0.4762350000000  0.4480040000000  0.5038080000000 1.0
C      1  0.5597030000000  0.5348970000000  0.4760600000000 1.0
C      1  0.4074300000000  0.5199190000000  0.5082440000000 1.0
C      1  0.4870120000000  0.5528540000000  0.4512530000000 1.0
C      1  0.4904690000000  0.5617280000000  0.5337540000000 1.0
C      1  0.4239320000000  0.4954920000000  0.5146430000000 1.0
C      1  0.4624420000000  0.5551920000000  0.5277990000000 1.0
C      1  0.5471100000000  0.4736420000000  0.4445090000000 1.0
C      1  0.5419010000000  0.5436450000000  0.5226290000000 1.0
C      1  0.5063110000000  0.4432230000000  0.4636380000000 1.0
C      1  0.4948430000000  0.4894610000000  0.5672570000000 1.0
C      1  0.5585110000000  0.4510050000000  0.4908190000000 1.0
C      1  0.4925970000000  0.4672100000000  0.5425130000000 1.0
C      1  0.4939390000000  0.4298430000000  0.4878040000000 1.0
C      1  0.5132420000000  0.5039660000000  0.5489410000000 1.0
C      1  0.4444070000000  0.4525620000000  0.4971980000000 1.0
C      1  0.5746430000000  0.5089270000000  0.4908210000000 1.0
C      1  0.4570470000000  0.4999960000000  0.5690060000000 1.0
C      1  0.5000640000000  0.5128160000000  0.5219180000000 1.0
C      1  0.5490570000000  0.4721300000000  0.5298030000000 1.0
C      1  0.4186260000000  0.5406990000000  0.4997690000000 1.0
C      1  0.4894210000000  0.4698260000000  0.4549290000000 1.0
C      1  0.5496010000000  0.4423230000000  0.5164510000000 1.0
C      1  0.4455990000000  0.5263710000000  0.4626210000000 1.0
C      1  0.4943380000000  0.4749170000000  0.5104220000000 1.0
C      1  0.5242310000000  0.5053160000000  0.5043070000000 1.0
C      1  0.5577370000000  0.4927900000000  0.4671150000000 1.0
C      1  0.4635030000000  0.5098800000000  0.4409230000000 1.0
C      1  0.4794120000000  0.5343610000000  0.5068350000000 1.0
C      1  0.4481560000000  0.5457540000000  0.4997960000000 1.0
C      1  0.5157320000000  0.5181030000000  0.4274050000000 1.0
C      1  0.5029320000000  0.5446440000000  0.5528520000000 1.0
C      1  0.5579230000000  0.4992550000000  0.5384410000000 1.0
C      1  0.4841350000000  0.5216710000000  0.5694580000000 1.0
C      1  0.5274430000000  0.4728100000000  0.5032250000000 1.0
C      1  0.4951650000000  0.5245720000000  0.4783070000000 1.0
C      1  0.5756780000000  0.4749060000000  0.4881030000000 1.0
C      1  0.5383810000000  0.4524040000000  0.5534070000000 1.0
C      1  0.5545970000000  0.5170080000000  0.5133320000000 1.0
C      1  0.5401850000000  0.5119040000000  0.5571130000000 1.0
C      1  0.4714350000000  0.5108100000000  0.5401580000000 1.0
C      1  0.4658030000000  0.5512970000000  0.4735020000000 1.0
C      1  0.5113600000000  0.4888030000000  0.4537420000000 1.0
C      1  0.5335640000000  0.4594850000000  0.4725430000000 1.0
C      1  0.5338750000000  0.5352020000000  0.4407920000000 1.0
C      1  0.5110050000000  0.5668870000000  0.4628430000000 1.0
C      1  0.5034270000000  0.5695550000000  0.5091370000000 1.0
C      1  0.4602820000000  0.4457890000000  0.5332120000000 1.0
C      1  0.4787420000000  0.4979030000000  0.4916390000000 1.0
C      1  0.4876530000000  0.5750600000000  0.4843450000000 1.0
C      1  0.4360610000000  0.4926260000000  0.5438750000000 1.0
C      1  0.4907390000000  0.5228580000000  0.4441630000000 1.0
C      1  0.4579070000000  0.4954610000000  0.5163420000000 1.0
C      1  0.4505680000000  0.4950260000000  0.4752290000000 1.0
C      1  0.4648450000000  0.4807520000000  0.4495470000000 1.0
C      1  0.5308280000000  0.5398180000000  0.5489780000000 1.0
END
