TITL C-2848497-6229-256 -0.000374241940310066 125000 -669.913624626752 0 0 122 (C1) n - 1
REM
REM in /home/bkarasulu/work/CARBON/AIRSS/Generating-Clusters/AIREBO/with-SteepDescent/Only-C1/SD-CG-opt/Try1-1.4A-POS3A/HFTN-CG
REM
REM
REM
REM
REM
REM ./C.cell (11c1c37f851c82e70ff6c80c92926a4b)
REM
REM compiler GCC version 9.2.1 20190827 (Red Hat 9.2.1-1)
REM options -cpp -mtune=generic -march=x86-64 -g -O0 -fpre-include=/usr/include/finclude/math-vector-fortran.h
REM seed -1262662309 56170700 -430925432 1561802332 903854752 1932498149 1461172550 -55805866 -938963791 -1208943643 1550583413 2104165477 2107353492 1990793926 -1121806731 171828060 -714630043 1772449168 731014291 -2099924355 1187086777 -2009168200 874763032 1904008515 -1117222094 -819386341 1954038198 773827809 1791822874 -2017761291 13571293 396376818 -1188939191
REM
CELL 1.54180   50.00000   50.00000   50.00000   90.00000   90.00000   90.00000
LATT -1
SFAC C  
C      1  0.5414460000000  0.5495140000000  0.5516850000000 1.0
C      1  0.4817480000000  0.4474750000000  0.5031230000000 1.0
C      1  0.5058750000000  0.4100440000000  0.5341350000000 1.0
C      1  0.4618960000000  0.4940120000000  0.4145050000000 1.0
C      1  0.5296120000000  0.4809330000000  0.4690770000000 1.0
C      1  0.5601900000000  0.4949150000000  0.4741910000000 1.0
C      1  0.4549390000000  0.4917050000000  0.4844470000000 1.0
C      1  0.5042410000000  0.5774880000000  0.5707640000000 1.0
C      1  0.4372920000000  0.4711920000000  0.4629170000000 1.0
C      1  0.5022550000000  0.4575820000000  0.4515790000000 1.0
C      1  0.4198430000000  0.4455100000000  0.4605610000000 1.0
C      1  0.4802590000000  0.4963330000000  0.4666760000000 1.0
C      1  0.4738880000000  0.5841750000000  0.4906970000000 1.0
C      1  0.5344060000000  0.4921860000000  0.5180910000000 1.0
C      1  0.5146950000000  0.4123420000000  0.4549610000000 1.0
C      1  0.5621000000000  0.4704450000000  0.5562090000000 1.0
C      1  0.4576860000000  0.5333050000000  0.4608050000000 1.0
C      1  0.5657230000000  0.4395270000000  0.4679630000000 1.0
C      1  0.4820270000000  0.4986600000000  0.5169770000000 1.0
C      1  0.5670310000000  0.5553960000000  0.5301300000000 1.0
C      1  0.5115460000000  0.5687240000000  0.4359180000000 1.0
C      1  0.4923530000000  0.5288990000000  0.4077930000000 1.0
C      1  0.4693510000000  0.4384220000000  0.5539790000000 1.0
C      1  0.4636990000000  0.4061890000000  0.4735870000000 1.0
C      1  0.4681600000000  0.4655400000000  0.5720810000000 1.0
C      1  0.5605800000000  0.5586080000000  0.5061370000000 1.0
C      1  0.4450910000000  0.5236620000000  0.4906250000000 1.0
C      1  0.5160870000000  0.5424960000000  0.4547950000000 1.0
C      1  0.4835930000000  0.4785070000000  0.4309270000000 1.0
C      1  0.5760800000000  0.5097030000000  0.4488320000000 1.0
C      1  0.5781430000000  0.5119390000000  0.5266540000000 1.0
C      1  0.4157680000000  0.5433910000000  0.4539190000000 1.0
C      1  0.4761760000000  0.5394420000000  0.5959650000000 1.0
C      1  0.5252770000000  0.5597810000000  0.5772750000000 1.0
C      1  0.5081060000000  0.4264780000000  0.5082520000000 1.0
C      1  0.4698520000000  0.5414300000000  0.4300900000000 1.0
C      1  0.5860530000000  0.4916930000000  0.5508570000000 1.0
C      1  0.5031010000000  0.5194240000000  0.4900950000000 1.0
C      1  0.5302720000000  0.4205270000000  0.4375380000000 1.0
C      1  0.5922380000000  0.5014880000000  0.4975120000000 1.0
C      1  0.4996840000000  0.4451050000000  0.5522040000000 1.0
C      1  0.5157600000000  0.4422710000000  0.5815440000000 1.0
C      1  0.4354750000000  0.4755820000000  0.5699120000000 1.0
C      1  0.4778850000000  0.4085480000000  0.5412910000000 1.0
C      1  0.4179480000000  0.5067850000000  0.5017050000000 1.0
C      1  0.4516250000000  0.4978420000000  0.5887020000000 1.0
C      1  0.5014770000000  0.4670920000000  0.4835680000000 1.0
C      1  0.5418990000000  0.5827930000000  0.5446920000000 1.0
C      1  0.5596480000000  0.5185520000000  0.4262310000000 1.0
C      1  0.5530170000000  0.4676630000000  0.5270620000000 1.0
C      1  0.5174120000000  0.4952770000000  0.5767450000000 1.0
C      1  0.4697530000000  0.4649460000000  0.4588680000000 1.0
C      1  0.4859560000000  0.5021440000000  0.3988300000000 1.0
C      1  0.5353420000000  0.4977820000000  0.4142760000000 1.0
C      1  0.5408940000000  0.5360210000000  0.4900620000000 1.0
C      1  0.5066850000000  0.4704810000000  0.5363910000000 1.0
C      1  0.5000410000000  0.4698710000000  0.5832480000000 1.0
C      1  0.5640840000000  0.4720400000000  0.4511250000000 1.0
C      1  0.4602710000000  0.5044110000000  0.5588870000000 1.0
C      1  0.4319530000000  0.4369750000000  0.5183130000000 1.0
C      1  0.4498110000000  0.5225990000000  0.5425630000000 1.0
C      1  0.5484450000000  0.5701350000000  0.4698150000000 1.0
C      1  0.5162160000000  0.4848970000000  0.4380730000000 1.0
C      1  0.4834710000000  0.5708310000000  0.4330140000000 1.0
C      1  0.5912550000000  0.5197720000000  0.4752390000000 1.0
C      1  0.4245780000000  0.5176140000000  0.4442540000000 1.0
C      1  0.5158600000000  0.4703940000000  0.3725970000000 1.0
C      1  0.4761880000000  0.4823870000000  0.5446940000000 1.0
C      1  0.4958310000000  0.4163480000000  0.4788980000000 1.0
C      1  0.5145790000000  0.5342020000000  0.5383380000000 1.0
C      1  0.5205780000000  0.5268350000000  0.4045350000000 1.0
C      1  0.5567760000000  0.5444420000000  0.4403180000000 1.0
C      1  0.5482180000000  0.4972410000000  0.5655300000000 1.0
C      1  0.5408030000000  0.5700090000000  0.4395820000000 1.0
C      1  0.4191720000000  0.4987240000000  0.4686870000000 1.0
C      1  0.5902100000000  0.4314740000000  0.4819820000000 1.0
C      1  0.5153670000000  0.5026980000000  0.5436060000000 1.0
C      1  0.4119760000000  0.4759120000000  0.4931940000000 1.0
C      1  0.5574830000000  0.5195470000000  0.5526050000000 1.0
C      1  0.4603760000000  0.4305920000000  0.5234990000000 1.0
C      1  0.5018590000000  0.5868940000000  0.5068340000000 1.0
C      1  0.5268270000000  0.5782220000000  0.4872550000000 1.0
C      1  0.5082410000000  0.4911220000000  0.5021980000000 1.0
C      1  0.4816970000000  0.5727120000000  0.5911940000000 1.0
C      1  0.5528150000000  0.4396620000000  0.4382260000000 1.0
C      1  0.4700150000000  0.4372510000000  0.4740460000000 1.0
C      1  0.4712930000000  0.5643730000000  0.4631740000000 1.0
C      1  0.4926390000000  0.5842720000000  0.5394900000000 1.0
C      1  0.4733610000000  0.5524920000000  0.5677740000000 1.0
C      1  0.5540090000000  0.5092430000000  0.5034240000000 1.0
C      1  0.5252270000000  0.4535910000000  0.5134300000000 1.0
C      1  0.5477810000000  0.4597710000000  0.4885380000000 1.0
C      1  0.5107240000000  0.4876410000000  0.3931080000000 1.0
C      1  0.5226020000000  0.5415380000000  0.5983260000000 1.0
C      1  0.4608320000000  0.4736210000000  0.5091260000000 1.0
C      1  0.5761690000000  0.4719120000000  0.5029400000000 1.0
C      1  0.4354140000000  0.5651140000000  0.5366030000000 1.0
C      1  0.4847360000000  0.5452230000000  0.5398770000000 1.0
C      1  0.5028820000000  0.5620870000000  0.4755440000000 1.0
C      1  0.4194010000000  0.4206320000000  0.4745120000000 1.0
C      1  0.5262550000000  0.5147460000000  0.4677980000000 1.0
C      1  0.4308690000000  0.4675830000000  0.5187550000000 1.0
C      1  0.4132960000000  0.5108190000000  0.5317710000000 1.0
C      1  0.5679700000000  0.5422820000000  0.4704660000000 1.0
C      1  0.5092340000000  0.5173340000000  0.5979730000000 1.0
C      1  0.4473760000000  0.5161610000000  0.4264040000000 1.0
C      1  0.4231210000000  0.5476330000000  0.4806660000000 1.0
C      1  0.4885110000000  0.5255910000000  0.4616770000000 1.0
C      1  0.5221230000000  0.5978060000000  0.5413400000000 1.0
C      1  0.4247960000000  0.5381880000000  0.5411130000000 1.0
C      1  0.4829060000000  0.5525230000000  0.4995670000000 1.0
C      1  0.4384400000000  0.4006070000000  0.4670130000000 1.0
C      1  0.4238950000000  0.4848700000000  0.5446450000000 1.0
C      1  0.4151520000000  0.4230790000000  0.5024670000000 1.0
C      1  0.5133900000000  0.5424450000000  0.5087070000000 1.0
C      1  0.4622710000000  0.5701240000000  0.5342260000000 1.0
C      1  0.4797330000000  0.5081970000000  0.5935160000000 1.0
C      1  0.5609460000000  0.4484250000000  0.5726670000000 1.0
C      1  0.5963680000000  0.4477780000000  0.5007460000000 1.0
C      1  0.4671830000000  0.5285020000000  0.5160230000000 1.0
C      1  0.5222850000000  0.4204700000000  0.5578390000000 1.0
C      1  0.5526800000000  0.4695480000000  0.4219980000000 1.0
END
