TITL C-2847958-8115-86 -0.000697978885638918 125000 -565.063588751723 0 0 102 (C1) n - 1
REM
REM in /home/bkarasulu/work/CARBON/AIRSS/Generating-Clusters/AIREBO/with-SteepDescent/Only-C1/SD-CG-opt/Try1-1.4A-POS3A/HFTN-CG
REM
REM
REM
REM
REM
REM ./C.cell (11c1c37f851c82e70ff6c80c92926a4b)
REM
REM compiler GCC version 9.2.1 20190827 (Red Hat 9.2.1-1)
REM options -cpp -mtune=generic -march=x86-64 -g -O0 -fpre-include=/usr/include/finclude/math-vector-fortran.h
REM seed 1850116473 -1959817341 1634797051 596805871 -1801327747 -355264531 -783226208 -1529338445 -1713480168 -412213894 1156740861 -456933467 1892501423 -738566971 2123023380 -1974067181 -287672960 -650958552 1846244506 545402801 1121709008 1744246121 -865784939 -998784472 -490347868 -764718557 456907096 -1004992622 -1701804143 638565636 -1546580139 -2030493482 1521179532
REM
CELL 1.54180   50.00000   50.00000   50.00000   90.00000   90.00000   90.00000
LATT -1
SFAC C  
C      1  0.4216680000000  0.5051850000000  0.5014480000000 1.0
C      1  0.4955490000000  0.4725620000000  0.4468660000000 1.0
C      1  0.5953610000000  0.5225300000000  0.5070740000000 1.0
C      1  0.4998760000000  0.4433720000000  0.5713740000000 1.0
C      1  0.4695920000000  0.5493830000000  0.4914610000000 1.0
C      1  0.4668660000000  0.4614040000000  0.5588630000000 1.0
C      1  0.5423970000000  0.5678670000000  0.5221760000000 1.0
C      1  0.5199490000000  0.4427160000000  0.4365940000000 1.0
C      1  0.5244870000000  0.4117220000000  0.4771690000000 1.0
C      1  0.4676380000000  0.5428520000000  0.4469790000000 1.0
C      1  0.5021840000000  0.4968130000000  0.5149040000000 1.0
C      1  0.4368210000000  0.5711940000000  0.4822390000000 1.0
C      1  0.5800220000000  0.5683190000000  0.4880120000000 1.0
C      1  0.4811880000000  0.5107690000000  0.4783760000000 1.0
C      1  0.4899300000000  0.5681310000000  0.4424560000000 1.0
C      1  0.4508250000000  0.5692930000000  0.5262670000000 1.0
C      1  0.4770820000000  0.4498940000000  0.5109990000000 1.0
C      1  0.4540580000000  0.4826480000000  0.4151910000000 1.0
C      1  0.5099400000000  0.4070680000000  0.5076350000000 1.0
C      1  0.4523030000000  0.5180610000000  0.5713710000000 1.0
C      1  0.4898290000000  0.5194720000000  0.4177340000000 1.0
C      1  0.5106190000000  0.5649710000000  0.5697780000000 1.0
C      1  0.5382690000000  0.4226390000000  0.5048440000000 1.0
C      1  0.5433190000000  0.4658940000000  0.4332960000000 1.0
C      1  0.4473880000000  0.4947120000000  0.4462740000000 1.0
C      1  0.4946590000000  0.5868280000000  0.5202240000000 1.0
C      1  0.4821410000000  0.5731440000000  0.5619250000000 1.0
C      1  0.4643730000000  0.5697400000000  0.4651260000000 1.0
C      1  0.4939700000000  0.4915460000000  0.5899460000000 1.0
C      1  0.5331620000000  0.4874080000000  0.4840320000000 1.0
C      1  0.5474740000000  0.4404680000000  0.5226250000000 1.0
C      1  0.4389460000000  0.5273530000000  0.4474970000000 1.0
C      1  0.4856700000000  0.5200500000000  0.5819380000000 1.0
C      1  0.5501400000000  0.5730050000000  0.4948810000000 1.0
C      1  0.5252360000000  0.4775870000000  0.4553070000000 1.0
C      1  0.5373940000000  0.5289030000000  0.5592670000000 1.0
C      1  0.4763910000000  0.5168540000000  0.5517710000000 1.0
C      1  0.5078530000000  0.4656040000000  0.5468940000000 1.0
C      1  0.5192570000000  0.4840420000000  0.5802190000000 1.0
C      1  0.4509370000000  0.4801110000000  0.4908850000000 1.0
C      1  0.5395340000000  0.4630560000000  0.5710600000000 1.0
C      1  0.4774530000000  0.4291750000000  0.5563600000000 1.0
C      1  0.4240950000000  0.5040750000000  0.4692230000000 1.0
C      1  0.5923010000000  0.5389810000000  0.4861430000000 1.0
C      1  0.5020550000000  0.5439960000000  0.4923550000000 1.0
C      1  0.4534850000000  0.4614370000000  0.4428400000000 1.0
C      1  0.5039680000000  0.5197130000000  0.5395880000000 1.0
C      1  0.5086690000000  0.5775510000000  0.4678920000000 1.0
C      1  0.5742850000000  0.5115530000000  0.5180100000000 1.0
C      1  0.4724240000000  0.4731090000000  0.5863460000000 1.0
C      1  0.5358880000000  0.5727920000000  0.4693670000000 1.0
C      1  0.4829290000000  0.4874890000000  0.4084600000000 1.0
C      1  0.4991600000000  0.4509310000000  0.4890720000000 1.0
C      1  0.5458810000000  0.5183530000000  0.4835690000000 1.0
C      1  0.4321500000000  0.5781150000000  0.5075910000000 1.0
C      1  0.4342690000000  0.4695550000000  0.5143250000000 1.0
C      1  0.4517490000000  0.4493600000000  0.5336700000000 1.0
C      1  0.4805520000000  0.5021610000000  0.4454900000000 1.0
C      1  0.5629650000000  0.5403770000000  0.4725860000000 1.0
C      1  0.4872460000000  0.4215290000000  0.5259430000000 1.0
C      1  0.5398950000000  0.5115280000000  0.4257860000000 1.0
C      1  0.4413010000000  0.5392420000000  0.4768500000000 1.0
C      1  0.5328060000000  0.4134540000000  0.4459890000000 1.0
C      1  0.4219390000000  0.4956270000000  0.5311960000000 1.0
C      1  0.5040210000000  0.4327130000000  0.4650460000000 1.0
C      1  0.5524340000000  0.4872690000000  0.4190460000000 1.0
C      1  0.5535030000000  0.5460990000000  0.5357610000000 1.0
C      1  0.5170430000000  0.5744120000000  0.5377400000000 1.0
C      1  0.5419880000000  0.5132470000000  0.5294150000000 1.0
C      1  0.5140420000000  0.5087830000000  0.4477190000000 1.0
C      1  0.4704190000000  0.4386800000000  0.4320720000000 1.0
C      1  0.5317640000000  0.5400230000000  0.4302450000000 1.0
C      1  0.5213210000000  0.5229070000000  0.5041820000000 1.0
C      1  0.4710430000000  0.4720880000000  0.4700700000000 1.0
C      1  0.4947760000000  0.4569530000000  0.4185060000000 1.0
C      1  0.5039680000000  0.5436500000000  0.4241520000000 1.0
C      1  0.4398160000000  0.4185710000000  0.4879280000000 1.0
C      1  0.5226300000000  0.4933150000000  0.5490160000000 1.0
C      1  0.4646000000000  0.5399720000000  0.5215030000000 1.0
C      1  0.4583440000000  0.4103920000000  0.4694750000000 1.0
C      1  0.5675850000000  0.4676460000000  0.5696830000000 1.0
C      1  0.5467880000000  0.5540880000000  0.4495040000000 1.0
C      1  0.4364760000000  0.4365050000000  0.5066310000000 1.0
C      1  0.4301010000000  0.5069460000000  0.5572230000000 1.0
C      1  0.4712840000000  0.5855100000000  0.5368340000000 1.0
C      1  0.4914730000000  0.5510450000000  0.5378150000000 1.0
C      1  0.4620040000000  0.5061690000000  0.5262280000000 1.0
C      1  0.4797990000000  0.4777340000000  0.5319750000000 1.0
C      1  0.5972140000000  0.5895170000000  0.4881790000000 1.0
C      1  0.5140210000000  0.5372180000000  0.5740400000000 1.0
C      1  0.5134410000000  0.4153410000000  0.5464950000000 1.0
C      1  0.5639210000000  0.4624140000000  0.5215010000000 1.0
C      1  0.4972560000000  0.5776010000000  0.4945960000000 1.0
C      1  0.5462600000000  0.3965560000000  0.4317000000000 1.0
C      1  0.4539790000000  0.5128290000000  0.4941080000000 1.0
C      1  0.4578060000000  0.4639710000000  0.6077540000000 1.0
C      1  0.5309260000000  0.4413030000000  0.5472330000000 1.0
C      1  0.5799240000000  0.4665700000000  0.5446600000000 1.0
C      1  0.4781200000000  0.4216830000000  0.4531320000000 1.0
C      1  0.4993910000000  0.4834660000000  0.4850840000000 1.0
C      1  0.4967630000000  0.5342500000000  0.4622790000000 1.0
C      1  0.5519970000000  0.4872880000000  0.5098490000000 1.0
END
