TITL C-2847950-6905-380 0.000425764421213463 125000 -485.838892112825 0 0 87 (C1) n - 1
REM
REM in /home/bkarasulu/work/CARBON/AIRSS/Generating-Clusters/AIREBO/with-SteepDescent/Only-C1/SD-CG-opt/Try1-1.4A-POS3A/HFTN-CG
REM
REM
REM
REM
REM
REM ./C.cell (11c1c37f851c82e70ff6c80c92926a4b)
REM
REM compiler GCC version 9.2.1 20190827 (Red Hat 9.2.1-1)
REM options -cpp -mtune=generic -march=x86-64 -g -O0 -fpre-include=/usr/include/finclude/math-vector-fortran.h
REM seed 125514381 -1029190057 996789438 -18996565 -799489605 604719685 -1107030613 -673707165 -813976735 -275221595 5268488 -1344760257 -491295520 1476883046 -2065580699 -93830165 -96269420 -1659580074 26464224 272952036 926356343 1192422378 1021048295 -1691349524 993747752 335835851 2024892124 500291579 -1147234072 737654253 94302854 -1924765625 -525082868
REM
CELL 1.54180   50.00000   50.00000   50.00000   90.00000   90.00000   90.00000
LATT -1
SFAC C  
C      1  0.5096900000000  0.4798040000000  0.5486010000000 1.0
C      1  0.4670460000000  0.5249760000000  0.4989410000000 1.0
C      1  0.5442940000000  0.5219920000000  0.5682080000000 1.0
C      1  0.5438200000000  0.4911050000000  0.5824370000000 1.0
C      1  0.5054590000000  0.4312610000000  0.4803770000000 1.0
C      1  0.5242610000000  0.4779910000000  0.4105880000000 1.0
C      1  0.4379650000000  0.5132220000000  0.5020810000000 1.0
C      1  0.4583070000000  0.5150090000000  0.5804910000000 1.0
C      1  0.4559790000000  0.4414750000000  0.5878510000000 1.0
C      1  0.5583160000000  0.4406280000000  0.4980770000000 1.0
C      1  0.4719900000000  0.5113480000000  0.5498270000000 1.0
C      1  0.5367510000000  0.4508860000000  0.5435170000000 1.0
C      1  0.4406090000000  0.5188960000000  0.5516820000000 1.0
C      1  0.4814140000000  0.5023790000000  0.4358560000000 1.0
C      1  0.4941700000000  0.5509410000000  0.4528460000000 1.0
C      1  0.5448500000000  0.4618870000000  0.4235660000000 1.0
C      1  0.5708050000000  0.5304030000000  0.5233530000000 1.0
C      1  0.4708130000000  0.4847380000000  0.5370410000000 1.0
C      1  0.4999860000000  0.5253960000000  0.5057200000000 1.0
C      1  0.4598760000000  0.4928380000000  0.3861240000000 1.0
C      1  0.5715410000000  0.4627230000000  0.5202810000000 1.0
C      1  0.4315080000000  0.4882450000000  0.4333390000000 1.0
C      1  0.5115080000000  0.4988990000000  0.4319760000000 1.0
C      1  0.4617640000000  0.5841340000000  0.4814540000000 1.0
C      1  0.5174390000000  0.4551250000000  0.4961890000000 1.0
C      1  0.5417630000000  0.4749340000000  0.5093080000000 1.0
C      1  0.4823580000000  0.4439690000000  0.4424160000000 1.0
C      1  0.5081060000000  0.4358900000000  0.4512870000000 1.0
C      1  0.4324210000000  0.4551300000000  0.4878070000000 1.0
C      1  0.4353510000000  0.5683010000000  0.4859130000000 1.0
C      1  0.4551390000000  0.4474640000000  0.4634670000000 1.0
C      1  0.5388610000000  0.4308340000000  0.5195780000000 1.0
C      1  0.4839140000000  0.5790010000000  0.5239950000000 1.0
C      1  0.4682070000000  0.4525710000000  0.5650980000000 1.0
C      1  0.4972620000000  0.5285360000000  0.5580460000000 1.0
C      1  0.4435000000000  0.4855430000000  0.4831090000000 1.0
C      1  0.5173280000000  0.5351420000000  0.4669160000000 1.0
C      1  0.5342870000000  0.5512850000000  0.4284270000000 1.0
C      1  0.5573740000000  0.5525880000000  0.4751550000000 1.0
C      1  0.5340450000000  0.4449100000000  0.4452100000000 1.0
C      1  0.4886160000000  0.4775090000000  0.5147500000000 1.0
C      1  0.5351940000000  0.4711130000000  0.5663340000000 1.0
C      1  0.5041130000000  0.4961560000000  0.4975610000000 1.0
C      1  0.5513050000000  0.5400400000000  0.5402080000000 1.0
C      1  0.5190300000000  0.5683370000000  0.4448500000000 1.0
C      1  0.4861390000000  0.4108230000000  0.5081180000000 1.0
C      1  0.4480360000000  0.4632160000000  0.5430940000000 1.0
C      1  0.4841580000000  0.5937920000000  0.4963620000000 1.0
C      1  0.4934050000000  0.5576960000000  0.5562340000000 1.0
C      1  0.4690840000000  0.4665970000000  0.4950560000000 1.0
C      1  0.5699420000000  0.4776810000000  0.4897890000000 1.0
C      1  0.5483720000000  0.4589920000000  0.4712150000000 1.0
C      1  0.4694220000000  0.5750510000000  0.5548020000000 1.0
C      1  0.4867350000000  0.5014340000000  0.5855020000000 1.0
C      1  0.5160030000000  0.4175610000000  0.5096690000000 1.0
C      1  0.4290670000000  0.4537230000000  0.5163300000000 1.0
C      1  0.5321770000000  0.5220030000000  0.4411240000000 1.0
C      1  0.4667440000000  0.4728040000000  0.4439930000000 1.0
C      1  0.4412620000000  0.5268100000000  0.4583750000000 1.0
C      1  0.5635920000000  0.5093220000000  0.4989680000000 1.0
C      1  0.5078390000000  0.4546240000000  0.5279790000000 1.0
C      1  0.5094370000000  0.5952050000000  0.4855200000000 1.0
C      1  0.4335870000000  0.4998430000000  0.4576790000000 1.0
C      1  0.5163130000000  0.4814690000000  0.4792910000000 1.0
C      1  0.5648940000000  0.5261560000000  0.4736280000000 1.0
C      1  0.4212800000000  0.4800400000000  0.5331060000000 1.0
C      1  0.5248570000000  0.5470710000000  0.4974070000000 1.0
C      1  0.5295800000000  0.5721980000000  0.4749500000000 1.0
C      1  0.5824790000000  0.4829690000000  0.5413110000000 1.0
C      1  0.4706780000000  0.5292180000000  0.4476520000000 1.0
C      1  0.4765780000000  0.5555970000000  0.5048330000000 1.0
C      1  0.5316120000000  0.5553660000000  0.5270180000000 1.0
C      1  0.5411580000000  0.5035600000000  0.5238900000000 1.0
C      1  0.5592430000000  0.5124110000000  0.4500000000000 1.0
C      1  0.4336930000000  0.5400280000000  0.4829440000000 1.0
C      1  0.5130610000000  0.5710270000000  0.5389160000000 1.0
C      1  0.5626650000000  0.4840480000000  0.4392580000000 1.0
C      1  0.4883390000000  0.4765190000000  0.5716540000000 1.0
C      1  0.4835460000000  0.4333600000000  0.5489870000000 1.0
C      1  0.4271910000000  0.5071140000000  0.5298650000000 1.0
C      1  0.5140700000000  0.5176450000000  0.5832130000000 1.0
C      1  0.4584050000000  0.4880720000000  0.4152750000000 1.0
C      1  0.5099280000000  0.5099700000000  0.5343990000000 1.0
C      1  0.5619500000000  0.5007710000000  0.5484340000000 1.0
C      1  0.5321840000000  0.4836950000000  0.4543360000000 1.0
C      1  0.4694880000000  0.5536960000000  0.4716190000000 1.0
C      1  0.4734710000000  0.4352730000000  0.4883490000000 1.0
END
