TITL C-2847954-6904-417 -0.00061304581458372 125000 -1009.71555056282 0 0 186 (C1) n - 1
REM
REM in /home/bkarasulu/work/CARBON/AIRSS/Generating-Clusters/AIREBO/with-SteepDescent/Only-C1/SD-CG-opt/Try1-1.4A-POS3A/HFTN-CG
REM
REM
REM
REM
REM
REM ./C.cell (11c1c37f851c82e70ff6c80c92926a4b)
REM
REM compiler GCC version 9.2.1 20190827 (Red Hat 9.2.1-1)
REM options -cpp -mtune=generic -march=x86-64 -g -O0 -fpre-include=/usr/include/finclude/math-vector-fortran.h
REM seed 1159469887 -775615307 44766086 -1397082808 -1253191396 -1951663688 -558869661 1323393591 -1338596259 -1511825717 -690055375 -1224851819 -1609277026 1716392530 1228815721 2043657434 636602252 -1253764895 -313861708 2110629502 1653863175 1907073752 -489430229 -1565711264 -1708263606 1849173246 1011875515 684248058 -957673266 -1313076138 -1219842764 -92338808 2037119125
REM
CELL 1.54180   50.00000   50.00000   50.00000   90.00000   90.00000   90.00000
LATT -1
SFAC C  
C      1  0.4164300000000  0.4596910000000  0.5296280000000 1.0
C      1  0.5187280000000  0.4612570000000  0.5884900000000 1.0
C      1  0.4355140000000  0.5235620000000  0.5817100000000 1.0
C      1  0.5825930000000  0.4759470000000  0.5304330000000 1.0
C      1  0.4231090000000  0.5357950000000  0.5352730000000 1.0
C      1  0.4097620000000  0.4429580000000  0.5041060000000 1.0
C      1  0.4372950000000  0.5876450000000  0.5174700000000 1.0
C      1  0.4829700000000  0.5174780000000  0.4365330000000 1.0
C      1  0.5059110000000  0.5059920000000  0.3917430000000 1.0
C      1  0.4759590000000  0.5191510000000  0.6211390000000 1.0
C      1  0.4720070000000  0.5513960000000  0.5470020000000 1.0
C      1  0.5591940000000  0.4371470000000  0.4779410000000 1.0
C      1  0.4178880000000  0.4553480000000  0.4437100000000 1.0
C      1  0.4718940000000  0.4307850000000  0.5747310000000 1.0
C      1  0.5154240000000  0.4670960000000  0.5143540000000 1.0
C      1  0.4492060000000  0.4570390000000  0.5317690000000 1.0
C      1  0.5572630000000  0.4356650000000  0.4473450000000 1.0
C      1  0.5523510000000  0.5964600000000  0.4845080000000 1.0
C      1  0.4528120000000  0.5607880000000  0.4445380000000 1.0
C      1  0.4848380000000  0.4180790000000  0.4292230000000 1.0
C      1  0.5534770000000  0.5632370000000  0.5194950000000 1.0
C      1  0.4535490000000  0.4373130000000  0.4446460000000 1.0
C      1  0.6011870000000  0.4437280000000  0.5163970000000 1.0
C      1  0.6155200000000  0.4973090000000  0.4303810000000 1.0
C      1  0.4925410000000  0.5967300000000  0.5263690000000 1.0
C      1  0.5914030000000  0.5351350000000  0.5357980000000 1.0
C      1  0.5140550000000  0.3956650000000  0.5250840000000 1.0
C      1  0.5487110000000  0.4221350000000  0.5444720000000 1.0
C      1  0.5058780000000  0.4300200000000  0.4917160000000 1.0
C      1  0.5709350000000  0.4108880000000  0.4357710000000 1.0
C      1  0.4775780000000  0.5220830000000  0.5012370000000 1.0
C      1  0.4697190000000  0.5625850000000  0.3940870000000 1.0
C      1  0.4476320000000  0.4031260000000  0.5132920000000 1.0
C      1  0.4866680000000  0.3851950000000  0.4912250000000 1.0
C      1  0.4947280000000  0.4658480000000  0.6061390000000 1.0
C      1  0.5928470000000  0.5431460000000  0.4198870000000 1.0
C      1  0.4661210000000  0.4953610000000  0.5766740000000 1.0
C      1  0.4526460000000  0.5173000000000  0.3821440000000 1.0
C      1  0.4662550000000  0.4732620000000  0.4780020000000 1.0
C      1  0.4786630000000  0.4443730000000  0.4664810000000 1.0
C      1  0.4998740000000  0.5954880000000  0.4805730000000 1.0
C      1  0.4131980000000  0.5401520000000  0.4409410000000 1.0
C      1  0.3872140000000  0.4928550000000  0.5074410000000 1.0
C      1  0.5909650000000  0.4196800000000  0.4944480000000 1.0
C      1  0.4317190000000  0.5104260000000  0.4909720000000 1.0
C      1  0.5829250000000  0.5630550000000  0.5063300000000 1.0
C      1  0.4346480000000  0.4509320000000  0.4196700000000 1.0
C      1  0.4123660000000  0.5082510000000  0.5619480000000 1.0
C      1  0.4739670000000  0.4229720000000  0.4907270000000 1.0
C      1  0.5187530000000  0.5754480000000  0.4952600000000 1.0
C      1  0.4769040000000  0.5107880000000  0.4691490000000 1.0
C      1  0.4346620000000  0.4260110000000  0.4956170000000 1.0
C      1  0.5494980000000  0.4963500000000  0.5209700000000 1.0
C      1  0.4353220000000  0.5499180000000  0.4868510000000 1.0
C      1  0.5015580000000  0.4375570000000  0.5489460000000 1.0
C      1  0.5009870000000  0.4145230000000  0.5739620000000 1.0
C      1  0.5881230000000  0.5679490000000  0.5386090000000 1.0
C      1  0.4399410000000  0.5946070000000  0.5472430000000 1.0
C      1  0.5706660000000  0.4643170000000  0.5804540000000 1.0
C      1  0.4986850000000  0.4626210000000  0.4082180000000 1.0
C      1  0.5215800000000  0.5050870000000  0.5034880000000 1.0
C      1  0.5579680000000  0.4641450000000  0.5140280000000 1.0
C      1  0.4561300000000  0.5362200000000  0.4672510000000 1.0
C      1  0.3923540000000  0.4901150000000  0.5412680000000 1.0
C      1  0.4668920000000  0.3968370000000  0.4718000000000 1.0
C      1  0.4070800000000  0.5141370000000  0.5222330000000 1.0
C      1  0.5215740000000  0.5682660000000  0.4561890000000 1.0
C      1  0.4470040000000  0.5840780000000  0.4204530000000 1.0
C      1  0.5502920000000  0.5624390000000  0.4105950000000 1.0
C      1  0.4259160000000  0.5809110000000  0.4764860000000 1.0
C      1  0.5961000000000  0.5159550000000  0.4168080000000 1.0
C      1  0.5114930000000  0.5161460000000  0.6031960000000 1.0
C      1  0.4506630000000  0.5139520000000  0.5134180000000 1.0
C      1  0.5352940000000  0.4570450000000  0.4896980000000 1.0
C      1  0.4666910000000  0.4750240000000  0.4440430000000 1.0
C      1  0.4081980000000  0.5308270000000  0.4793440000000 1.0
C      1  0.5078120000000  0.5713080000000  0.5736350000000 1.0
C      1  0.4588780000000  0.4998910000000  0.4280540000000 1.0
C      1  0.4876330000000  0.5490060000000  0.4676180000000 1.0
C      1  0.4898530000000  0.4842140000000  0.3937840000000 1.0
C      1  0.5412710000000  0.4890660000000  0.4825860000000 1.0
C      1  0.5855010000000  0.4524030000000  0.4875000000000 1.0
C      1  0.4869970000000  0.5251480000000  0.5311970000000 1.0
C      1  0.5294130000000  0.4329280000000  0.5776330000000 1.0
C      1  0.4056410000000  0.4700340000000  0.4909570000000 1.0
C      1  0.3970000000000  0.4989490000000  0.4752930000000 1.0
C      1  0.5322980000000  0.5412010000000  0.4406750000000 1.0
C      1  0.4255080000000  0.5583140000000  0.5170360000000 1.0
C      1  0.4530870000000  0.5410350000000  0.3955910000000 1.0
C      1  0.4271370000000  0.4357860000000  0.4660010000000 1.0
C      1  0.4599870000000  0.5692600000000  0.5000300000000 1.0
C      1  0.6151320000000  0.5066300000000  0.5028150000000 1.0
C      1  0.5664020000000  0.5365710000000  0.4928390000000 1.0
C      1  0.4329740000000  0.4821040000000  0.5582770000000 1.0
C      1  0.5111020000000  0.3997090000000  0.4856350000000 1.0
C      1  0.5305020000000  0.4786750000000  0.5390350000000 1.0
C      1  0.5398870000000  0.4885960000000  0.5684720000000 1.0
C      1  0.5261890000000  0.4374480000000  0.4400810000000 1.0
C      1  0.4647500000000  0.5814880000000  0.4686530000000 1.0
C      1  0.5641050000000  0.5071720000000  0.5660580000000 1.0
C      1  0.4793050000000  0.6042010000000  0.4987280000000 1.0
C      1  0.4167440000000  0.4852480000000  0.4511680000000 1.0
C      1  0.5385400000000  0.5518960000000  0.4807430000000 1.0
C      1  0.5342820000000  0.3918500000000  0.5014480000000 1.0
C      1  0.4505820000000  0.4728990000000  0.5926350000000 1.0
C      1  0.5113950000000  0.5249640000000  0.4194300000000 1.0
C      1  0.5168860000000  0.5309170000000  0.3803550000000 1.0
C      1  0.5078670000000  0.4668240000000  0.5589140000000 1.0
C      1  0.5133640000000  0.5452950000000  0.5386070000000 1.0
C      1  0.5709700000000  0.5578220000000  0.4286600000000 1.0
C      1  0.4397890000000  0.5394840000000  0.4214410000000 1.0
C      1  0.4075260000000  0.5422880000000  0.5622240000000 1.0
C      1  0.5626580000000  0.5189520000000  0.5380630000000 1.0
C      1  0.5639480000000  0.5573580000000  0.4587730000000 1.0
C      1  0.4835980000000  0.5494420000000  0.4339650000000 1.0
C      1  0.5558980000000  0.5292750000000  0.5863550000000 1.0
C      1  0.5759190000000  0.4949000000000  0.4339190000000 1.0
C      1  0.4463390000000  0.6051310000000  0.4897480000000 1.0
C      1  0.5682670000000  0.4617650000000  0.4340050000000 1.0
C      1  0.4290610000000  0.4906830000000  0.5256080000000 1.0
C      1  0.4932300000000  0.4448240000000  0.5195940000000 1.0
C      1  0.4800900000000  0.3956170000000  0.5218740000000 1.0
C      1  0.5418660000000  0.5078790000000  0.6033930000000 1.0
C      1  0.5149180000000  0.5035170000000  0.5728720000000 1.0
C      1  0.4638550000000  0.4850510000000  0.5443340000000 1.0
C      1  0.5459030000000  0.5437910000000  0.5405240000000 1.0
C      1  0.4950890000000  0.4975270000000  0.5493140000000 1.0
C      1  0.5248120000000  0.3898420000000  0.4238840000000 1.0
C      1  0.4949710000000  0.4887480000000  0.4876950000000 1.0
C      1  0.4747500000000  0.4038110000000  0.5545310000000 1.0
C      1  0.5362570000000  0.5514670000000  0.5708770000000 1.0
C      1  0.4954590000000  0.5508800000000  0.4984730000000 1.0
C      1  0.4503470000000  0.5179120000000  0.5452540000000 1.0
C      1  0.4802240000000  0.5779500000000  0.5767800000000 1.0
C      1  0.4507310000000  0.4534100000000  0.5649290000000 1.0
C      1  0.4301670000000  0.5108850000000  0.4375460000000 1.0
C      1  0.5354650000000  0.5973380000000  0.4629400000000 1.0
C      1  0.5732090000000  0.5878750000000  0.5501210000000 1.0
C      1  0.6070120000000  0.4766790000000  0.5101120000000 1.0
C      1  0.5853010000000  0.4840520000000  0.5598670000000 1.0
C      1  0.5466140000000  0.4759950000000  0.5977710000000 1.0
C      1  0.5730120000000  0.5775120000000  0.4803060000000 1.0
C      1  0.5432390000000  0.4962080000000  0.4434550000000 1.0
C      1  0.4415700000000  0.4655640000000  0.3983580000000 1.0
C      1  0.4632510000000  0.4045560000000  0.4452520000000 1.0
C      1  0.4060860000000  0.5599400000000  0.4617990000000 1.0
C      1  0.4603420000000  0.4911940000000  0.3978850000000 1.0
C      1  0.5917630000000  0.4832050000000  0.4804150000000 1.0
C      1  0.4511060000000  0.5713680000000  0.5649070000000 1.0
C      1  0.5390470000000  0.5916670000000  0.5131240000000 1.0
C      1  0.5227520000000  0.4157710000000  0.5410410000000 1.0
C      1  0.5957180000000  0.5255630000000  0.5061500000000 1.0
C      1  0.5296110000000  0.5473410000000  0.4013550000000 1.0
C      1  0.5164460000000  0.5005920000000  0.4641260000000 1.0
C      1  0.5682410000000  0.5044860000000  0.4814990000000 1.0
C      1  0.4876280000000  0.4941930000000  0.6067110000000 1.0
C      1  0.5226330000000  0.5356320000000  0.5073130000000 1.0
C      1  0.5236440000000  0.4578090000000  0.4173370000000 1.0
C      1  0.6025620000000  0.5128900000000  0.5573430000000 1.0
C      1  0.4337700000000  0.4836080000000  0.4788100000000 1.0
C      1  0.4814210000000  0.5672140000000  0.5225380000000 1.0
C      1  0.4922610000000  0.5846230000000  0.4506920000000 1.0
C      1  0.5623780000000  0.4362670000000  0.5697860000000 1.0
C      1  0.5588240000000  0.4088710000000  0.4969700000000 1.0
C      1  0.4677380000000  0.5290460000000  0.5722760000000 1.0
C      1  0.4781140000000  0.4505660000000  0.4252220000000 1.0
C      1  0.4576570000000  0.4501500000000  0.5022510000000 1.0
C      1  0.5468320000000  0.5933970000000  0.5444900000000 1.0
C      1  0.5125110000000  0.4482830000000  0.4657900000000 1.0
C      1  0.5142500000000  0.5470550000000  0.5957050000000 1.0
C      1  0.4299690000000  0.5554620000000  0.5796220000000 1.0
C      1  0.4710050000000  0.4510680000000  0.5992000000000 1.0
C      1  0.4829430000000  0.4771500000000  0.5173120000000 1.0
C      1  0.5628940000000  0.4331910000000  0.5192600000000 1.0
C      1  0.5445390000000  0.4752390000000  0.4195100000000 1.0
C      1  0.5574930000000  0.5242150000000  0.4559450000000 1.0
C      1  0.4808070000000  0.5803870000000  0.4208290000000 1.0
C      1  0.6020860000000  0.4853000000000  0.4530780000000 1.0
C      1  0.4696050000000  0.5381220000000  0.6049930000000 1.0
C      1  0.5854960000000  0.4347360000000  0.5446210000000 1.0
C      1  0.5118130000000  0.4125230000000  0.4316080000000 1.0
C      1  0.4462000000000  0.3935570000000  0.5420940000000 1.0
C      1  0.5012740000000  0.5324620000000  0.5677110000000 1.0
C      1  0.3911440000000  0.4612220000000  0.5502440000000 1.0
C      1  0.5115110000000  0.5298950000000  0.4613220000000 1.0
C      1  0.5160800000000  0.5789200000000  0.5432480000000 1.0
END
