TITL C-2848503-6230-116 -0.00123187312674442 125000 -493.02080446092 0 0 91 (C1) n - 1
REM
REM in /home/bkarasulu/work/CARBON/AIRSS/Generating-Clusters/AIREBO/with-SteepDescent/Only-C1/SD-CG-opt/Try1-1.4A-POS3A/HFTN-CG
REM
REM
REM
REM
REM
REM ./C.cell (11c1c37f851c82e70ff6c80c92926a4b)
REM
REM compiler GCC version 9.2.1 20190827 (Red Hat 9.2.1-1)
REM options -cpp -mtune=generic -march=x86-64 -g -O0 -fpre-include=/usr/include/finclude/math-vector-fortran.h
REM seed -528367028 918317546 1768434348 1267420496 -315128379 227847667 1850664378 819523382 -952327471 -1023499299 2101897158 -181742091 -1613543088 2081015963 -896593114 -1202540388 114731432 -1176103894 -70293614 -1498995136 -9749013 -262789037 -129510955 -619607445 -619605883 -2051490211 935537006 -138143334 1199214387 1677065311 627077638 492731969 -458352656
REM
CELL 1.54180   50.00000   50.00000   50.00000   90.00000   90.00000   90.00000
LATT -1
SFAC C  
C      1  0.4679020000000  0.5421820000000  0.4839740000000 1.0
C      1  0.5200570000000  0.5659470000000  0.4627700000000 1.0
C      1  0.4607900000000  0.4438770000000  0.4279210000000 1.0
C      1  0.5452840000000  0.5006460000000  0.5038520000000 1.0
C      1  0.4623320000000  0.4929090000000  0.4990960000000 1.0
C      1  0.5782540000000  0.4874950000000  0.5504500000000 1.0
C      1  0.5579610000000  0.4449870000000  0.4947490000000 1.0
C      1  0.5046350000000  0.5549190000000  0.5680850000000 1.0
C      1  0.5129290000000  0.4094200000000  0.4765830000000 1.0
C      1  0.5095510000000  0.4685540000000  0.4878820000000 1.0
C      1  0.4677290000000  0.3827700000000  0.5727960000000 1.0
C      1  0.5114410000000  0.5953890000000  0.5408600000000 1.0
C      1  0.5651360000000  0.4871680000000  0.5279830000000 1.0
C      1  0.5209020000000  0.5706310000000  0.5506650000000 1.0
C      1  0.4904430000000  0.5230220000000  0.5412400000000 1.0
C      1  0.4926680000000  0.5071510000000  0.5048660000000 1.0
C      1  0.5107740000000  0.5409900000000  0.4709040000000 1.0
C      1  0.4925940000000  0.4943010000000  0.4733140000000 1.0
C      1  0.5299440000000  0.4547430000000  0.4684220000000 1.0
C      1  0.4915590000000  0.6169020000000  0.5011770000000 1.0
C      1  0.4528940000000  0.4600910000000  0.4747420000000 1.0
C      1  0.5663330000000  0.5281520000000  0.4216870000000 1.0
C      1  0.5207200000000  0.4895370000000  0.4265720000000 1.0
C      1  0.4809960000000  0.4319830000000  0.5517440000000 1.0
C      1  0.5156580000000  0.4629160000000  0.5210420000000 1.0
C      1  0.5358880000000  0.4271800000000  0.4792780000000 1.0
C      1  0.5569570000000  0.5644300000000  0.4893430000000 1.0
C      1  0.4530710000000  0.5282010000000  0.5761110000000 1.0
C      1  0.4809270000000  0.5621750000000  0.3875800000000 1.0
C      1  0.5086900000000  0.5045830000000  0.5622780000000 1.0
C      1  0.4082190000000  0.4866910000000  0.4546950000000 1.0
C      1  0.5799940000000  0.4670970000000  0.4936030000000 1.0
C      1  0.5968800000000  0.5226740000000  0.4883050000000 1.0
C      1  0.4555280000000  0.4265140000000  0.4862560000000 1.0
C      1  0.5623900000000  0.5717960000000  0.5181460000000 1.0
C      1  0.4731200000000  0.4052440000000  0.5619700000000 1.0
C      1  0.5698900000000  0.5218340000000  0.5089660000000 1.0
C      1  0.4717460000000  0.5780920000000  0.5241260000000 1.0
C      1  0.4100950000000  0.5421160000000  0.5229710000000 1.0
C      1  0.4580300000000  0.4501390000000  0.5362690000000 1.0
C      1  0.5832280000000  0.4946830000000  0.4931520000000 1.0
C      1  0.4375550000000  0.5118940000000  0.5605440000000 1.0
C      1  0.5417520000000  0.5583930000000  0.5361380000000 1.0
C      1  0.4841390000000  0.4920050000000  0.5324530000000 1.0
C      1  0.5168220000000  0.5328400000000  0.5773940000000 1.0
C      1  0.5323400000000  0.4374800000000  0.5655010000000 1.0
C      1  0.5408120000000  0.5401900000000  0.5069030000000 1.0
C      1  0.5439170000000  0.4687430000000  0.5105250000000 1.0
C      1  0.5336350000000  0.5270140000000  0.4309500000000 1.0
C      1  0.5569760000000  0.5485290000000  0.4433840000000 1.0
C      1  0.4865610000000  0.5423700000000  0.4049350000000 1.0
C      1  0.4314270000000  0.4828890000000  0.4646110000000 1.0
C      1  0.4328840000000  0.5237460000000  0.5300040000000 1.0
C      1  0.4739740000000  0.5518890000000  0.5657620000000 1.0
C      1  0.5476670000000  0.4845330000000  0.5866350000000 1.0
C      1  0.5334600000000  0.5196540000000  0.4808130000000 1.0
C      1  0.4647070000000  0.4619020000000  0.5066030000000 1.0
C      1  0.4775810000000  0.5500690000000  0.5121540000000 1.0
C      1  0.4913950000000  0.5979560000000  0.5211630000000 1.0
C      1  0.4987010000000  0.4241190000000  0.5169460000000 1.0
C      1  0.4869040000000  0.5277510000000  0.4708820000000 1.0
C      1  0.4848620000000  0.4651730000000  0.5463640000000 1.0
C      1  0.5126710000000  0.5334610000000  0.4096380000000 1.0
C      1  0.5212290000000  0.5068540000000  0.4536950000000 1.0
C      1  0.5484000000000  0.5660000000000  0.4628420000000 1.0
C      1  0.4358420000000  0.4971850000000  0.5125070000000 1.0
C      1  0.4706310000000  0.4577810000000  0.4484180000000 1.0
C      1  0.5486200000000  0.4618020000000  0.4486550000000 1.0
C      1  0.4241830000000  0.4866670000000  0.5419820000000 1.0
C      1  0.5080250000000  0.5348950000000  0.5144730000000 1.0
C      1  0.4595240000000  0.4986850000000  0.4666950000000 1.0
C      1  0.4948380000000  0.4480760000000  0.3938370000000 1.0
C      1  0.4943170000000  0.4790890000000  0.4429550000000 1.0
C      1  0.5143540000000  0.4757920000000  0.5526310000000 1.0
C      1  0.4339310000000  0.4570870000000  0.5495340000000 1.0
C      1  0.4884840000000  0.4469920000000  0.4964520000000 1.0
C      1  0.4936360000000  0.4625490000000  0.4148200000000 1.0
C      1  0.4590170000000  0.5194950000000  0.4434510000000 1.0
C      1  0.4202400000000  0.4671980000000  0.5136420000000 1.0
C      1  0.4930500000000  0.6332350000000  0.4807350000000 1.0
C      1  0.4855330000000  0.4188770000000  0.4804180000000 1.0
C      1  0.4296990000000  0.4465860000000  0.4956300000000 1.0
C      1  0.4667890000000  0.5292250000000  0.4197390000000 1.0
C      1  0.5310520000000  0.5072280000000  0.5876030000000 1.0
C      1  0.4604700000000  0.5755210000000  0.5489480000000 1.0
C      1  0.5418910000000  0.4728880000000  0.4245540000000 1.0
C      1  0.5742000000000  0.4878110000000  0.5775520000000 1.0
C      1  0.5337780000000  0.4637460000000  0.5738820000000 1.0
C      1  0.4497220000000  0.4322830000000  0.4071900000000 1.0
C      1  0.5125610000000  0.4366470000000  0.5424430000000 1.0
C      1  0.4611060000000  0.5370730000000  0.5379870000000 1.0
END
