TITL C-2847950-6905-280 0.0079546077077798 125000 -183.239092680205 0 0 34 (C1) n - 1
REM
REM in /home/bkarasulu/work/CARBON/AIRSS/Generating-Clusters/AIREBO/with-SteepDescent/Only-C1/SD-CG-opt/Try1-1.4A-POS3A/HFTN-CG
REM
REM
REM
REM
REM
REM ./C.cell (11c1c37f851c82e70ff6c80c92926a4b)
REM
REM compiler GCC version 9.2.1 20190827 (Red Hat 9.2.1-1)
REM options -cpp -mtune=generic -march=x86-64 -g -O0 -fpre-include=/usr/include/finclude/math-vector-fortran.h
REM seed -1041449743 -872604911 1021239439 811754797 1482511706 -992496830 -1849613236 -133478482 1849020645 519209674 -956710677 -1950121800 -74786915 -438202940 618794517 822217402 -856546263 393961895 -327086191 -34209484 608158578 465628223 -101834588 -849563263 559195459 -19570613 -1131641911 -1728022155 1799222499 430017891 1139783197 -324066142 -1488181409
REM
CELL 1.54180   50.00000   50.00000   50.00000   90.00000   90.00000   90.00000
LATT -1
SFAC C  
C      1  0.5389650000000  0.5109040000000  0.5532100000000 1.0
C      1  0.5263700000000  0.5304190000000  0.4550570000000 1.0
C      1  0.5168700000000  0.4715450000000  0.4914710000000 1.0
C      1  0.5202360000000  0.5252060000000  0.5693090000000 1.0
C      1  0.5211570000000  0.5235040000000  0.5146880000000 1.0
C      1  0.5227000000000  0.4855660000000  0.4654020000000 1.0
C      1  0.5582020000000  0.5202250000000  0.5293350000000 1.0
C      1  0.5596990000000  0.5000050000000  0.5089170000000 1.0
C      1  0.5477780000000  0.5468140000000  0.5188190000000 1.0
C      1  0.4477000000000  0.4552590000000  0.5185520000000 1.0
C      1  0.4743610000000  0.5170150000000  0.5421780000000 1.0
C      1  0.5178620000000  0.5563460000000  0.5163380000000 1.0
C      1  0.5495740000000  0.4513140000000  0.5236570000000 1.0
C      1  0.5642820000000  0.5052880000000  0.4815210000000 1.0
C      1  0.4957340000000  0.5336590000000  0.5582650000000 1.0
C      1  0.4854290000000  0.5040880000000  0.5161740000000 1.0
C      1  0.4492370000000  0.4735170000000  0.4739870000000 1.0
C      1  0.5249040000000  0.4984500000000  0.5284330000000 1.0
C      1  0.4281500000000  0.4764090000000  0.4498180000000 1.0
C      1  0.4396060000000  0.5391200000000  0.5018770000000 1.0
C      1  0.5394220000000  0.4747600000000  0.5129720000000 1.0
C      1  0.4910370000000  0.5461940000000  0.5278840000000 1.0
C      1  0.4803470000000  0.4369080000000  0.4868840000000 1.0
C      1  0.4970630000000  0.5243750000000  0.4549910000000 1.0
C      1  0.4882630000000  0.4793730000000  0.5040640000000 1.0
C      1  0.4475340000000  0.5267980000000  0.4749360000000 1.0
C      1  0.5070030000000  0.4415410000000  0.4881770000000 1.0
C      1  0.5418510000000  0.5073810000000  0.4645160000000 1.0
C      1  0.4640110000000  0.4612540000000  0.4962200000000 1.0
C      1  0.4727720000000  0.5321070000000  0.5052960000000 1.0
C      1  0.4675800000000  0.4143760000000  0.4782050000000 1.0
C      1  0.4996400000000  0.4950430000000  0.4508390000000 1.0
C      1  0.4377220000000  0.5024400000000  0.4664510000000 1.0
C      1  0.4769380000000  0.5327980000000  0.4715560000000 1.0
END
