TITL C-2847946-5639-140 1.13405931968232e-05 125000 -133.783825789555 0 0 25 (C1) n - 1
REM
REM in /home/bkarasulu/work/CARBON/AIRSS/Generating-Clusters/AIREBO/with-SteepDescent/Only-C1/SD-CG-opt/Try1-1.4A-POS3A/HFTN-CG
REM
REM
REM
REM
REM
REM ./C.cell (11c1c37f851c82e70ff6c80c92926a4b)
REM
REM compiler GCC version 9.2.1 20190827 (Red Hat 9.2.1-1)
REM options -cpp -mtune=generic -march=x86-64 -g -O0 -fpre-include=/usr/include/finclude/math-vector-fortran.h
REM seed -855756685 1834271916 489585480 1508167488 -676283492 705729847 307799529 -1020540380 628289092 1841663043 1817236809 1664831005 1317807565 -1259033956 470932458 1908754330 -2119948617 166525089 -259999706 1833746016 1537520394 1771058813 -1549325174 1985008519 -674665139 1161818673 1997108123 -2100296927 1064096027 -1143085862 -743515749 48826972 -1421139019
REM
CELL 1.54180   50.00000   50.00000   50.00000   90.00000   90.00000   90.00000
LATT -1
SFAC C  
C      1  0.4840210000000  0.4746470000000  0.5083020000000 1.0
C      1  0.5400010000000  0.4671590000000  0.4580750000000 1.0
C      1  0.4814480000000  0.5404570000000  0.5395390000000 1.0
C      1  0.4713000000000  0.5187500000000  0.5473310000000 1.0
C      1  0.4986930000000  0.4943110000000  0.4479940000000 1.0
C      1  0.4641770000000  0.4959050000000  0.5256560000000 1.0
C      1  0.4972670000000  0.5445190000000  0.5124220000000 1.0
C      1  0.5143590000000  0.5187670000000  0.5144980000000 1.0
C      1  0.5264570000000  0.5063960000000  0.4884730000000 1.0
C      1  0.4979150000000  0.4943380000000  0.5302550000000 1.0
C      1  0.5325040000000  0.5102110000000  0.5414080000000 1.0
C      1  0.5121900000000  0.5684270000000  0.5117480000000 1.0
C      1  0.4782680000000  0.5416780000000  0.4885940000000 1.0
C      1  0.5012660000000  0.4629280000000  0.4900700000000 1.0
C      1  0.4909930000000  0.5405780000000  0.4623100000000 1.0
C      1  0.4440250000000  0.5094300000000  0.5068710000000 1.0
C      1  0.5296360000000  0.4558260000000  0.5449800000000 1.0
C      1  0.5597630000000  0.4549710000000  0.4474880000000 1.0
C      1  0.5306090000000  0.4399720000000  0.5225980000000 1.0
C      1  0.4815910000000  0.5164740000000  0.4481780000000 1.0
C      1  0.5161360000000  0.4819760000000  0.4708820000000 1.0
C      1  0.4545380000000  0.5249690000000  0.4859920000000 1.0
C      1  0.4544540000000  0.5143130000000  0.4589380000000 1.0
C      1  0.5230920000000  0.4825100000000  0.5476550000000 1.0
C      1  0.5152950000000  0.4404900000000  0.4997440000000 1.0
END
