TITL C-2847958-8115-384 0.00322942354172765 125000 -651.316297518349 0 0 118 (C1) n - 1
REM
REM in /home/bkarasulu/work/CARBON/AIRSS/Generating-Clusters/AIREBO/with-SteepDescent/Only-C1/SD-CG-opt/Try1-1.4A-POS3A/HFTN-CG
REM
REM
REM
REM
REM
REM ./C.cell (11c1c37f851c82e70ff6c80c92926a4b)
REM
REM compiler GCC version 9.2.1 20190827 (Red Hat 9.2.1-1)
REM options -cpp -mtune=generic -march=x86-64 -g -O0 -fpre-include=/usr/include/finclude/math-vector-fortran.h
REM seed 1185458391 773818255 1676776501 1536629150 -1056888536 1812439556 -1648386278 675674475 472676151 1124118686 6391974 414685609 -513312851 176562880 -1833244829 1759990830 508979088 1765925078 66272375 -440448786 654889281 872163833 2065659428 1875460442 1805131430 1677176759 165702544 906474091 458610209 -1305542365 1157058616 507768781 1332633975
REM
CELL 1.54180   50.00000   50.00000   50.00000   90.00000   90.00000   90.00000
LATT -1
SFAC C  
C      1  0.4867660000000  0.5447240000000  0.5111830000000 1.0
C      1  0.4189790000000  0.5834200000000  0.4609420000000 1.0
C      1  0.5459090000000  0.4472460000000  0.4637510000000 1.0
C      1  0.5226480000000  0.4070410000000  0.5158290000000 1.0
C      1  0.4493160000000  0.4122400000000  0.5391060000000 1.0
C      1  0.5219900000000  0.5087530000000  0.5381710000000 1.0
C      1  0.4179880000000  0.5311100000000  0.5443300000000 1.0
C      1  0.5388500000000  0.4723360000000  0.5307760000000 1.0
C      1  0.4931670000000  0.5126180000000  0.4154880000000 1.0
C      1  0.4863280000000  0.4941340000000  0.4850870000000 1.0
C      1  0.4224060000000  0.5506570000000  0.5193540000000 1.0
C      1  0.4962990000000  0.5133290000000  0.5827780000000 1.0
C      1  0.4479570000000  0.5361500000000  0.4233000000000 1.0
C      1  0.5092070000000  0.5512930000000  0.4893590000000 1.0
C      1  0.5353960000000  0.5393180000000  0.4746520000000 1.0
C      1  0.5668840000000  0.5577210000000  0.5159030000000 1.0
C      1  0.5510890000000  0.5151440000000  0.5457940000000 1.0
C      1  0.4365100000000  0.5291890000000  0.4998730000000 1.0
C      1  0.4767680000000  0.4799570000000  0.5742520000000 1.0
C      1  0.4422830000000  0.4886020000000  0.5516540000000 1.0
C      1  0.4723090000000  0.4897700000000  0.4039890000000 1.0
C      1  0.5658090000000  0.4978260000000  0.4564930000000 1.0
C      1  0.4116000000000  0.4842990000000  0.4687550000000 1.0
C      1  0.5176860000000  0.5676740000000  0.5575660000000 1.0
C      1  0.5198540000000  0.4727030000000  0.4472690000000 1.0
C      1  0.4644230000000  0.4422340000000  0.5444280000000 1.0
C      1  0.4833590000000  0.4142230000000  0.5408520000000 1.0
C      1  0.5615520000000  0.4675390000000  0.5073740000000 1.0
C      1  0.4331130000000  0.4736780000000  0.4453090000000 1.0
C      1  0.5049200000000  0.5448180000000  0.5398170000000 1.0
C      1  0.4558330000000  0.5218190000000  0.4531140000000 1.0
C      1  0.5785400000000  0.4832480000000  0.4849900000000 1.0
C      1  0.5888190000000  0.5265150000000  0.5511400000000 1.0
C      1  0.5900020000000  0.4313780000000  0.4850320000000 1.0
C      1  0.5084180000000  0.4451910000000  0.5435630000000 1.0
C      1  0.5271330000000  0.4968990000000  0.4872960000000 1.0
C      1  0.4911480000000  0.4407860000000  0.4905490000000 1.0
C      1  0.5282550000000  0.5593260000000  0.4407990000000 1.0
C      1  0.5249110000000  0.5644120000000  0.5887740000000 1.0
C      1  0.4165300000000  0.4636730000000  0.4906340000000 1.0
C      1  0.4944120000000  0.5869880000000  0.5498290000000 1.0
C      1  0.5439350000000  0.5459740000000  0.5590230000000 1.0
C      1  0.5328730000000  0.4344920000000  0.5646250000000 1.0
C      1  0.5474810000000  0.5200730000000  0.4986670000000 1.0
C      1  0.4627930000000  0.5046150000000  0.5361550000000 1.0
C      1  0.4643690000000  0.4782540000000  0.5057020000000 1.0
C      1  0.4836000000000  0.5733240000000  0.4543660000000 1.0
C      1  0.5359310000000  0.5375260000000  0.5904660000000 1.0
C      1  0.5294790000000  0.5364780000000  0.5199980000000 1.0
C      1  0.5774730000000  0.5345380000000  0.4941680000000 1.0
C      1  0.5610170000000  0.5536240000000  0.4626490000000 1.0
C      1  0.4878730000000  0.5093720000000  0.5136830000000 1.0
C      1  0.5428110000000  0.4797500000000  0.4674410000000 1.0
C      1  0.4654010000000  0.5776620000000  0.4754830000000 1.0
C      1  0.5586210000000  0.5457560000000  0.4332660000000 1.0
C      1  0.4975610000000  0.4084940000000  0.4990590000000 1.0
C      1  0.4868100000000  0.5200890000000  0.4452030000000 1.0
C      1  0.5942220000000  0.5108660000000  0.5278020000000 1.0
C      1  0.5267150000000  0.5263450000000  0.4460960000000 1.0
C      1  0.4931000000000  0.4605260000000  0.4203500000000 1.0
C      1  0.4725000000000  0.5759150000000  0.5383540000000 1.0
C      1  0.4380140000000  0.5740390000000  0.5186520000000 1.0
C      1  0.5416220000000  0.4439620000000  0.4302180000000 1.0
C      1  0.4075200000000  0.5017430000000  0.4976690000000 1.0
C      1  0.4970580000000  0.4590370000000  0.4630360000000 1.0
C      1  0.5235170000000  0.5872210000000  0.4808760000000 1.0
C      1  0.4576290000000  0.5329740000000  0.5241910000000 1.0
C      1  0.3996950000000  0.5132820000000  0.5214070000000 1.0
C      1  0.4422070000000  0.4575680000000  0.4959090000000 1.0
C      1  0.5608420000000  0.4399230000000  0.4904650000000 1.0
C      1  0.4395120000000  0.5679180000000  0.4685890000000 1.0
C      1  0.5109670000000  0.4392320000000  0.4260910000000 1.0
C      1  0.5103380000000  0.4872200000000  0.4180310000000 1.0
C      1  0.4729020000000  0.5580330000000  0.4336040000000 1.0
C      1  0.4600040000000  0.5535440000000  0.5495320000000 1.0
C      1  0.5241320000000  0.5118790000000  0.5898460000000 1.0
C      1  0.5713920000000  0.5495750000000  0.5447200000000 1.0
C      1  0.5991390000000  0.4985720000000  0.4631910000000 1.0
C      1  0.4786340000000  0.4683940000000  0.5310490000000 1.0
C      1  0.4388060000000  0.5401650000000  0.4719670000000 1.0
C      1  0.5032330000000  0.4549980000000  0.5141340000000 1.0
C      1  0.4528390000000  0.4302920000000  0.4870220000000 1.0
C      1  0.5015820000000  0.4060060000000  0.4675990000000 1.0
C      1  0.4486920000000  0.4448780000000  0.4558030000000 1.0
C      1  0.5134530000000  0.4869500000000  0.5135170000000 1.0
C      1  0.4625390000000  0.5104070000000  0.5798490000000 1.0
C      1  0.5160870000000  0.4319480000000  0.4579990000000 1.0
C      1  0.4387910000000  0.4974040000000  0.4948880000000 1.0
C      1  0.5146310000000  0.4136490000000  0.5444300000000 1.0
C      1  0.4602890000000  0.4682540000000  0.4255350000000 1.0
C      1  0.5551810000000  0.4219430000000  0.5799010000000 1.0
C      1  0.5121220000000  0.5765600000000  0.4562120000000 1.0
C      1  0.5766560000000  0.5665200000000  0.4843860000000 1.0
C      1  0.5648610000000  0.4994440000000  0.5187340000000 1.0
C      1  0.5437140000000  0.4934030000000  0.5785260000000 1.0
C      1  0.4708960000000  0.4703500000000  0.4568860000000 1.0
C      1  0.5713080000000  0.5072620000000  0.5716900000000 1.0
C      1  0.5958050000000  0.5101860000000  0.4951330000000 1.0
C      1  0.5348610000000  0.4685760000000  0.5618970000000 1.0
C      1  0.5417180000000  0.4891860000000  0.4148820000000 1.0
C      1  0.4756310000000  0.4255590000000  0.4633870000000 1.0
C      1  0.5359650000000  0.5659940000000  0.5043450000000 1.0
C      1  0.5531760000000  0.5120300000000  0.4319460000000 1.0
C      1  0.5457920000000  0.4165160000000  0.5049020000000 1.0
C      1  0.3884020000000  0.4954320000000  0.5455600000000 1.0
C      1  0.5040050000000  0.4603260000000  0.5736060000000 1.0
C      1  0.5531000000000  0.4642300000000  0.4138240000000 1.0
C      1  0.4693930000000  0.5734160000000  0.5055120000000 1.0
C      1  0.4462080000000  0.5287720000000  0.5632250000000 1.0
C      1  0.5073220000000  0.5118180000000  0.4672130000000 1.0
C      1  0.4872510000000  0.5226950000000  0.5513690000000 1.0
C      1  0.4970050000000  0.4901690000000  0.5496300000000 1.0
C      1  0.4668750000000  0.4158600000000  0.5102170000000 1.0
C      1  0.4179960000000  0.4999670000000  0.5540440000000 1.0
C      1  0.4776350000000  0.5387530000000  0.4087430000000 1.0
C      1  0.4398940000000  0.5030850000000  0.4296290000000 1.0
C      1  0.4580770000000  0.4952880000000  0.4703330000000 1.0
C      1  0.4531590000000  0.4639400000000  0.5627400000000 1.0
END
