TITL C-2847956-8218-458 0.00167201099769106 125000 -155.139008433065 0 0 28 (C1) n - 1
REM
REM in /home/bkarasulu/work/CARBON/AIRSS/Generating-Clusters/AIREBO/with-SteepDescent/Only-C1/SD-CG-opt/Try1-1.4A-POS3A/HFTN-CG
REM
REM
REM
REM
REM
REM ./C.cell (11c1c37f851c82e70ff6c80c92926a4b)
REM
REM compiler GCC version 9.2.1 20190827 (Red Hat 9.2.1-1)
REM options -cpp -mtune=generic -march=x86-64 -g -O0 -fpre-include=/usr/include/finclude/math-vector-fortran.h
REM seed 308575297 815731004 1122127739 -1954523350 -907600015 1904183688 1012160534 1646779259 1820742913 1788204683 841724995 1740601952 1676433542 -746878616 -516254162 179903810 429559598 318454416 1250982414 2146465133 227773482 -1192216851 248448780 593965913 1417278169 -1481817140 -1554078535 -1786712006 1367599822 247933063 -1873808410 110645833 -1708925106
REM
CELL 1.54180   50.00000   50.00000   50.00000   90.00000   90.00000   90.00000
LATT -1
SFAC C  
C      1  0.5092060000000  0.5315630000000  0.5712910000000 1.0
C      1  0.5164030000000  0.5196970000000  0.5953120000000 1.0
C      1  0.4656420000000  0.4598710000000  0.4403530000000 1.0
C      1  0.4931870000000  0.4596770000000  0.4451550000000 1.0
C      1  0.4972270000000  0.4912360000000  0.5113390000000 1.0
C      1  0.5109780000000  0.5165720000000  0.5478160000000 1.0
C      1  0.4578560000000  0.5419400000000  0.4756260000000 1.0
C      1  0.4456240000000  0.4701520000000  0.4577460000000 1.0
C      1  0.4930470000000  0.5163740000000  0.5254610000000 1.0
C      1  0.5356790000000  0.5163910000000  0.4925330000000 1.0
C      1  0.4553530000000  0.4903410000000  0.4754510000000 1.0
C      1  0.5019120000000  0.4823390000000  0.4639590000000 1.0
C      1  0.4200260000000  0.4618930000000  0.4574670000000 1.0
C      1  0.5315980000000  0.4981070000000  0.5403360000000 1.0
C      1  0.5260090000000  0.4703150000000  0.4795010000000 1.0
C      1  0.5142290000000  0.4401010000000  0.4466040000000 1.0
C      1  0.5010670000000  0.5573180000000  0.5705360000000 1.0
C      1  0.4671760000000  0.5167910000000  0.4664520000000 1.0
C      1  0.5207320000000  0.5077540000000  0.6182380000000 1.0
C      1  0.4822210000000  0.4850910000000  0.4889350000000 1.0
C      1  0.5607230000000  0.5271050000000  0.4906560000000 1.0
C      1  0.5324850000000  0.4465010000000  0.4672630000000 1.0
C      1  0.5308640000000  0.4873410000000  0.5080850000000 1.0
C      1  0.4714190000000  0.5525920000000  0.4974480000000 1.0
C      1  0.4958940000000  0.5135800000000  0.4645100000000 1.0
C      1  0.4940010000000  0.5377170000000  0.5059440000000 1.0
C      1  0.5109150000000  0.5279210000000  0.4841560000000 1.0
C      1  0.5585290000000  0.4737180000000  0.5118250000000 1.0
END
