TITL C-2847949-8115-190 -0.00312979123200504 125000 -742.9236445674 0 0 137 (C1) n - 1
REM
REM in /home/bkarasulu/work/CARBON/AIRSS/Generating-Clusters/AIREBO/with-SteepDescent/Only-C1/SD-CG-opt/Try1-1.4A-POS3A/HFTN-CG
REM
REM
REM
REM
REM
REM ./C.cell (11c1c37f851c82e70ff6c80c92926a4b)
REM
REM compiler GCC version 9.2.1 20190827 (Red Hat 9.2.1-1)
REM options -cpp -mtune=generic -march=x86-64 -g -O0 -fpre-include=/usr/include/finclude/math-vector-fortran.h
REM seed -729897470 -1872301788 -1862919275 978101849 -820331052 302271416 -960887872 1385821513 -1280620342 -928375421 1729641763 436309969 1449960538 -1256447553 -20724121 -341115868 1868243072 -1665229689 -232955723 -69413925 1575012620 869185703 -1739106258 1068843492 -583421075 -1394393480 -176858028 -303421216 942751851 20650314 -820874054 -1533229989 41453708
REM
CELL 1.54180   50.00000   50.00000   50.00000   90.00000   90.00000   90.00000
LATT -1
SFAC C  
C      1  0.5454500000000  0.5739210000000  0.5690080000000 1.0
C      1  0.4638640000000  0.4224670000000  0.4869420000000 1.0
C      1  0.5642440000000  0.5498930000000  0.5542010000000 1.0
C      1  0.5887660000000  0.4583780000000  0.4896680000000 1.0
C      1  0.5830060000000  0.4968630000000  0.4515980000000 1.0
C      1  0.4825940000000  0.5585530000000  0.4928070000000 1.0
C      1  0.4521150000000  0.5425180000000  0.5466650000000 1.0
C      1  0.5787720000000  0.5127230000000  0.5555030000000 1.0
C      1  0.5984590000000  0.5218290000000  0.5101980000000 1.0
C      1  0.4836890000000  0.5023750000000  0.4789420000000 1.0
C      1  0.5051130000000  0.4537450000000  0.4941180000000 1.0
C      1  0.4935180000000  0.5758820000000  0.4398350000000 1.0
C      1  0.4608220000000  0.5847290000000  0.5621880000000 1.0
C      1  0.4042160000000  0.4790540000000  0.5525720000000 1.0
C      1  0.4590970000000  0.4219250000000  0.5396530000000 1.0
C      1  0.4356130000000  0.4240530000000  0.4734470000000 1.0
C      1  0.4436060000000  0.5515550000000  0.4413970000000 1.0
C      1  0.4886120000000  0.4052220000000  0.4833430000000 1.0
C      1  0.4443350000000  0.4198120000000  0.5122380000000 1.0
C      1  0.5172680000000  0.4788900000000  0.4001630000000 1.0
C      1  0.4578680000000  0.5403290000000  0.4986030000000 1.0
C      1  0.4489530000000  0.5080270000000  0.5269410000000 1.0
C      1  0.4203610000000  0.4534090000000  0.5408260000000 1.0
C      1  0.5286330000000  0.3986720000000  0.5206740000000 1.0
C      1  0.4492100000000  0.4613780000000  0.5280100000000 1.0
C      1  0.4786340000000  0.5296660000000  0.5858320000000 1.0
C      1  0.4129900000000  0.5153950000000  0.4639740000000 1.0
C      1  0.5246140000000  0.4982440000000  0.5601860000000 1.0
C      1  0.5397230000000  0.4934340000000  0.5863300000000 1.0
C      1  0.4441650000000  0.4417300000000  0.5621740000000 1.0
C      1  0.4759090000000  0.5232450000000  0.5218200000000 1.0
C      1  0.4715390000000  0.5096780000000  0.4281290000000 1.0
C      1  0.5516680000000  0.5484480000000  0.6027020000000 1.0
C      1  0.5766470000000  0.5594280000000  0.5267500000000 1.0
C      1  0.4873490000000  0.5643530000000  0.5684280000000 1.0
C      1  0.4673870000000  0.5329550000000  0.4488360000000 1.0
C      1  0.5561400000000  0.4553340000000  0.4236850000000 1.0
C      1  0.5111340000000  0.5730800000000  0.4180390000000 1.0
C      1  0.4944450000000  0.4957000000000  0.5720000000000 1.0
C      1  0.4594920000000  0.5083400000000  0.3962060000000 1.0
C      1  0.5549330000000  0.4165950000000  0.5182300000000 1.0
C      1  0.5593810000000  0.4791530000000  0.5236170000000 1.0
C      1  0.5007200000000  0.4022240000000  0.5123790000000 1.0
C      1  0.5439480000000  0.4780720000000  0.4056440000000 1.0
C      1  0.5348710000000  0.4672140000000  0.6010920000000 1.0
C      1  0.4601340000000  0.5203710000000  0.4753970000000 1.0
C      1  0.5831990000000  0.4912620000000  0.4813650000000 1.0
C      1  0.4705690000000  0.4782020000000  0.5883820000000 1.0
C      1  0.5341610000000  0.5945250000000  0.4689510000000 1.0
C      1  0.4798770000000  0.5605060000000  0.5371320000000 1.0
C      1  0.4879060000000  0.4377080000000  0.4461110000000 1.0
C      1  0.4750780000000  0.4658350000000  0.4216880000000 1.0
C      1  0.5199410000000  0.5310490000000  0.4494920000000 1.0
C      1  0.5182500000000  0.5655500000000  0.4769160000000 1.0
C      1  0.5664130000000  0.5118370000000  0.5835220000000 1.0
C      1  0.4904570000000  0.5843800000000  0.5219760000000 1.0
C      1  0.4840150000000  0.5848390000000  0.4712630000000 1.0
C      1  0.4112190000000  0.5467000000000  0.5093540000000 1.0
C      1  0.5605370000000  0.4571210000000  0.5563470000000 1.0
C      1  0.5110570000000  0.4627440000000  0.4440430000000 1.0
C      1  0.4527760000000  0.5727080000000  0.4264920000000 1.0
C      1  0.5352840000000  0.4907370000000  0.4943100000000 1.0
C      1  0.5270990000000  0.5211030000000  0.5385460000000 1.0
C      1  0.5421220000000  0.5894610000000  0.4981710000000 1.0
C      1  0.4748070000000  0.5187440000000  0.5555070000000 1.0
C      1  0.4789890000000  0.3979080000000  0.5364080000000 1.0
C      1  0.4382050000000  0.4177210000000  0.4458400000000 1.0
C      1  0.4957740000000  0.5494430000000  0.4571240000000 1.0
C      1  0.4875210000000  0.4714960000000  0.3932160000000 1.0
C      1  0.4206070000000  0.4694930000000  0.4202200000000 1.0
C      1  0.5573180000000  0.5249440000000  0.5321020000000 1.0
C      1  0.4347010000000  0.4700010000000  0.4616680000000 1.0
C      1  0.4405070000000  0.4955940000000  0.5550600000000 1.0
C      1  0.5278290000000  0.4476080000000  0.5561740000000 1.0
C      1  0.4202820000000  0.5464100000000  0.4548060000000 1.0
C      1  0.5408720000000  0.5604890000000  0.4101360000000 1.0
C      1  0.4747210000000  0.4794280000000  0.4958690000000 1.0
C      1  0.4765410000000  0.4508790000000  0.5406610000000 1.0
C      1  0.5312310000000  0.5649510000000  0.5918810000000 1.0
C      1  0.5622020000000  0.4522500000000  0.4693290000000 1.0
C      1  0.4466230000000  0.4746660000000  0.5703380000000 1.0
C      1  0.5144740000000  0.5078900000000  0.5119820000000 1.0
C      1  0.4066280000000  0.5002020000000  0.5344060000000 1.0
C      1  0.5064760000000  0.5491530000000  0.5890690000000 1.0
C      1  0.4726650000000  0.4466190000000  0.5800840000000 1.0
C      1  0.4413620000000  0.4966520000000  0.4203810000000 1.0
C      1  0.5289100000000  0.4155660000000  0.4531670000000 1.0
C      1  0.5819660000000  0.4816190000000  0.5464530000000 1.0
C      1  0.5151320000000  0.5419880000000  0.4048170000000 1.0
C      1  0.4630060000000  0.6035740000000  0.4710230000000 1.0
C      1  0.4721520000000  0.4910890000000  0.3794840000000 1.0
C      1  0.5186120000000  0.4711740000000  0.4746290000000 1.0
C      1  0.5037930000000  0.5402650000000  0.5123890000000 1.0
C      1  0.4159570000000  0.4567550000000  0.5066010000000 1.0
C      1  0.4427930000000  0.5737950000000  0.5419020000000 1.0
C      1  0.5903360000000  0.4827950000000  0.5132780000000 1.0
C      1  0.5398480000000  0.4450120000000  0.4489480000000 1.0
C      1  0.5080680000000  0.5158580000000  0.5957800000000 1.0
C      1  0.5573170000000  0.5668930000000  0.5088430000000 1.0
C      1  0.5641480000000  0.5506280000000  0.4202910000000 1.0
C      1  0.5777180000000  0.5550650000000  0.4499120000000 1.0
C      1  0.4629670000000  0.4600480000000  0.4520880000000 1.0
C      1  0.4375450000000  0.4997190000000  0.4763550000000 1.0
C      1  0.5330660000000  0.4817690000000  0.5357140000000 1.0
C      1  0.5328800000000  0.5486320000000  0.4988720000000 1.0
C      1  0.5738120000000  0.5229610000000  0.4382160000000 1.0
C      1  0.5098700000000  0.5110310000000  0.4717780000000 1.0
C      1  0.5956880000000  0.5345010000000  0.5354120000000 1.0
C      1  0.4924010000000  0.4321940000000  0.5177810000000 1.0
C      1  0.5672590000000  0.4353790000000  0.5032010000000 1.0
C      1  0.5409740000000  0.5198700000000  0.6047470000000 1.0
C      1  0.5495500000000  0.5366560000000  0.4547870000000 1.0
C      1  0.4231640000000  0.4484140000000  0.4809340000000 1.0
C      1  0.5295270000000  0.4455370000000  0.5893850000000 1.0
C      1  0.5566190000000  0.4869090000000  0.4362880000000 1.0
C      1  0.5127720000000  0.5202920000000  0.4226180000000 1.0
C      1  0.5077080000000  0.5462880000000  0.5456290000000 1.0
C      1  0.5024810000000  0.4143340000000  0.4601360000000 1.0
C      1  0.5678610000000  0.5144460000000  0.5010150000000 1.0
C      1  0.4953400000000  0.4845110000000  0.5175650000000 1.0
C      1  0.4979180000000  0.4621330000000  0.5634190000000 1.0
C      1  0.5058250000000  0.5901820000000  0.4967940000000 1.0
C      1  0.5501820000000  0.4629680000000  0.4975460000000 1.0
C      1  0.5363410000000  0.4178480000000  0.5449410000000 1.0
C      1  0.4234880000000  0.5283460000000  0.5342550000000 1.0
C      1  0.4605190000000  0.4258780000000  0.4316400000000 1.0
C      1  0.5735690000000  0.5509900000000  0.5857850000000 1.0
C      1  0.5402170000000  0.5223720000000  0.4828610000000 1.0
C      1  0.5335340000000  0.4939790000000  0.4543000000000 1.0
C      1  0.4748130000000  0.4506640000000  0.4815540000000 1.0
C      1  0.5134560000000  0.4572920000000  0.5268990000000 1.0
C      1  0.4447700000000  0.4844640000000  0.5058720000000 1.0
C      1  0.4111350000000  0.4872560000000  0.5095200000000 1.0
C      1  0.4374850000000  0.5597190000000  0.5138350000000 1.0
C      1  0.4989180000000  0.4895200000000  0.4268780000000 1.0
C      1  0.4052030000000  0.5407250000000  0.4835230000000 1.0
C      1  0.4170840000000  0.4924300000000  0.4430270000000 1.0
END
