TITL C-2848495-5024-660 0.00162638904575391 125000 -799.780031123854 0 0 147 (C1) n - 1
REM
REM in /home/bkarasulu/work/CARBON/AIRSS/Generating-Clusters/AIREBO/with-SteepDescent/Only-C1/SD-CG-opt/Try1-1.4A-POS3A/HFTN-CG
REM
REM
REM
REM
REM
REM ./C.cell (11c1c37f851c82e70ff6c80c92926a4b)
REM
REM compiler GCC version 9.2.1 20190827 (Red Hat 9.2.1-1)
REM options -cpp -mtune=generic -march=x86-64 -g -O0 -fpre-include=/usr/include/finclude/math-vector-fortran.h
REM seed 801311747 1926409565 -1327100873 18196555 -824281926 -433888628 -1451742528 1252822755 2092665215 -812007084 397258725 -14403641 -1517941374 2112713073 -1906149920 779193657 -1880434414 1739592338 857458806 -1657330642 -1229777597 -1229826663 613972423 1077993992 -1738533826 540221184 -57881075 1007299692 313689113 1065837919 -160974675 -1793345643 1352750103
REM
CELL 1.54180   50.00000   50.00000   50.00000   90.00000   90.00000   90.00000
LATT -1
SFAC C  
C      1  0.4968960000000  0.5615060000000  0.5136300000000 1.0
C      1  0.5019230000000  0.5718890000000  0.5703640000000 1.0
C      1  0.4045050000000  0.4919830000000  0.4578970000000 1.0
C      1  0.5325860000000  0.4029200000000  0.5270370000000 1.0
C      1  0.4587150000000  0.4653370000000  0.4903440000000 1.0
C      1  0.4051790000000  0.4898160000000  0.5530130000000 1.0
C      1  0.5508290000000  0.5093340000000  0.5632330000000 1.0
C      1  0.5471620000000  0.5660730000000  0.5116150000000 1.0
C      1  0.4693790000000  0.5215450000000  0.4875920000000 1.0
C      1  0.5816410000000  0.5484130000000  0.5213190000000 1.0
C      1  0.6075120000000  0.4865460000000  0.4783830000000 1.0
C      1  0.4263460000000  0.4709770000000  0.5451790000000 1.0
C      1  0.5547420000000  0.4680510000000  0.5858700000000 1.0
C      1  0.4359050000000  0.4335950000000  0.4986880000000 1.0
C      1  0.4480790000000  0.5540280000000  0.4439790000000 1.0
C      1  0.4992700000000  0.4155010000000  0.4911450000000 1.0
C      1  0.4196490000000  0.5078940000000  0.5053720000000 1.0
C      1  0.5589360000000  0.4156040000000  0.5148840000000 1.0
C      1  0.4960450000000  0.5280080000000  0.5077390000000 1.0
C      1  0.4463310000000  0.4785800000000  0.4057200000000 1.0
C      1  0.5431760000000  0.5383340000000  0.5742340000000 1.0
C      1  0.5619200000000  0.5184400000000  0.4200780000000 1.0
C      1  0.5064790000000  0.5636710000000  0.4322910000000 1.0
C      1  0.5437350000000  0.5162560000000  0.4984730000000 1.0
C      1  0.4198080000000  0.5521960000000  0.4965950000000 1.0
C      1  0.4434450000000  0.5081400000000  0.3999160000000 1.0
C      1  0.4098210000000  0.5005050000000  0.5817060000000 1.0
C      1  0.5178390000000  0.5283040000000  0.3954840000000 1.0
C      1  0.5038660000000  0.5971200000000  0.5583190000000 1.0
C      1  0.4799140000000  0.5338550000000  0.4309670000000 1.0
C      1  0.5312860000000  0.4535300000000  0.4031590000000 1.0
C      1  0.4676190000000  0.5074850000000  0.4232300000000 1.0
C      1  0.4436750000000  0.4788150000000  0.5177050000000 1.0
C      1  0.4650240000000  0.4656610000000  0.4285280000000 1.0
C      1  0.4789990000000  0.5497610000000  0.5714920000000 1.0
C      1  0.5536710000000  0.4476380000000  0.5081050000000 1.0
C      1  0.5360720000000  0.4950730000000  0.4430630000000 1.0
C      1  0.4551420000000  0.4566110000000  0.5968550000000 1.0
C      1  0.5165310000000  0.5545740000000  0.4562120000000 1.0
C      1  0.5751510000000  0.4788800000000  0.4750040000000 1.0
C      1  0.4329320000000  0.5163670000000  0.5638680000000 1.0
C      1  0.4429150000000  0.4600230000000  0.5701920000000 1.0
C      1  0.4952890000000  0.4531470000000  0.4202860000000 1.0
C      1  0.4945530000000  0.4149210000000  0.4515320000000 1.0
C      1  0.5524790000000  0.5598100000000  0.5507390000000 1.0
C      1  0.4593400000000  0.4175870000000  0.4919620000000 1.0
C      1  0.5588120000000  0.4506920000000  0.4405520000000 1.0
C      1  0.4749510000000  0.5671740000000  0.4282080000000 1.0
C      1  0.4807290000000  0.4654510000000  0.5162570000000 1.0
C      1  0.4202660000000  0.4812740000000  0.4842130000000 1.0
C      1  0.4802490000000  0.5948850000000  0.4718810000000 1.0
C      1  0.5151560000000  0.6187350000000  0.5696010000000 1.0
C      1  0.5788930000000  0.5591930000000  0.4884000000000 1.0
C      1  0.4390580000000  0.5003840000000  0.4384160000000 1.0
C      1  0.5717710000000  0.5319230000000  0.5480470000000 1.0
C      1  0.5408900000000  0.5468410000000  0.4875460000000 1.0
C      1  0.4762390000000  0.5069000000000  0.5385110000000 1.0
C      1  0.4392750000000  0.5109340000000  0.5952500000000 1.0
C      1  0.5323410000000  0.5066910000000  0.4113180000000 1.0
C      1  0.5750320000000  0.4712650000000  0.5672170000000 1.0
C      1  0.5311220000000  0.4801570000000  0.5090470000000 1.0
C      1  0.5863040000000  0.5426780000000  0.4596140000000 1.0
C      1  0.5130570000000  0.5072180000000  0.4868730000000 1.0
C      1  0.4370540000000  0.4207880000000  0.4451090000000 1.0
C      1  0.3953860000000  0.5447530000000  0.4768840000000 1.0
C      1  0.5788850000000  0.4337320000000  0.5356120000000 1.0
C      1  0.4564750000000  0.4541920000000  0.4589320000000 1.0
C      1  0.5761490000000  0.5806100000000  0.5218370000000 1.0
C      1  0.4818800000000  0.4909930000000  0.4651170000000 1.0
C      1  0.4216650000000  0.4498650000000  0.4806470000000 1.0
C      1  0.5404870000000  0.3994420000000  0.4702340000000 1.0
C      1  0.5163750000000  0.5447970000000  0.5584270000000 1.0
C      1  0.4196350000000  0.4405610000000  0.4524210000000 1.0
C      1  0.4016040000000  0.5223970000000  0.4625280000000 1.0
C      1  0.5380750000000  0.4389130000000  0.4260150000000 1.0
C      1  0.5425550000000  0.4460420000000  0.5548860000000 1.0
C      1  0.4746870000000  0.5709690000000  0.5376070000000 1.0
C      1  0.4284110000000  0.5412880000000  0.5490940000000 1.0
C      1  0.5045640000000  0.4446540000000  0.4919230000000 1.0
C      1  0.5004200000000  0.4280810000000  0.5749000000000 1.0
C      1  0.5853550000000  0.4905030000000  0.4361560000000 1.0
C      1  0.4457460000000  0.5703130000000  0.5068660000000 1.0
C      1  0.5315270000000  0.4878180000000  0.5812070000000 1.0
C      1  0.4913790000000  0.5975390000000  0.5324380000000 1.0
C      1  0.4752120000000  0.4380850000000  0.5643880000000 1.0
C      1  0.4576730000000  0.4958660000000  0.5608500000000 1.0
C      1  0.5054300000000  0.5141810000000  0.5484270000000 1.0
C      1  0.5138320000000  0.5664630000000  0.4845650000000 1.0
C      1  0.5549800000000  0.5314620000000  0.4634500000000 1.0
C      1  0.5918000000000  0.5289130000000  0.4967660000000 1.0
C      1  0.5111570000000  0.4378290000000  0.4421630000000 1.0
C      1  0.4498870000000  0.5625200000000  0.5592860000000 1.0
C      1  0.5334430000000  0.4826860000000  0.4750950000000 1.0
C      1  0.4326700000000  0.5198270000000  0.4619200000000 1.0
C      1  0.4299070000000  0.4716310000000  0.4466980000000 1.0
C      1  0.4656880000000  0.4214820000000  0.4605460000000 1.0
C      1  0.5572490000000  0.4173070000000  0.4823180000000 1.0
C      1  0.6143220000000  0.5089550000000  0.4880980000000 1.0
C      1  0.5043640000000  0.4709790000000  0.5695530000000 1.0
C      1  0.3975980000000  0.5060430000000  0.5311900000000 1.0
C      1  0.5232240000000  0.4528840000000  0.4678310000000 1.0
C      1  0.4895500000000  0.4883960000000  0.4338070000000 1.0
C      1  0.4612960000000  0.5851760000000  0.4507990000000 1.0
C      1  0.4894280000000  0.6080550000000  0.5024040000000 1.0
C      1  0.5219210000000  0.4250910000000  0.5928600000000 1.0
C      1  0.4094040000000  0.5356620000000  0.5226890000000 1.0
C      1  0.5091430000000  0.5116370000000  0.5792920000000 1.0
C      1  0.5134360000000  0.5975890000000  0.4807220000000 1.0
C      1  0.5566240000000  0.4501900000000  0.4736800000000 1.0
C      1  0.5017540000000  0.5446990000000  0.4088060000000 1.0
C      1  0.4965040000000  0.4776140000000  0.4894550000000 1.0
C      1  0.4481390000000  0.5444890000000  0.5237110000000 1.0
C      1  0.5613620000000  0.4774810000000  0.4337960000000 1.0
C      1  0.5149130000000  0.4801990000000  0.4126920000000 1.0
C      1  0.5242340000000  0.5613900000000  0.5319190000000 1.0
C      1  0.5121980000000  0.3998420000000  0.4697530000000 1.0
C      1  0.5638210000000  0.4645210000000  0.5358240000000 1.0
C      1  0.5440990000000  0.4922310000000  0.5367230000000 1.0
C      1  0.5042620000000  0.4167650000000  0.5307020000000 1.0
C      1  0.4887160000000  0.5228310000000  0.4586050000000 1.0
C      1  0.4793540000000  0.4363830000000  0.5247890000000 1.0
C      1  0.4520120000000  0.5116950000000  0.5151400000000 1.0
C      1  0.4356830000000  0.5310010000000  0.4239910000000 1.0
C      1  0.4503220000000  0.4954510000000  0.4769720000000 1.0
C      1  0.4758910000000  0.4792290000000  0.5842800000000 1.0
C      1  0.5446700000000  0.4399880000000  0.5847180000000 1.0
C      1  0.5106340000000  0.4456080000000  0.5476020000000 1.0
C      1  0.5727000000000  0.5393100000000  0.4286260000000 1.0
C      1  0.5917310000000  0.5072590000000  0.5434220000000 1.0
C      1  0.4818250000000  0.4004630000000  0.5109010000000 1.0
C      1  0.5606890000000  0.5879050000000  0.4893340000000 1.0
C      1  0.6100490000000  0.4837110000000  0.4270590000000 1.0
C      1  0.4719390000000  0.5791330000000  0.4986980000000 1.0
C      1  0.5800320000000  0.5090900000000  0.4601090000000 1.0
C      1  0.4668570000000  0.5071390000000  0.5980140000000 1.0
C      1  0.5212260000000  0.4523800000000  0.5162080000000 1.0
C      1  0.5242890000000  0.5166700000000  0.5238000000000 1.0
C      1  0.5729320000000  0.5031930000000  0.4986950000000 1.0
C      1  0.5227140000000  0.5225020000000  0.4580780000000 1.0
C      1  0.5827730000000  0.4894340000000  0.5240690000000 1.0
C      1  0.4552700000000  0.4290300000000  0.5421590000000 1.0
C      1  0.4673790000000  0.4666090000000  0.5475100000000 1.0
C      1  0.4750920000000  0.5383670000000  0.5401380000000 1.0
C      1  0.4462560000000  0.5445470000000  0.4765980000000 1.0
C      1  0.4364180000000  0.4465130000000  0.5257460000000 1.0
C      1  0.4863520000000  0.5257520000000  0.5901410000000 1.0
C      1  0.5408980000000  0.6057150000000  0.4790300000000 1.0
END
