TITL C-2848496-4490-738 0.00217701096241763 125000 -659.805039874128 0 0 125 (C1) n - 1
REM
REM in /home/bkarasulu/work/CARBON/AIRSS/Generating-Clusters/AIREBO/with-SteepDescent/Only-C1/SD-CG-opt/Try1-1.4A-POS3A/HFTN-CG
REM
REM
REM
REM
REM
REM ./C.cell (11c1c37f851c82e70ff6c80c92926a4b)
REM
REM compiler GCC version 9.2.1 20190827 (Red Hat 9.2.1-1)
REM options -cpp -mtune=generic -march=x86-64 -g -O0 -fpre-include=/usr/include/finclude/math-vector-fortran.h
REM seed -2006562121 -60429460 -1951240169 -393226819 -875311744 716829473 1694350977 -1277862783 2089525784 -1422913781 953935974 -401942038 30162697 22355059 -670667857 1039944264 -1583482208 1595183692 1445681967 1085960417 -1809447754 1964658425 -1791973270 -837982804 383350736 -219704714 -1989415178 -421161359 1782034418 -1616255250 -798428226 1207870894 1186590606
REM
CELL 1.54180   50.00000   50.00000   50.00000   90.00000   90.00000   90.00000
LATT -1
SFAC C  
C      1  0.4970300000000  0.5619410000000  0.5690490000000 1.0
C      1  0.4361910000000  0.4421650000000  0.4838840000000 1.0
C      1  0.4629120000000  0.5750500000000  0.5201230000000 1.0
C      1  0.5193130000000  0.4290650000000  0.4574810000000 1.0
C      1  0.5096370000000  0.5161920000000  0.5534880000000 1.0
C      1  0.4230810000000  0.4757650000000  0.5263030000000 1.0
C      1  0.4586620000000  0.4847300000000  0.4134520000000 1.0
C      1  0.5085460000000  0.5046870000000  0.4675380000000 1.0
C      1  0.5841360000000  0.5058190000000  0.5032730000000 1.0
C      1  0.4378360000000  0.5114600000000  0.5165490000000 1.0
C      1  0.4831860000000  0.5449410000000  0.4235620000000 1.0
C      1  0.5358860000000  0.4804430000000  0.5786260000000 1.0
C      1  0.5639270000000  0.4578240000000  0.4779330000000 1.0
C      1  0.4579150000000  0.5722720000000  0.4651570000000 1.0
C      1  0.5200790000000  0.5804090000000  0.5137750000000 1.0
C      1  0.4491000000000  0.5333330000000  0.4674520000000 1.0
C      1  0.4610070000000  0.4264920000000  0.4676300000000 1.0
C      1  0.4747030000000  0.4156540000000  0.5473330000000 1.0
C      1  0.5360330000000  0.5142970000000  0.5748390000000 1.0
C      1  0.4998380000000  0.5370800000000  0.4732200000000 1.0
C      1  0.4765520000000  0.4374160000000  0.5065700000000 1.0
C      1  0.4411660000000  0.4961710000000  0.5432550000000 1.0
C      1  0.4858830000000  0.5637570000000  0.4994440000000 1.0
C      1  0.5531500000000  0.5058300000000  0.5062780000000 1.0
C      1  0.4345320000000  0.5784790000000  0.5346120000000 1.0
C      1  0.4546080000000  0.4576200000000  0.5425860000000 1.0
C      1  0.5904550000000  0.5290110000000  0.4810000000000 1.0
C      1  0.5444660000000  0.4494550000000  0.4513140000000 1.0
C      1  0.4505650000000  0.5360410000000  0.4983810000000 1.0
C      1  0.4471630000000  0.5671480000000  0.4910330000000 1.0
C      1  0.4667010000000  0.4666280000000  0.4922140000000 1.0
C      1  0.5008970000000  0.4565220000000  0.5154050000000 1.0
C      1  0.5161060000000  0.4658020000000  0.4421000000000 1.0
C      1  0.4757640000000  0.5233480000000  0.5142010000000 1.0
C      1  0.5013700000000  0.3979900000000  0.5078700000000 1.0
C      1  0.5778250000000  0.4958240000000  0.4477220000000 1.0
C      1  0.5637460000000  0.5211090000000  0.5570170000000 1.0
C      1  0.5574270000000  0.5512580000000  0.5517710000000 1.0
C      1  0.5501980000000  0.5347380000000  0.4447820000000 1.0
C      1  0.5318160000000  0.4600110000000  0.5016810000000 1.0
C      1  0.5247470000000  0.4911760000000  0.5129090000000 1.0
C      1  0.4675040000000  0.4575760000000  0.4612970000000 1.0
C      1  0.4315650000000  0.4933360000000  0.5751110000000 1.0
C      1  0.4865760000000  0.4691970000000  0.5435380000000 1.0
C      1  0.4383610000000  0.5297170000000  0.4295620000000 1.0
C      1  0.4248810000000  0.5127050000000  0.4557380000000 1.0
C      1  0.4977430000000  0.4724170000000  0.4666620000000 1.0
C      1  0.4914360000000  0.5924130000000  0.5265530000000 1.0
C      1  0.5141700000000  0.5490350000000  0.5016560000000 1.0
C      1  0.4976960000000  0.4438190000000  0.4145420000000 1.0
C      1  0.5075310000000  0.5557820000000  0.4201320000000 1.0
C      1  0.5207520000000  0.4885040000000  0.4072960000000 1.0
C      1  0.4913330000000  0.5704810000000  0.4671900000000 1.0
C      1  0.5078210000000  0.5375580000000  0.5330230000000 1.0
C      1  0.5561260000000  0.4882610000000  0.5524230000000 1.0
C      1  0.4247890000000  0.4820260000000  0.4523200000000 1.0
C      1  0.4470940000000  0.4711010000000  0.4395350000000 1.0
C      1  0.4901870000000  0.4524360000000  0.5882580000000 1.0
C      1  0.5659960000000  0.5600230000000  0.4599010000000 1.0
C      1  0.5620320000000  0.4404030000000  0.5427210000000 1.0
C      1  0.5424390000000  0.4667300000000  0.4218580000000 1.0
C      1  0.5416630000000  0.4336040000000  0.5207340000000 1.0
C      1  0.4565600000000  0.4935640000000  0.4740980000000 1.0
C      1  0.5705150000000  0.4660540000000  0.5357580000000 1.0
C      1  0.5834900000000  0.5116270000000  0.5352040000000 1.0
C      1  0.4690870000000  0.4916770000000  0.5621330000000 1.0
C      1  0.5591480000000  0.5637810000000  0.5033300000000 1.0
C      1  0.4143760000000  0.5246510000000  0.4858680000000 1.0
C      1  0.5957640000000  0.4797240000000  0.4900860000000 1.0
C      1  0.5290020000000  0.5581400000000  0.4366010000000 1.0
C      1  0.4757150000000  0.4977900000000  0.4462810000000 1.0
C      1  0.5144230000000  0.5379520000000  0.5864830000000 1.0
C      1  0.4359660000000  0.4618750000000  0.5629690000000 1.0
C      1  0.4268130000000  0.4933530000000  0.4905980000000 1.0
C      1  0.5060250000000  0.4729640000000  0.5714010000000 1.0
C      1  0.5320200000000  0.5911140000000  0.4890370000000 1.0
C      1  0.4921880000000  0.4948990000000  0.5219750000000 1.0
C      1  0.4833230000000  0.5029470000000  0.4902740000000 1.0
C      1  0.4428490000000  0.4558920000000  0.5130190000000 1.0
C      1  0.4681470000000  0.5444510000000  0.5642680000000 1.0
C      1  0.4643110000000  0.5182300000000  0.4142280000000 1.0
C      1  0.4766670000000  0.5475800000000  0.5347090000000 1.0
C      1  0.4441160000000  0.5572800000000  0.4435310000000 1.0
C      1  0.5069830000000  0.4467640000000  0.4826050000000 1.0
C      1  0.4998070000000  0.4236590000000  0.4337370000000 1.0
C      1  0.5762080000000  0.5629470000000  0.5303940000000 1.0
C      1  0.4960350000000  0.5075490000000  0.4208190000000 1.0
C      1  0.4808220000000  0.4057900000000  0.4817880000000 1.0
C      1  0.5310070000000  0.5617360000000  0.5704800000000 1.0
C      1  0.5263680000000  0.4932760000000  0.5425160000000 1.0
C      1  0.4843400000000  0.5167870000000  0.5707750000000 1.0
C      1  0.4759000000000  0.4127990000000  0.5204870000000 1.0
C      1  0.5142860000000  0.4174590000000  0.5304280000000 1.0
C      1  0.5759750000000  0.4671180000000  0.5088580000000 1.0
C      1  0.5484200000000  0.4888110000000  0.4453590000000 1.0
C      1  0.5237570000000  0.5737610000000  0.4626900000000 1.0
C      1  0.4235600000000  0.5528500000000  0.5409440000000 1.0
C      1  0.5890370000000  0.4744220000000  0.4621140000000 1.0
C      1  0.5401210000000  0.4821000000000  0.4771710000000 1.0
C      1  0.5546700000000  0.4287700000000  0.4916470000000 1.0
C      1  0.4852640000000  0.4703620000000  0.4285350000000 1.0
C      1  0.5287010000000  0.5603360000000  0.5371140000000 1.0
C      1  0.4917810000000  0.5959510000000  0.4902390000000 1.0
C      1  0.5407050000000  0.5501990000000  0.4804210000000 1.0
C      1  0.5612720000000  0.4353870000000  0.5706750000000 1.0
C      1  0.4367200000000  0.5415400000000  0.5645120000000 1.0
C      1  0.4002020000000  0.4841940000000  0.5097060000000 1.0
C      1  0.4248890000000  0.5229030000000  0.5806150000000 1.0
C      1  0.4184330000000  0.4642970000000  0.4750500000000 1.0
C      1  0.4769690000000  0.5294640000000  0.4516230000000 1.0
C      1  0.5354830000000  0.4478500000000  0.5811860000000 1.0
C      1  0.5373410000000  0.5161240000000  0.4815430000000 1.0
C      1  0.4763400000000  0.4118820000000  0.4425400000000 1.0
C      1  0.5339990000000  0.5192500000000  0.4067300000000 1.0
C      1  0.5805780000000  0.5233090000000  0.4549410000000 1.0
C      1  0.4920070000000  0.4385570000000  0.5572710000000 1.0
C      1  0.5250440000000  0.5126300000000  0.4388600000000 1.0
C      1  0.5126830000000  0.4592050000000  0.3962400000000 1.0
C      1  0.5841620000000  0.5455900000000  0.5044980000000 1.0
C      1  0.4939100000000  0.5893800000000  0.5564000000000 1.0
C      1  0.4161350000000  0.5360370000000  0.5180720000000 1.0
C      1  0.5117390000000  0.4073510000000  0.4777850000000 1.0
C      1  0.4588830000000  0.4795730000000  0.5900030000000 1.0
C      1  0.5242680000000  0.4328680000000  0.5565840000000 1.0
C      1  0.4928450000000  0.5215380000000  0.6013310000000 1.0
END
