TITL C-2847944-5688-353 -0.00373351309527863 125000 -621.812103098489 0 0 116 (C1) n - 1
REM
REM in /home/bkarasulu/work/CARBON/AIRSS/Generating-Clusters/AIREBO/with-SteepDescent/Only-C1/SD-CG-opt/Try1-1.4A-POS3A/HFTN-CG
REM
REM
REM
REM
REM
REM ./C.cell (11c1c37f851c82e70ff6c80c92926a4b)
REM
REM compiler GCC version 9.2.1 20190827 (Red Hat 9.2.1-1)
REM options -cpp -mtune=generic -march=x86-64 -g -O0 -fpre-include=/usr/include/finclude/math-vector-fortran.h
REM seed 260480794 1316155214 -716784381 704901139 897314099 -1563568486 -1237663812 -1160309553 553299963 -1409249558 -1040608153 -751216807 313952127 1848345966 -648403364 887524878 2044199198 67750053 934203217 -2144045724 620992879 1422357855 -2080050344 -1424951498 738778232 1359368782 -476873889 1940713392 -786621263 -597628136 562168249 -1133003402 -255451637
REM
CELL 1.54180   50.00000   50.00000   50.00000   90.00000   90.00000   90.00000
LATT -1
SFAC C  
C      1  0.4773130000000  0.5533890000000  0.4455990000000 1.0
C      1  0.4408260000000  0.5585000000000  0.4703300000000 1.0
C      1  0.5708130000000  0.5125340000000  0.5642430000000 1.0
C      1  0.4106220000000  0.5203330000000  0.4542540000000 1.0
C      1  0.5185320000000  0.5715850000000  0.4958870000000 1.0
C      1  0.5065900000000  0.3956910000000  0.4657110000000 1.0
C      1  0.4863520000000  0.6045450000000  0.5426520000000 1.0
C      1  0.4682150000000  0.4525380000000  0.5398060000000 1.0
C      1  0.5556480000000  0.4764330000000  0.5561360000000 1.0
C      1  0.4837070000000  0.5609770000000  0.5742770000000 1.0
C      1  0.4108700000000  0.4957750000000  0.4476770000000 1.0
C      1  0.4977670000000  0.4704070000000  0.5920860000000 1.0
C      1  0.5663950000000  0.4612800000000  0.4508950000000 1.0
C      1  0.5423080000000  0.5040310000000  0.5815960000000 1.0
C      1  0.5217340000000  0.5757360000000  0.4356660000000 1.0
C      1  0.4652660000000  0.5460940000000  0.5873960000000 1.0
C      1  0.4962710000000  0.5730040000000  0.4262710000000 1.0
C      1  0.4537350000000  0.4531410000000  0.5090230000000 1.0
C      1  0.5250290000000  0.4797780000000  0.5921040000000 1.0
C      1  0.4388750000000  0.5204020000000  0.5020940000000 1.0
C      1  0.5208060000000  0.4433030000000  0.5253200000000 1.0
C      1  0.5357260000000  0.4766830000000  0.4912640000000 1.0
C      1  0.4820220000000  0.5466780000000  0.5295530000000 1.0
C      1  0.5225790000000  0.5231330000000  0.4244090000000 1.0
C      1  0.4116760000000  0.4921810000000  0.5092500000000 1.0
C      1  0.4854770000000  0.5405350000000  0.4760210000000 1.0
C      1  0.5474890000000  0.4113860000000  0.4815930000000 1.0
C      1  0.4826520000000  0.5118090000000  0.4580440000000 1.0
C      1  0.4693160000000  0.4565930000000  0.5937290000000 1.0
C      1  0.4940030000000  0.4393910000000  0.5671440000000 1.0
C      1  0.4350300000000  0.5796250000000  0.4510050000000 1.0
C      1  0.5836400000000  0.5085860000000  0.4649070000000 1.0
C      1  0.5112760000000  0.5084530000000  0.5061640000000 1.0
C      1  0.4293200000000  0.4775150000000  0.4653210000000 1.0
C      1  0.4170440000000  0.4409160000000  0.4994240000000 1.0
C      1  0.5642210000000  0.4951010000000  0.4888970000000 1.0
C      1  0.5619850000000  0.5531310000000  0.5219410000000 1.0
C      1  0.4823510000000  0.5251240000000  0.5068630000000 1.0
C      1  0.5190220000000  0.5460410000000  0.4735610000000 1.0
C      1  0.4907320000000  0.4435740000000  0.4272290000000 1.0
C      1  0.4512410000000  0.5561910000000  0.5315180000000 1.0
C      1  0.4815370000000  0.5924290000000  0.4724900000000 1.0
C      1  0.5410170000000  0.5475030000000  0.4995580000000 1.0
C      1  0.4396970000000  0.4228180000000  0.5145830000000 1.0
C      1  0.5353480000000  0.5053410000000  0.4633920000000 1.0
C      1  0.5414820000000  0.4862940000000  0.5201610000000 1.0
C      1  0.4927530000000  0.4770830000000  0.4216830000000 1.0
C      1  0.5320770000000  0.5486010000000  0.4449870000000 1.0
C      1  0.4832160000000  0.4170440000000  0.5505850000000 1.0
C      1  0.5097310000000  0.4976830000000  0.4427700000000 1.0
C      1  0.5547680000000  0.5217470000000  0.4262610000000 1.0
C      1  0.4512860000000  0.4588630000000  0.4570970000000 1.0
C      1  0.5425330000000  0.4498370000000  0.4722540000000 1.0
C      1  0.5753270000000  0.4895100000000  0.5206090000000 1.0
C      1  0.4862180000000  0.4719410000000  0.5610820000000 1.0
C      1  0.4935570000000  0.4953680000000  0.4830710000000 1.0
C      1  0.5848700000000  0.5350800000000  0.5174710000000 1.0
C      1  0.4721100000000  0.4340720000000  0.4467110000000 1.0
C      1  0.5009850000000  0.5400990000000  0.5570110000000 1.0
C      1  0.4358400000000  0.4732460000000  0.5567180000000 1.0
C      1  0.4898730000000  0.4498930000000  0.4926090000000 1.0
C      1  0.5380780000000  0.5165420000000  0.4926540000000 1.0
C      1  0.5219540000000  0.4445750000000  0.5592800000000 1.0
C      1  0.4302830000000  0.5387490000000  0.5253480000000 1.0
C      1  0.5037070000000  0.5145550000000  0.5388020000000 1.0
C      1  0.4650560000000  0.5822370000000  0.4493040000000 1.0
C      1  0.5077880000000  0.4125800000000  0.5318800000000 1.0
C      1  0.5417760000000  0.5063270000000  0.5476500000000 1.0
C      1  0.5008270000000  0.5793640000000  0.5512470000000 1.0
C      1  0.4589100000000  0.5772210000000  0.5133050000000 1.0
C      1  0.4944840000000  0.4646420000000  0.5219080000000 1.0
C      1  0.4993320000000  0.5312790000000  0.4063210000000 1.0
C      1  0.5692330000000  0.4620650000000  0.5354260000000 1.0
C      1  0.5250960000000  0.5967230000000  0.4545580000000 1.0
C      1  0.4806270000000  0.4722730000000  0.4530830000000 1.0
C      1  0.4340720000000  0.5296460000000  0.4729720000000 1.0
C      1  0.5607810000000  0.4941670000000  0.4442220000000 1.0
C      1  0.5644240000000  0.5462950000000  0.4419010000000 1.0
C      1  0.5273080000000  0.5610180000000  0.5621250000000 1.0
C      1  0.5637350000000  0.4349740000000  0.4956310000000 1.0
C      1  0.4467000000000  0.5024520000000  0.5555100000000 1.0
C      1  0.5185490000000  0.4569940000000  0.4122900000000 1.0
C      1  0.4776750000000  0.4900540000000  0.4017750000000 1.0
C      1  0.5127180000000  0.5606540000000  0.5251800000000 1.0
C      1  0.4149540000000  0.4691020000000  0.4914980000000 1.0
C      1  0.4608700000000  0.5218730000000  0.5770760000000 1.0
C      1  0.5898660000000  0.5304200000000  0.4907280000000 1.0
C      1  0.5070560000000  0.4683270000000  0.4741130000000 1.0
C      1  0.4956080000000  0.4167610000000  0.4875010000000 1.0
C      1  0.5242690000000  0.4309220000000  0.4938270000000 1.0
C      1  0.5541390000000  0.5717670000000  0.5492580000000 1.0
C      1  0.4063250000000  0.5181300000000  0.5246100000000 1.0
C      1  0.5272300000000  0.4691360000000  0.4488030000000 1.0
C      1  0.4642220000000  0.4805330000000  0.4918230000000 1.0
C      1  0.4765730000000  0.4934240000000  0.5188180000000 1.0
C      1  0.5835540000000  0.5407920000000  0.4606480000000 1.0
C      1  0.5343870000000  0.3913140000000  0.4669640000000 1.0
C      1  0.4630250000000  0.4385830000000  0.4797080000000 1.0
C      1  0.4527420000000  0.5018470000000  0.4695680000000 1.0
C      1  0.5387960000000  0.4620730000000  0.5727770000000 1.0
C      1  0.4661730000000  0.6017810000000  0.5243670000000 1.0
C      1  0.4805850000000  0.5013910000000  0.5580990000000 1.0
C      1  0.5359420000000  0.5384950000000  0.5381420000000 1.0
C      1  0.4860160000000  0.4035740000000  0.5132320000000 1.0
C      1  0.4290390000000  0.4634280000000  0.5300080000000 1.0
C      1  0.4778470000000  0.5387620000000  0.4171150000000 1.0
C      1  0.4522580000000  0.4538930000000  0.5703780000000 1.0
C      1  0.5157140000000  0.4845800000000  0.5377380000000 1.0
C      1  0.4593920000000  0.4076100000000  0.5276010000000 1.0
C      1  0.5546520000000  0.4430830000000  0.5215960000000 1.0
C      1  0.5087610000000  0.5936840000000  0.4776740000000 1.0
C      1  0.4662960000000  0.5667600000000  0.4860940000000 1.0
C      1  0.5778400000000  0.4676910000000  0.4781270000000 1.0
C      1  0.4428090000000  0.4937680000000  0.5228680000000 1.0
C      1  0.5836740000000  0.5136100000000  0.5357530000000 1.0
C      1  0.5475730000000  0.4709190000000  0.4231540000000 1.0
END
