TITL C-2847944-5688-206 0.0016026984488976 125000 -872.015613260824 0 0 162 (C1) n - 1
REM
REM in /home/bkarasulu/work/CARBON/AIRSS/Generating-Clusters/AIREBO/with-SteepDescent/Only-C1/SD-CG-opt/Try1-1.4A-POS3A/HFTN-CG
REM
REM
REM
REM
REM
REM ./C.cell (11c1c37f851c82e70ff6c80c92926a4b)
REM
REM compiler GCC version 9.2.1 20190827 (Red Hat 9.2.1-1)
REM options -cpp -mtune=generic -march=x86-64 -g -O0 -fpre-include=/usr/include/finclude/math-vector-fortran.h
REM seed -1533028160 -377922657 -108626691 -1421337842 663270236 -860141748 -1288951461 -1527515814 1423866127 -884504457 -1428683138 -679440031 -1373073012 -1448541819 -1040425762 476086420 1462257572 -841175909 -1586745783 -237046183 2014808669 -907518541 1413418709 1509335741 -1189375868 562681884 -2059883300 1636761976 1815149482 -1141981583 -595258986 722574680 1184134958
REM
CELL 1.54180   50.00000   50.00000   50.00000   90.00000   90.00000   90.00000
LATT -1
SFAC C  
C      1  0.4259390000000  0.5260220000000  0.4969630000000 1.0
C      1  0.4904600000000  0.5097900000000  0.5487680000000 1.0
C      1  0.5387380000000  0.4593010000000  0.5027340000000 1.0
C      1  0.4119660000000  0.5109690000000  0.5441890000000 1.0
C      1  0.5736520000000  0.5593140000000  0.4678330000000 1.0
C      1  0.5300820000000  0.3992890000000  0.5560790000000 1.0
C      1  0.5299270000000  0.5336140000000  0.4378530000000 1.0
C      1  0.4197330000000  0.5606600000000  0.4546990000000 1.0
C      1  0.4938910000000  0.5166430000000  0.4189210000000 1.0
C      1  0.4915690000000  0.5403190000000  0.4667350000000 1.0
C      1  0.4087400000000  0.4863450000000  0.5308430000000 1.0
C      1  0.4977390000000  0.5372020000000  0.5293240000000 1.0
C      1  0.4804610000000  0.3919210000000  0.4966990000000 1.0
C      1  0.4443160000000  0.5643040000000  0.5445300000000 1.0
C      1  0.5843950000000  0.5240640000000  0.5468840000000 1.0
C      1  0.4708580000000  0.4832140000000  0.5569040000000 1.0
C      1  0.4490900000000  0.5330970000000  0.5357670000000 1.0
C      1  0.4200250000000  0.4431270000000  0.4998730000000 1.0
C      1  0.5391260000000  0.4212610000000  0.5860910000000 1.0
C      1  0.4689230000000  0.4720780000000  0.4351370000000 1.0
C      1  0.4615170000000  0.5399460000000  0.4161070000000 1.0
C      1  0.4715120000000  0.5171300000000  0.5773390000000 1.0
C      1  0.5590740000000  0.4582520000000  0.4133330000000 1.0
C      1  0.4160620000000  0.5137390000000  0.4511350000000 1.0
C      1  0.4787770000000  0.4592130000000  0.4621790000000 1.0
C      1  0.5100860000000  0.4239060000000  0.5675020000000 1.0
C      1  0.4782940000000  0.4220110000000  0.4854570000000 1.0
C      1  0.4465730000000  0.5866230000000  0.4771390000000 1.0
C      1  0.4644700000000  0.4060730000000  0.4515750000000 1.0
C      1  0.4698170000000  0.4498180000000  0.4096460000000 1.0
C      1  0.5473910000000  0.5316240000000  0.5737540000000 1.0
C      1  0.5915440000000  0.4628460000000  0.4566130000000 1.0
C      1  0.5287910000000  0.5175090000000  0.5130510000000 1.0
C      1  0.5553030000000  0.4905330000000  0.4169570000000 1.0
C      1  0.4679280000000  0.4899840000000  0.4717900000000 1.0
C      1  0.4348490000000  0.5575240000000  0.4280470000000 1.0
C      1  0.6011580000000  0.5247290000000  0.4901560000000 1.0
C      1  0.5155000000000  0.4932620000000  0.5944270000000 1.0
C      1  0.4397040000000  0.5346230000000  0.4604700000000 1.0
C      1  0.5677470000000  0.5243810000000  0.4965460000000 1.0
C      1  0.5215130000000  0.5638060000000  0.4246350000000 1.0
C      1  0.4314110000000  0.4825930000000  0.5670500000000 1.0
C      1  0.5195190000000  0.5752670000000  0.5920780000000 1.0
C      1  0.4819440000000  0.3851910000000  0.5238240000000 1.0
C      1  0.4472230000000  0.4786730000000  0.5374960000000 1.0
C      1  0.4717770000000  0.4046880000000  0.5420890000000 1.0
C      1  0.5211670000000  0.5458760000000  0.5813410000000 1.0
C      1  0.4798990000000  0.5524320000000  0.3903630000000 1.0
C      1  0.5095090000000  0.4819280000000  0.3996960000000 1.0
C      1  0.5432880000000  0.5026050000000  0.5672480000000 1.0
C      1  0.4414390000000  0.5144840000000  0.5608550000000 1.0
C      1  0.5244240000000  0.5490490000000  0.4676570000000 1.0
C      1  0.5087240000000  0.5428330000000  0.4045780000000 1.0
C      1  0.5242970000000  0.5124640000000  0.4044420000000 1.0
C      1  0.4766290000000  0.5449380000000  0.6053010000000 1.0
C      1  0.5182630000000  0.5974720000000  0.4738990000000 1.0
C      1  0.4585130000000  0.4872390000000  0.5870570000000 1.0
C      1  0.5185080000000  0.4886390000000  0.5486210000000 1.0
C      1  0.4651060000000  0.4378010000000  0.5776440000000 1.0
C      1  0.5104560000000  0.5960040000000  0.5690260000000 1.0
C      1  0.5673600000000  0.4514870000000  0.4861070000000 1.0
C      1  0.4403980000000  0.4584960000000  0.4255030000000 1.0
C      1  0.4253200000000  0.4825710000000  0.5021480000000 1.0
C      1  0.5006640000000  0.5239990000000  0.5934500000000 1.0
C      1  0.4390790000000  0.4121350000000  0.4432440000000 1.0
C      1  0.5022080000000  0.4692480000000  0.5850970000000 1.0
C      1  0.5278720000000  0.4791380000000  0.4262040000000 1.0
C      1  0.5247980000000  0.4518210000000  0.4082110000000 1.0
C      1  0.4367210000000  0.4811110000000  0.4615550000000 1.0
C      1  0.3958970000000  0.5107500000000  0.4735110000000 1.0
C      1  0.4906040000000  0.5885080000000  0.5927580000000 1.0
C      1  0.4981870000000  0.4356270000000  0.4218990000000 1.0
C      1  0.5614900000000  0.5743830000000  0.4907390000000 1.0
C      1  0.5878030000000  0.4356230000000  0.5065830000000 1.0
C      1  0.5148770000000  0.4797300000000  0.4900740000000 1.0
C      1  0.4753410000000  0.5625840000000  0.5327710000000 1.0
C      1  0.4861260000000  0.5916560000000  0.5198570000000 1.0
C      1  0.5296760000000  0.5592800000000  0.5512180000000 1.0
C      1  0.4729150000000  0.5741690000000  0.4946740000000 1.0
C      1  0.5798990000000  0.4794890000000  0.4350140000000 1.0
C      1  0.5871460000000  0.4557440000000  0.5334900000000 1.0
C      1  0.5761040000000  0.4347980000000  0.4578000000000 1.0
C      1  0.4213760000000  0.5579530000000  0.4886080000000 1.0
C      1  0.5137270000000  0.5635010000000  0.5147020000000 1.0
C      1  0.4291860000000  0.4382590000000  0.4449470000000 1.0
C      1  0.5705820000000  0.5790660000000  0.5197560000000 1.0
C      1  0.5621610000000  0.4690160000000  0.5778600000000 1.0
C      1  0.4967270000000  0.6193430000000  0.5107480000000 1.0
C      1  0.5540730000000  0.5211890000000  0.4183760000000 1.0
C      1  0.5732400000000  0.5112410000000  0.4455390000000 1.0
C      1  0.4484900000000  0.5721820000000  0.5746160000000 1.0
C      1  0.5517980000000  0.5586700000000  0.4499190000000 1.0
C      1  0.5089050000000  0.5817290000000  0.5424160000000 1.0
C      1  0.4814580000000  0.4168680000000  0.5667520000000 1.0
C      1  0.4093240000000  0.4538150000000  0.5244970000000 1.0
C      1  0.4563310000000  0.5193780000000  0.4843680000000 1.0
C      1  0.4530420000000  0.4376380000000  0.4969910000000 1.0
C      1  0.4672600000000  0.5108760000000  0.3993970000000 1.0
C      1  0.4652960000000  0.5426710000000  0.5071050000000 1.0
C      1  0.5562010000000  0.4130490000000  0.4710540000000 1.0
C      1  0.5075530000000  0.4745890000000  0.4603500000000 1.0
C      1  0.4648730000000  0.4524520000000  0.5321870000000 1.0
C      1  0.5585180000000  0.4095930000000  0.5607140000000 1.0
C      1  0.5298940000000  0.5734120000000  0.4890270000000 1.0
C      1  0.5887950000000  0.5347630000000  0.4642950000000 1.0
C      1  0.6038890000000  0.4689090000000  0.4804950000000 1.0
C      1  0.5770450000000  0.4973340000000  0.5107280000000 1.0
C      1  0.4549710000000  0.5146540000000  0.4376610000000 1.0
C      1  0.4969850000000  0.4463260000000  0.5283180000000 1.0
C      1  0.4893100000000  0.5874090000000  0.4679820000000 1.0
C      1  0.4619880000000  0.5570880000000  0.4673780000000 1.0
C      1  0.5511640000000  0.5018080000000  0.4661560000000 1.0
C      1  0.5180310000000  0.5897410000000  0.4406520000000 1.0
C      1  0.4540600000000  0.5254070000000  0.6057130000000 1.0
C      1  0.4877540000000  0.4289160000000  0.4534860000000 1.0
C      1  0.4877930000000  0.5797250000000  0.4390540000000 1.0
C      1  0.5147490000000  0.4557590000000  0.5565170000000 1.0
C      1  0.5299510000000  0.4173590000000  0.4618840000000 1.0
C      1  0.5388100000000  0.5254240000000  0.4832650000000 1.0
C      1  0.5681080000000  0.5437980000000  0.5597080000000 1.0
C      1  0.4457560000000  0.4445000000000  0.5579880000000 1.0
C      1  0.5576020000000  0.4105650000000  0.4990210000000 1.0
C      1  0.5642670000000  0.4346430000000  0.5414920000000 1.0
C      1  0.5531660000000  0.4370420000000  0.4361600000000 1.0
C      1  0.5461200000000  0.4470050000000  0.5656160000000 1.0
C      1  0.5140830000000  0.6216910000000  0.4923990000000 1.0
C      1  0.5984110000000  0.5315950000000  0.5208290000000 1.0
C      1  0.5016330000000  0.4354290000000  0.5004170000000 1.0
C      1  0.5414370000000  0.5394180000000  0.5299690000000 1.0
C      1  0.4918690000000  0.4976530000000  0.4937540000000 1.0
C      1  0.4757080000000  0.5001170000000  0.5196920000000 1.0
C      1  0.5493080000000  0.4299840000000  0.5163300000000 1.0
C      1  0.5613540000000  0.5714160000000  0.5488990000000 1.0
C      1  0.4191670000000  0.4549730000000  0.5532740000000 1.0
C      1  0.4538750000000  0.4702590000000  0.4956900000000 1.0
C      1  0.5686630000000  0.5469910000000  0.5184750000000 1.0
C      1  0.4178450000000  0.5907490000000  0.4803580000000 1.0
C      1  0.4858190000000  0.5105140000000  0.4513760000000 1.0
C      1  0.4697160000000  0.5698150000000  0.5935290000000 1.0
C      1  0.4198270000000  0.5563870000000  0.5223390000000 1.0
C      1  0.5659870000000  0.4963580000000  0.5427110000000 1.0
C      1  0.4559230000000  0.4221640000000  0.5267150000000 1.0
C      1  0.5298830000000  0.4552410000000  0.4483650000000 1.0
C      1  0.4082310000000  0.4848960000000  0.4774990000000 1.0
C      1  0.3921020000000  0.5248240000000  0.5001220000000 1.0
C      1  0.4423350000000  0.5057890000000  0.5188430000000 1.0
C      1  0.4255540000000  0.4502570000000  0.4704790000000 1.0
C      1  0.5399890000000  0.4868920000000  0.5227240000000 1.0
C      1  0.5193770000000  0.5057810000000  0.4543530000000 1.0
C      1  0.5847810000000  0.4745630000000  0.5588250000000 1.0
C      1  0.4798700000000  0.4820530000000  0.4049020000000 1.0
C      1  0.4761320000000  0.4614330000000  0.5899400000000 1.0
C      1  0.5003830000000  0.5270530000000  0.4969670000000 1.0
C      1  0.4850080000000  0.5519250000000  0.4354480000000 1.0
C      1  0.5457430000000  0.4873110000000  0.5952690000000 1.0
C      1  0.5652420000000  0.4828690000000  0.4846640000000 1.0
C      1  0.5973860000000  0.4739110000000  0.5065820000000 1.0
C      1  0.4029970000000  0.5334760000000  0.5286700000000 1.0
C      1  0.5246670000000  0.4191340000000  0.4322580000000 1.0
C      1  0.5217510000000  0.4421610000000  0.4787740000000 1.0
C      1  0.4962210000000  0.4767590000000  0.5273460000000 1.0
C      1  0.4315740000000  0.4909040000000  0.4308660000000 1.0
END
