TITL C-2848508-1660-749 0.00213045113627446 125000 -929.692382062382 0 0 173 (C1) n - 1
REM
REM in /home/bkarasulu/work/CARBON/AIRSS/Generating-Clusters/AIREBO/with-SteepDescent/Only-C1/SD-CG-opt/Try1-1.4A-POS3A/HFTN-CG
REM
REM
REM
REM
REM
REM ./C.cell (11c1c37f851c82e70ff6c80c92926a4b)
REM
REM compiler GCC version 9.2.1 20190827 (Red Hat 9.2.1-1)
REM options -cpp -mtune=generic -march=x86-64 -g -O0 -fpre-include=/usr/include/finclude/math-vector-fortran.h
REM seed -1465141900 -264274137 1415878725 -866221297 -875919981 -2084243086 181276108 -1285439263 -1479365292 1474985242 -1853468447 1468929153 1171777943 -821789411 -1705172820 566773674 519984312 343400047 -1219697204 430900292 -170697143 842398670 248782670 -1390355737 -939823426 728453724 -770738177 1662549300 182408809 -95397537 -538880850 -501494809 -1572378260
REM
CELL 1.54180   50.00000   50.00000   50.00000   90.00000   90.00000   90.00000
LATT -1
SFAC C  
C      1  0.4748700000000  0.4890910000000  0.4979240000000 1.0
C      1  0.5277360000000  0.5550880000000  0.4091290000000 1.0
C      1  0.4567320000000  0.5563160000000  0.5027080000000 1.0
C      1  0.4713220000000  0.5019270000000  0.4357670000000 1.0
C      1  0.5618910000000  0.5646850000000  0.5627070000000 1.0
C      1  0.5123740000000  0.4883120000000  0.3756920000000 1.0
C      1  0.5349220000000  0.4960100000000  0.4877930000000 1.0
C      1  0.4352120000000  0.5352240000000  0.4218940000000 1.0
C      1  0.5509370000000  0.5366080000000  0.4939480000000 1.0
C      1  0.4710050000000  0.5098430000000  0.4023800000000 1.0
C      1  0.5208230000000  0.4720030000000  0.5017740000000 1.0
C      1  0.4245840000000  0.5576440000000  0.5496740000000 1.0
C      1  0.5295010000000  0.5302410000000  0.3914610000000 1.0
C      1  0.5837860000000  0.5455010000000  0.5560800000000 1.0
C      1  0.5814410000000  0.4613320000000  0.4569320000000 1.0
C      1  0.5272280000000  0.5097730000000  0.5353070000000 1.0
C      1  0.4727030000000  0.5901630000000  0.5593170000000 1.0
C      1  0.5444920000000  0.4509060000000  0.4099620000000 1.0
C      1  0.5092240000000  0.5159670000000  0.6018730000000 1.0
C      1  0.5205160000000  0.3862940000000  0.4764630000000 1.0
C      1  0.5149530000000  0.3936710000000  0.5040900000000 1.0
C      1  0.5209910000000  0.4598930000000  0.4549770000000 1.0
C      1  0.5188300000000  0.4281930000000  0.5762670000000 1.0
C      1  0.5496070000000  0.4418000000000  0.5712260000000 1.0
C      1  0.5676560000000  0.5267330000000  0.4265720000000 1.0
C      1  0.5759700000000  0.5131880000000  0.5488990000000 1.0
C      1  0.4807600000000  0.4096030000000  0.4852850000000 1.0
C      1  0.4660390000000  0.4459450000000  0.5833720000000 1.0
C      1  0.5785820000000  0.4913100000000  0.4138280000000 1.0
C      1  0.4775490000000  0.5969550000000  0.4822400000000 1.0
C      1  0.4899360000000  0.5232870000000  0.5402860000000 1.0
C      1  0.4700080000000  0.4582100000000  0.4127590000000 1.0
C      1  0.5429350000000  0.5525770000000  0.5376740000000 1.0
C      1  0.5605790000000  0.4330970000000  0.5327530000000 1.0
C      1  0.4895690000000  0.5347020000000  0.5096060000000 1.0
C      1  0.4934350000000  0.4051250000000  0.5415600000000 1.0
C      1  0.5311530000000  0.5790390000000  0.5651430000000 1.0
C      1  0.4607930000000  0.4305620000000  0.4740750000000 1.0
C      1  0.4706680000000  0.5424840000000  0.6020460000000 1.0
C      1  0.4774850000000  0.5595580000000  0.5294460000000 1.0
C      1  0.4698450000000  0.4707780000000  0.4438810000000 1.0
C      1  0.5645790000000  0.4523060000000  0.4836790000000 1.0
C      1  0.4567080000000  0.5367350000000  0.4037640000000 1.0
C      1  0.5533570000000  0.4647460000000  0.5340250000000 1.0
C      1  0.4923680000000  0.5971600000000  0.5334200000000 1.0
C      1  0.5485720000000  0.5971570000000  0.5441200000000 1.0
C      1  0.5208900000000  0.4747700000000  0.4045120000000 1.0
C      1  0.4688950000000  0.5374080000000  0.5626030000000 1.0
C      1  0.5808750000000  0.5630690000000  0.4837110000000 1.0
C      1  0.4450920000000  0.4971010000000  0.5304110000000 1.0
C      1  0.5196090000000  0.5607700000000  0.4407780000000 1.0
C      1  0.5455370000000  0.4730730000000  0.4693280000000 1.0
C      1  0.5444670000000  0.5157190000000  0.4496280000000 1.0
C      1  0.3856980000000  0.4848500000000  0.5187350000000 1.0
C      1  0.5800170000000  0.4449570000000  0.5563150000000 1.0
C      1  0.5014060000000  0.5729590000000  0.4864410000000 1.0
C      1  0.4201420000000  0.4775040000000  0.5381270000000 1.0
C      1  0.4368180000000  0.4242360000000  0.4535210000000 1.0
C      1  0.4535760000000  0.4063050000000  0.5054520000000 1.0
C      1  0.5123160000000  0.5662330000000  0.5881240000000 1.0
C      1  0.4679170000000  0.4952210000000  0.5812900000000 1.0
C      1  0.5686960000000  0.4929450000000  0.4567950000000 1.0
C      1  0.5934350000000  0.5392670000000  0.5244710000000 1.0
C      1  0.4382770000000  0.4602180000000  0.5170800000000 1.0
C      1  0.4888940000000  0.5143180000000  0.4861930000000 1.0
C      1  0.4965580000000  0.4705800000000  0.6103480000000 1.0
C      1  0.3927900000000  0.5346270000000  0.5006370000000 1.0
C      1  0.5604130000000  0.5734880000000  0.4665040000000 1.0
C      1  0.5026330000000  0.6005850000000  0.5049050000000 1.0
C      1  0.4447630000000  0.5327910000000  0.4471890000000 1.0
C      1  0.4819050000000  0.5640630000000  0.5793280000000 1.0
C      1  0.4498350000000  0.6029130000000  0.4960860000000 1.0
C      1  0.4375280000000  0.4597580000000  0.4230920000000 1.0
C      1  0.5681290000000  0.4660730000000  0.4265450000000 1.0
C      1  0.4840000000000  0.3912720000000  0.5132110000000 1.0
C      1  0.4314980000000  0.5659120000000  0.4648720000000 1.0
C      1  0.4228890000000  0.5255630000000  0.5492060000000 1.0
C      1  0.4894520000000  0.4437160000000  0.5078240000000 1.0
C      1  0.5641730000000  0.4822110000000  0.5565030000000 1.0
C      1  0.5515960000000  0.4250030000000  0.4940180000000 1.0
C      1  0.4613420000000  0.4148950000000  0.5360260000000 1.0
C      1  0.5144070000000  0.4887070000000  0.4497770000000 1.0
C      1  0.4257180000000  0.4879090000000  0.4722890000000 1.0
C      1  0.3851220000000  0.4538530000000  0.5183740000000 1.0
C      1  0.4967660000000  0.4506780000000  0.4043340000000 1.0
C      1  0.5552090000000  0.5182100000000  0.5223090000000 1.0
C      1  0.5641860000000  0.4992120000000  0.4987120000000 1.0
C      1  0.5550910000000  0.4945600000000  0.5933970000000 1.0
C      1  0.5984790000000  0.5081320000000  0.4630350000000 1.0
C      1  0.6043060000000  0.5076150000000  0.5309520000000 1.0
C      1  0.4066790000000  0.4457840000000  0.4973070000000 1.0
C      1  0.5826440000000  0.4260650000000  0.5078410000000 1.0
C      1  0.4002750000000  0.5043680000000  0.5400400000000 1.0
C      1  0.5228300000000  0.5390220000000  0.5935710000000 1.0
C      1  0.5524710000000  0.5888360000000  0.5184550000000 1.0
C      1  0.4768070000000  0.5276570000000  0.4573370000000 1.0
C      1  0.5287010000000  0.4170920000000  0.5122830000000 1.0
C      1  0.5080080000000  0.5210090000000  0.4161440000000 1.0
C      1  0.6114250000000  0.4640960000000  0.4654770000000 1.0
C      1  0.5671250000000  0.5583730000000  0.5144640000000 1.0
C      1  0.4258670000000  0.4688330000000  0.5671270000000 1.0
C      1  0.4499710000000  0.5120200000000  0.5014190000000 1.0
C      1  0.5077020000000  0.5420960000000  0.5569310000000 1.0
C      1  0.4967220000000  0.5853350000000  0.4401250000000 1.0
C      1  0.4993670000000  0.5138980000000  0.3840330000000 1.0
C      1  0.5413840000000  0.5468730000000  0.4629530000000 1.0
C      1  0.4284210000000  0.4908000000000  0.5831930000000 1.0
C      1  0.4243050000000  0.4465010000000  0.4436910000000 1.0
C      1  0.4224510000000  0.5260390000000  0.5148730000000 1.0
C      1  0.4950760000000  0.5425580000000  0.4327610000000 1.0
C      1  0.5208170000000  0.5380860000000  0.5197700000000 1.0
C      1  0.5943180000000  0.5111060000000  0.4321350000000 1.0
C      1  0.4401180000000  0.4447400000000  0.5695250000000 1.0
C      1  0.6141190000000  0.4875510000000  0.4823450000000 1.0
C      1  0.5264960000000  0.4666200000000  0.5688120000000 1.0
C      1  0.5047820000000  0.5708380000000  0.5467370000000 1.0
C      1  0.5404960000000  0.5036940000000  0.5646290000000 1.0
C      1  0.5220270000000  0.4864190000000  0.5962690000000 1.0
C      1  0.4738150000000  0.4370780000000  0.4460500000000 1.0
C      1  0.4731550000000  0.5912920000000  0.4528310000000 1.0
C      1  0.5162470000000  0.5140920000000  0.4685590000000 1.0
C      1  0.3914980000000  0.5163930000000  0.4653280000000 1.0
C      1  0.4701360000000  0.4898980000000  0.5491320000000 1.0
C      1  0.5363200000000  0.5024590000000  0.4193880000000 1.0
C      1  0.5112330000000  0.4188620000000  0.4733030000000 1.0
C      1  0.5350880000000  0.5986680000000  0.4986670000000 1.0
C      1  0.4172670000000  0.5588980000000  0.5205330000000 1.0
C      1  0.4760680000000  0.5547430000000  0.4778880000000 1.0
C      1  0.4708050000000  0.4672840000000  0.5237320000000 1.0
C      1  0.5202350000000  0.5505570000000  0.4895700000000 1.0
C      1  0.5767380000000  0.5116510000000  0.5828620000000 1.0
C      1  0.4456090000000  0.5828640000000  0.4490480000000 1.0
C      1  0.4814060000000  0.5173810000000  0.5995490000000 1.0
C      1  0.5872250000000  0.5208910000000  0.4988360000000 1.0
C      1  0.5464380000000  0.5972200000000  0.4728890000000 1.0
C      1  0.5367420000000  0.5340380000000  0.5655330000000 1.0
C      1  0.5425020000000  0.4248520000000  0.4613200000000 1.0
C      1  0.5001960000000  0.4925280000000  0.5389130000000 1.0
C      1  0.5458220000000  0.4621940000000  0.5981650000000 1.0
C      1  0.4179980000000  0.5132600000000  0.4693340000000 1.0
C      1  0.4418530000000  0.4694700000000  0.4882870000000 1.0
C      1  0.5570920000000  0.4360150000000  0.4380010000000 1.0
C      1  0.4994460000000  0.4251650000000  0.4435540000000 1.0
C      1  0.5731980000000  0.4703190000000  0.5078870000000 1.0
C      1  0.6046770000000  0.4823660000000  0.5124080000000 1.0
C      1  0.4730200000000  0.4626010000000  0.4766650000000 1.0
C      1  0.4529340000000  0.5648050000000  0.5523780000000 1.0
C      1  0.4397330000000  0.5368730000000  0.4805730000000 1.0
C      1  0.3803570000000  0.5235220000000  0.5272240000000 1.0
C      1  0.4306540000000  0.4294950000000  0.5151540000000 1.0
C      1  0.5582650000000  0.5129300000000  0.3969520000000 1.0
C      1  0.4100990000000  0.4601770000000  0.4661500000000 1.0
C      1  0.5206470000000  0.4663120000000  0.5353190000000 1.0
C      1  0.3759170000000  0.5065450000000  0.4914110000000 1.0
C      1  0.4097090000000  0.5343570000000  0.4134590000000 1.0
C      1  0.5047530000000  0.4512700000000  0.4813620000000 1.0
C      1  0.5798290000000  0.4672990000000  0.5777800000000 1.0
C      1  0.4927030000000  0.4337430000000  0.5734040000000 1.0
C      1  0.5090530000000  0.4344220000000  0.5330630000000 1.0
C      1  0.3901630000000  0.4761110000000  0.4861800000000 1.0
C      1  0.4728560000000  0.4699770000000  0.5965730000000 1.0
C      1  0.5189440000000  0.4428110000000  0.4283380000000 1.0
C      1  0.4443770000000  0.5165870000000  0.5692520000000 1.0
C      1  0.4347800000000  0.5795720000000  0.5020920000000 1.0
C      1  0.5647130000000  0.4021430000000  0.5240340000000 1.0
C      1  0.4755660000000  0.5553870000000  0.4114890000000 1.0
C      1  0.4513750000000  0.4840820000000  0.4037860000000 1.0
C      1  0.4984720000000  0.4907130000000  0.4245000000000 1.0
C      1  0.4074470000000  0.5630430000000  0.4887450000000 1.0
C      1  0.4348440000000  0.4261160000000  0.5489970000000 1.0
C      1  0.4783280000000  0.4417150000000  0.5456870000000 1.0
C      1  0.5950590000000  0.4519910000000  0.5264100000000 1.0
C      1  0.5896130000000  0.5376600000000  0.4744460000000 1.0
END
