TITL C-2848506-1665-605 -1.34711483494842e-05 125000 -152.139395955041 0 0 27 (C1) n - 1
REM
REM in /home/bkarasulu/work/CARBON/AIRSS/Generating-Clusters/AIREBO/with-SteepDescent/Only-C1/SD-CG-opt/Try1-1.4A-POS3A/HFTN-CG
REM
REM
REM
REM
REM
REM ./C.cell (11c1c37f851c82e70ff6c80c92926a4b)
REM
REM compiler GCC version 9.2.1 20190827 (Red Hat 9.2.1-1)
REM options -cpp -mtune=generic -march=x86-64 -g -O0 -fpre-include=/usr/include/finclude/math-vector-fortran.h
REM seed -1304241915 190978008 11364019 -1438377073 -1586792376 507682875 -742315699 1868787541 844500895 1472876244 -429249339 -928774280 -1490460740 1585436045 -760253352 819244205 1666510835 -421917221 -1035383263 -14198199 -1159279437 1076753900 -718286197 1375705355 -857702670 1058951884 619649942 -1835658056 -1608568581 240267288 -607296859 923789064 -2096995740
REM
CELL 1.54180   50.00000   50.00000   50.00000   90.00000   90.00000   90.00000
LATT -1
SFAC C  
C      1  0.4779580000000  0.5432680000000  0.5436090000000 1.0
C      1  0.4935390000000  0.4590080000000  0.4597820000000 1.0
C      1  0.4803070000000  0.4497440000000  0.5343730000000 1.0
C      1  0.4625480000000  0.4686130000000  0.5235030000000 1.0
C      1  0.5066500000000  0.4433200000000  0.5274320000000 1.0
C      1  0.4565190000000  0.4919300000000  0.5373300000000 1.0
C      1  0.5075180000000  0.5039330000000  0.4591480000000 1.0
C      1  0.5279890000000  0.5125310000000  0.4770800000000 1.0
C      1  0.4631970000000  0.5243230000000  0.4714900000000 1.0
C      1  0.5102590000000  0.4782090000000  0.4454470000000 1.0
C      1  0.5352620000000  0.4433400000000  0.4873980000000 1.0
C      1  0.5283740000000  0.5684310000000  0.4752900000000 1.0
C      1  0.5283490000000  0.4625370000000  0.5293740000000 1.0
C      1  0.5217560000000  0.5759230000000  0.5339550000000 1.0
C      1  0.4528170000000  0.5426780000000  0.5639920000000 1.0
C      1  0.4576940000000  0.5181070000000  0.5436610000000 1.0
C      1  0.4732030000000  0.4752010000000  0.4731330000000 1.0
C      1  0.4795880000000  0.5033540000000  0.4686780000000 1.0
C      1  0.5403570000000  0.4674830000000  0.5034220000000 1.0
C      1  0.5354230000000  0.5874260000000  0.4580890000000 1.0
C      1  0.5112320000000  0.4272940000000  0.5032830000000 1.0
C      1  0.5066460000000  0.4383060000000  0.4731250000000 1.0
C      1  0.5151620000000  0.5610290000000  0.5043530000000 1.0
C      1  0.5420380000000  0.4920620000000  0.4902800000000 1.0
C      1  0.4584450000000  0.4678620000000  0.4956880000000 1.0
C      1  0.4977620000000  0.5555790000000  0.5321920000000 1.0
C      1  0.5294070000000  0.5385060000000  0.4848910000000 1.0
END
