TITL C-2847955-7945-191 0.00217873065336589 125000 -375.649014734386 0 0 68 (C1) n - 1
REM
REM in /home/bkarasulu/work/CARBON/AIRSS/Generating-Clusters/AIREBO/with-SteepDescent/Only-C1/SD-CG-opt/Try1-1.4A-POS3A/HFTN-CG
REM
REM
REM
REM
REM
REM ./C.cell (11c1c37f851c82e70ff6c80c92926a4b)
REM
REM compiler GCC version 9.2.1 20190827 (Red Hat 9.2.1-1)
REM options -cpp -mtune=generic -march=x86-64 -g -O0 -fpre-include=/usr/include/finclude/math-vector-fortran.h
REM seed 1738952814 -1669428726 -1354802036 107289267 1299071526 -1463882294 -84897529 636471156 377082557 1082535755 1264532915 -1378764637 -1912782609 115278877 -1467592217 -134300704 -1628253304 -2053877816 1018526324 -880965627 -1350501231 1787275214 -1289694519 1933687913 320901738 580941968 1661537628 -70937862 -419826831 261407422 1002937772 -1361713786 1613368694
REM
CELL 1.54180   50.00000   50.00000   50.00000   90.00000   90.00000   90.00000
LATT -1
SFAC C  
C      1  0.4616700000000  0.5390540000000  0.4968680000000 1.0
C      1  0.5474400000000  0.4543000000000  0.5343170000000 1.0
C      1  0.5257190000000  0.5023900000000  0.5537800000000 1.0
C      1  0.4686230000000  0.4774620000000  0.4907510000000 1.0
C      1  0.5708870000000  0.4921710000000  0.5063670000000 1.0
C      1  0.5701810000000  0.5208110000000  0.5099810000000 1.0
C      1  0.4981950000000  0.4883440000000  0.5678550000000 1.0
C      1  0.4785750000000  0.5095360000000  0.4961230000000 1.0
C      1  0.5186180000000  0.4371530000000  0.4707180000000 1.0
C      1  0.4996230000000  0.5326550000000  0.4827500000000 1.0
C      1  0.4916470000000  0.5335950000000  0.4346150000000 1.0
C      1  0.4209470000000  0.5058060000000  0.4452010000000 1.0
C      1  0.4857690000000  0.5834890000000  0.5697050000000 1.0
C      1  0.5140470000000  0.4680690000000  0.4584860000000 1.0
C      1  0.4621640000000  0.5065970000000  0.5253320000000 1.0
C      1  0.5245540000000  0.5294180000000  0.4271350000000 1.0
C      1  0.5631110000000  0.4794170000000  0.5307420000000 1.0
C      1  0.4961930000000  0.5616330000000  0.5458070000000 1.0
C      1  0.4914600000000  0.4769650000000  0.5153150000000 1.0
C      1  0.5655800000000  0.4725530000000  0.4494690000000 1.0
C      1  0.4899070000000  0.4875470000000  0.4192320000000 1.0
C      1  0.5444000000000  0.5147010000000  0.4377300000000 1.0
C      1  0.4625700000000  0.5857290000000  0.4775350000000 1.0
C      1  0.5077230000000  0.5484690000000  0.4085830000000 1.0
C      1  0.4257090000000  0.4851390000000  0.4672330000000 1.0
C      1  0.4863480000000  0.4320570000000  0.4862540000000 1.0
C      1  0.4780850000000  0.5547420000000  0.5202710000000 1.0
C      1  0.5511150000000  0.5499670000000  0.5456690000000 1.0
C      1  0.4704880000000  0.5304800000000  0.5835120000000 1.0
C      1  0.5264730000000  0.4895560000000  0.4797690000000 1.0
C      1  0.5107080000000  0.4981790000000  0.5034640000000 1.0
C      1  0.5600270000000  0.4856340000000  0.4795770000000 1.0
C      1  0.5625650000000  0.5598780000000  0.4799920000000 1.0
C      1  0.5240610000000  0.5493370000000  0.5430070000000 1.0
C      1  0.4935410000000  0.4668130000000  0.4374700000000 1.0
C      1  0.4333990000000  0.4957160000000  0.5183350000000 1.0
C      1  0.5438410000000  0.4555230000000  0.4591020000000 1.0
C      1  0.4497920000000  0.5105630000000  0.5981090000000 1.0
C      1  0.5282090000000  0.4327330000000  0.5523000000000 1.0
C      1  0.5265150000000  0.4918110000000  0.5861450000000 1.0
C      1  0.4375300000000  0.5530660000000  0.4547180000000 1.0
C      1  0.4701220000000  0.4551780000000  0.4471750000000 1.0
C      1  0.4768700000000  0.4343980000000  0.5346130000000 1.0
C      1  0.5156290000000  0.5206230000000  0.5285400000000 1.0
C      1  0.4749550000000  0.5095230000000  0.4286480000000 1.0
C      1  0.5419800000000  0.4262560000000  0.5158350000000 1.0
C      1  0.4832610000000  0.5264210000000  0.5320510000000 1.0
C      1  0.5167560000000  0.4565820000000  0.5211330000000 1.0
C      1  0.4865240000000  0.5451780000000  0.4613530000000 1.0
C      1  0.5521800000000  0.5356540000000  0.4893470000000 1.0
C      1  0.5008560000000  0.4363150000000  0.5514770000000 1.0
C      1  0.4723340000000  0.4308750000000  0.4591400000000 1.0
C      1  0.4334960000000  0.5276280000000  0.5075540000000 1.0
C      1  0.4380070000000  0.4626030000000  0.5114970000000 1.0
C      1  0.5224420000000  0.5360240000000  0.4989960000000 1.0
C      1  0.4758280000000  0.4986230000000  0.5834150000000 1.0
C      1  0.5615860000000  0.4929310000000  0.4293180000000 1.0
C      1  0.4663330000000  0.4474520000000  0.5066640000000 1.0
C      1  0.4598580000000  0.5584290000000  0.4709210000000 1.0
C      1  0.4557610000000  0.4761850000000  0.4628570000000 1.0
C      1  0.5652490000000  0.5264750000000  0.5376070000000 1.0
C      1  0.4516910000000  0.5020530000000  0.4421780000000 1.0
C      1  0.5154020000000  0.4308130000000  0.5013750000000 1.0
C      1  0.4181650000000  0.4794850000000  0.4930550000000 1.0
C      1  0.5556140000000  0.5010390000000  0.5478610000000 1.0
C      1  0.4959820000000  0.4674920000000  0.5462550000000 1.0
C      1  0.4796910000000  0.5530220000000  0.5740810000000 1.0
C      1  0.5454220000000  0.5136880000000  0.4677290000000 1.0
END
