TITL C-2848509-3138-432 -0.00216399744092198 125000 -639.442831574881 0 0 118 (C1) n - 1
REM
REM in /home/bkarasulu/work/CARBON/AIRSS/Generating-Clusters/AIREBO/with-SteepDescent/Only-C1/SD-CG-opt/Try1-1.4A-POS3A/HFTN-CG
REM
REM
REM
REM
REM
REM ./C.cell (11c1c37f851c82e70ff6c80c92926a4b)
REM
REM compiler GCC version 9.2.1 20190827 (Red Hat 9.2.1-1)
REM options -cpp -mtune=generic -march=x86-64 -g -O0 -fpre-include=/usr/include/finclude/math-vector-fortran.h
REM seed 768869422 -1532341530 -1088504363 1259800231 276094544 -1758319834 1785418198 -1617075086 -574548436 1511676089 1931096727 -1778345715 141933913 1857437998 -1447645856 1139408457 1358363060 -1004808006 -788417826 -1227502425 -547762780 953558287 452943994 461324701 1508679791 -1691788471 -138646068 -1416995138 -2078369209 -798249530 -1225710424 -1069159574 820673368
REM
CELL 1.54180   50.00000   50.00000   50.00000   90.00000   90.00000   90.00000
LATT -1
SFAC C  
C      1  0.4938710000000  0.4862980000000  0.4941230000000 1.0
C      1  0.5576990000000  0.5691340000000  0.5310460000000 1.0
C      1  0.5566420000000  0.4966380000000  0.4221380000000 1.0
C      1  0.4193810000000  0.4854430000000  0.5499090000000 1.0
C      1  0.4476540000000  0.5243800000000  0.5465550000000 1.0
C      1  0.4533960000000  0.4962120000000  0.5283340000000 1.0
C      1  0.4885810000000  0.5270970000000  0.4805530000000 1.0
C      1  0.4637250000000  0.5799070000000  0.5248820000000 1.0
C      1  0.4806960000000  0.5184780000000  0.4292520000000 1.0
C      1  0.4168910000000  0.4736600000000  0.4193820000000 1.0
C      1  0.4456290000000  0.4688180000000  0.5471640000000 1.0
C      1  0.5303140000000  0.4973850000000  0.5719600000000 1.0
C      1  0.4764000000000  0.5461370000000  0.4257560000000 1.0
C      1  0.5227020000000  0.5710530000000  0.4212020000000 1.0
C      1  0.5499690000000  0.5232760000000  0.5618920000000 1.0
C      1  0.5053770000000  0.4310780000000  0.5106170000000 1.0
C      1  0.4114980000000  0.5258220000000  0.5036300000000 1.0
C      1  0.4279690000000  0.4953180000000  0.4114730000000 1.0
C      1  0.5826250000000  0.5056060000000  0.4206440000000 1.0
C      1  0.5068820000000  0.4552840000000  0.5871240000000 1.0
C      1  0.4521460000000  0.4631760000000  0.4889430000000 1.0
C      1  0.4729510000000  0.5068660000000  0.5964710000000 1.0
C      1  0.5304630000000  0.5237780000000  0.4569920000000 1.0
C      1  0.4975600000000  0.5618670000000  0.4155690000000 1.0
C      1  0.4381750000000  0.5713830000000  0.5259210000000 1.0
C      1  0.5201550000000  0.5281990000000  0.5488710000000 1.0
C      1  0.5086260000000  0.6134490000000  0.5555830000000 1.0
C      1  0.5705900000000  0.4521350000000  0.4950660000000 1.0
C      1  0.5240490000000  0.4899380000000  0.4813710000000 1.0
C      1  0.4914320000000  0.4531380000000  0.4678570000000 1.0
C      1  0.4128110000000  0.5487550000000  0.4533980000000 1.0
C      1  0.5456640000000  0.4839810000000  0.3995550000000 1.0
C      1  0.5087990000000  0.4614870000000  0.4166220000000 1.0
C      1  0.4340890000000  0.4827550000000  0.5037890000000 1.0
C      1  0.5708650000000  0.4799040000000  0.5498710000000 1.0
C      1  0.5469690000000  0.4652560000000  0.4812200000000 1.0
C      1  0.4565810000000  0.4689210000000  0.4201620000000 1.0
C      1  0.5675350000000  0.5299850000000  0.4704550000000 1.0
C      1  0.5411730000000  0.4918560000000  0.4520510000000 1.0
C      1  0.5628910000000  0.5345780000000  0.4999560000000 1.0
C      1  0.4700230000000  0.4219350000000  0.4805170000000 1.0
C      1  0.4167240000000  0.5864240000000  0.5338650000000 1.0
C      1  0.4935900000000  0.5706620000000  0.5344790000000 1.0
C      1  0.3938550000000  0.5093900000000  0.5176640000000 1.0
C      1  0.4484860000000  0.5330020000000  0.4912570000000 1.0
C      1  0.4982110000000  0.5131390000000  0.4553060000000 1.0
C      1  0.4608270000000  0.4493620000000  0.3947690000000 1.0
C      1  0.4920460000000  0.5157280000000  0.5366500000000 1.0
C      1  0.6041830000000  0.5086650000000  0.5000360000000 1.0
C      1  0.5380530000000  0.5353050000000  0.5231880000000 1.0
C      1  0.4843030000000  0.4375310000000  0.5356650000000 1.0
C      1  0.4651800000000  0.4794530000000  0.5985260000000 1.0
C      1  0.5927860000000  0.4910710000000  0.4780760000000 1.0
C      1  0.4083250000000  0.4856860000000  0.5243420000000 1.0
C      1  0.5192920000000  0.4375970000000  0.4739490000000 1.0
C      1  0.5274880000000  0.4649870000000  0.5618790000000 1.0
C      1  0.5867440000000  0.5267240000000  0.5228980000000 1.0
C      1  0.5577150000000  0.4307750000000  0.5493640000000 1.0
C      1  0.5486530000000  0.4934480000000  0.5279770000000 1.0
C      1  0.5229870000000  0.4561950000000  0.5022250000000 1.0
C      1  0.4756560000000  0.4332050000000  0.4487620000000 1.0
C      1  0.4429830000000  0.5071880000000  0.4573170000000 1.0
C      1  0.4678470000000  0.5258010000000  0.5744540000000 1.0
C      1  0.4773600000000  0.4678530000000  0.5493930000000 1.0
C      1  0.5302940000000  0.5069490000000  0.5060920000000 1.0
C      1  0.4386800000000  0.5399170000000  0.4596420000000 1.0
C      1  0.5246820000000  0.4731440000000  0.5289830000000 1.0
C      1  0.5263550000000  0.5695500000000  0.5700350000000 1.0
C      1  0.4804500000000  0.4615610000000  0.5825280000000 1.0
C      1  0.4823220000000  0.4475140000000  0.4211340000000 1.0
C      1  0.5772050000000  0.4957780000000  0.5145170000000 1.0
C      1  0.5088360000000  0.5861410000000  0.5547930000000 1.0
C      1  0.4741690000000  0.5717360000000  0.4643750000000 1.0
C      1  0.5419240000000  0.5711080000000  0.4420580000000 1.0
C      1  0.4883330000000  0.4812550000000  0.4550540000000 1.0
C      1  0.5517400000000  0.4594990000000  0.4485280000000 1.0
C      1  0.4232880000000  0.4352850000000  0.4610880000000 1.0
C      1  0.4832910000000  0.4544220000000  0.4994270000000 1.0
C      1  0.5363740000000  0.4252840000000  0.5235450000000 1.0
C      1  0.4558810000000  0.4768370000000  0.4592150000000 1.0
C      1  0.4994080000000  0.4120230000000  0.4760190000000 1.0
C      1  0.4954720000000  0.4839680000000  0.5255470000000 1.0
C      1  0.5474270000000  0.5566110000000  0.5556650000000 1.0
C      1  0.4399710000000  0.4334340000000  0.4845730000000 1.0
C      1  0.5593570000000  0.4140100000000  0.4762050000000 1.0
C      1  0.5521630000000  0.5647620000000  0.5017370000000 1.0
C      1  0.5371510000000  0.5882950000000  0.4644710000000 1.0
C      1  0.5939500000000  0.4634120000000  0.4843640000000 1.0
C      1  0.5152950000000  0.5320800000000  0.6072860000000 1.0
C      1  0.4960630000000  0.5426870000000  0.5658010000000 1.0
C      1  0.5758090000000  0.5111520000000  0.5510900000000 1.0
C      1  0.5119200000000  0.5568310000000  0.5140350000000 1.0
C      1  0.5121510000000  0.5532810000000  0.5904410000000 1.0
C      1  0.4335640000000  0.4574920000000  0.4421500000000 1.0
C      1  0.5032470000000  0.5259390000000  0.5073010000000 1.0
C      1  0.4250300000000  0.5056500000000  0.4837020000000 1.0
C      1  0.5707760000000  0.5027570000000  0.4647620000000 1.0
C      1  0.5156940000000  0.4359430000000  0.5486850000000 1.0
C      1  0.5129290000000  0.4815510000000  0.4361500000000 1.0
C      1  0.4556410000000  0.5014500000000  0.4277380000000 1.0
C      1  0.4367740000000  0.4394730000000  0.5495730000000 1.0
C      1  0.4922900000000  0.4142680000000  0.5604570000000 1.0
C      1  0.5177150000000  0.5783320000000  0.4883320000000 1.0
C      1  0.5279280000000  0.4631180000000  0.3965210000000 1.0
C      1  0.4915060000000  0.4954670000000  0.5635320000000 1.0
C      1  0.4684110000000  0.5080240000000  0.5002090000000 1.0
C      1  0.5584750000000  0.4564080000000  0.5599160000000 1.0
C      1  0.5537950000000  0.5462390000000  0.4482140000000 1.0
C      1  0.5064440000000  0.5058020000000  0.5922870000000 1.0
C      1  0.4613870000000  0.4263470000000  0.5131320000000 1.0
C      1  0.5311280000000  0.5487370000000  0.4802480000000 1.0
C      1  0.4603420000000  0.5566110000000  0.4463980000000 1.0
C      1  0.5443730000000  0.4318530000000  0.4594800000000 1.0
C      1  0.4740820000000  0.5444510000000  0.5399210000000 1.0
C      1  0.4950510000000  0.5580010000000  0.4779410000000 1.0
C      1  0.4226550000000  0.5101460000000  0.5616370000000 1.0
C      1  0.5616970000000  0.4257560000000  0.5028280000000 1.0
C      1  0.4343620000000  0.5421000000000  0.5207200000000 1.0
END
