TITL C-2847944-5688-662 0.00348106252664108 125000 -237.056557458709 0 0 42 (C1) n - 1
REM
REM in /home/bkarasulu/work/CARBON/AIRSS/Generating-Clusters/AIREBO/with-SteepDescent/Only-C1/SD-CG-opt/Try1-1.4A-POS3A/HFTN-CG
REM
REM
REM
REM
REM
REM ./C.cell (11c1c37f851c82e70ff6c80c92926a4b)
REM
REM compiler GCC version 9.2.1 20190827 (Red Hat 9.2.1-1)
REM options -cpp -mtune=generic -march=x86-64 -g -O0 -fpre-include=/usr/include/finclude/math-vector-fortran.h
REM seed 1225499438 -59073830 -1520838275 -1684752543 -906635568 -1257340461 -720376003 1199008460 811844784 936076888 791888955 -1993344993 337686659 -1093996238 -1048916058 -940019049 -337283127 1477086111 783131708 930070726 555960433 1851674995 -1720288682 -1349205135 -212386302 380195710 -586537920 -1840659656 699828154 1422614380 936189416 -449190873 -1162031909
REM
CELL 1.54180   50.00000   50.00000   50.00000   90.00000   90.00000   90.00000
LATT -1
SFAC C  
C      1  0.4310750000000  0.5032240000000  0.5072040000000 1.0
C      1  0.5364410000000  0.4619090000000  0.4980130000000 1.0
C      1  0.4439920000000  0.5200280000000  0.5329430000000 1.0
C      1  0.4774440000000  0.5560220000000  0.4700480000000 1.0
C      1  0.4793550000000  0.4732700000000  0.5298690000000 1.0
C      1  0.4993320000000  0.4772410000000  0.5826380000000 1.0
C      1  0.5116020000000  0.5083370000000  0.4546590000000 1.0
C      1  0.5079600000000  0.4688000000000  0.5127850000000 1.0
C      1  0.4917940000000  0.5398770000000  0.5327720000000 1.0
C      1  0.4748430000000  0.4784030000000  0.4596930000000 1.0
C      1  0.5117320000000  0.4959060000000  0.4946750000000 1.0
C      1  0.4765280000000  0.4443020000000  0.5159890000000 1.0
C      1  0.5333540000000  0.4502960000000  0.4725140000000 1.0
C      1  0.5184080000000  0.4591120000000  0.4510100000000 1.0
C      1  0.5362350000000  0.5385700000000  0.5153680000000 1.0
C      1  0.4731760000000  0.5229920000000  0.5205210000000 1.0
C      1  0.5208950000000  0.4446930000000  0.5302570000000 1.0
C      1  0.5006790000000  0.4810090000000  0.4509460000000 1.0
C      1  0.4704920000000  0.4387910000000  0.4901450000000 1.0
C      1  0.5341160000000  0.5263950000000  0.4363170000000 1.0
C      1  0.4980000000000  0.5520640000000  0.4872760000000 1.0
C      1  0.4652330000000  0.4535220000000  0.4677980000000 1.0
C      1  0.5001530000000  0.4832660000000  0.5514250000000 1.0
C      1  0.5419330000000  0.5177930000000  0.5345270000000 1.0
C      1  0.4313010000000  0.5371370000000  0.5495910000000 1.0
C      1  0.5165080000000  0.5272800000000  0.4824700000000 1.0
C      1  0.5022210000000  0.5324340000000  0.4336730000000 1.0
C      1  0.4658570000000  0.5022960000000  0.4742560000000 1.0
C      1  0.4577000000000  0.5304980000000  0.4617310000000 1.0
C      1  0.4542860000000  0.4884670000000  0.5265990000000 1.0
C      1  0.4789650000000  0.5454650000000  0.4401430000000 1.0
C      1  0.5494480000000  0.5192070000000  0.4614530000000 1.0
C      1  0.5571930000000  0.4828720000000  0.5037390000000 1.0
C      1  0.5430910000000  0.4976700000000  0.4815830000000 1.0
C      1  0.4825610000000  0.5077560000000  0.4986260000000 1.0
C      1  0.5216200000000  0.5085930000000  0.5520620000000 1.0
C      1  0.4356800000000  0.5131480000000  0.4810610000000 1.0
C      1  0.5487020000000  0.5366600000000  0.4879560000000 1.0
C      1  0.5180620000000  0.5012340000000  0.5818920000000 1.0
C      1  0.5298630000000  0.4241280000000  0.5424450000000 1.0
C      1  0.5618150000000  0.4986670000000  0.5267250000000 1.0
C      1  0.5103560000000  0.5506670000000  0.5145990000000 1.0
END
