TITL C-2848507-1641-313 0.00163254819146942 125000 -551.048040369913 0 0 101 (C1) n - 1
REM
REM in /home/bkarasulu/work/CARBON/AIRSS/Generating-Clusters/AIREBO/with-SteepDescent/Only-C1/SD-CG-opt/Try1-1.4A-POS3A/HFTN-CG
REM
REM
REM
REM
REM
REM ./C.cell (11c1c37f851c82e70ff6c80c92926a4b)
REM
REM compiler GCC version 9.2.1 20190827 (Red Hat 9.2.1-1)
REM options -cpp -mtune=generic -march=x86-64 -g -O0 -fpre-include=/usr/include/finclude/math-vector-fortran.h
REM seed 787579579 1963647382 1030111239 -1482265710 -332938958 331407515 -496305592 165865157 253806571 392262495 -265765333 1257735911 -1909158445 -1352481159 -951783442 -599493560 1874590321 -426978113 1791735157 -1707779829 -1988205534 -807917484 406966312 135730568 1699258948 98080271 -674008189 1039638508 -1071098682 -889684397 1903362401 -2009956858 1894311635
REM
CELL 1.54180   50.00000   50.00000   50.00000   90.00000   90.00000   90.00000
LATT -1
SFAC C  
C      1  0.4650890000000  0.5320660000000  0.4256220000000 1.0
C      1  0.4275780000000  0.4780300000000  0.5366110000000 1.0
C      1  0.5280090000000  0.4578820000000  0.4477640000000 1.0
C      1  0.4589740000000  0.4249980000000  0.5304810000000 1.0
C      1  0.4388450000000  0.5625100000000  0.4777750000000 1.0
C      1  0.5283480000000  0.5619580000000  0.5516020000000 1.0
C      1  0.5265940000000  0.5581760000000  0.4129670000000 1.0
C      1  0.5143760000000  0.4738850000000  0.5697340000000 1.0
C      1  0.4665090000000  0.4949830000000  0.5716600000000 1.0
C      1  0.5608560000000  0.4944190000000  0.5350670000000 1.0
C      1  0.5350670000000  0.5322870000000  0.5260160000000 1.0
C      1  0.4603480000000  0.4092930000000  0.5057210000000 1.0
C      1  0.4648350000000  0.4556490000000  0.5241370000000 1.0
C      1  0.5069340000000  0.5210380000000  0.5821200000000 1.0
C      1  0.5730740000000  0.5222270000000  0.4934730000000 1.0
C      1  0.5004830000000  0.4599670000000  0.5446570000000 1.0
C      1  0.4420880000000  0.4849680000000  0.4287050000000 1.0
C      1  0.4604930000000  0.5468450000000  0.5281200000000 1.0
C      1  0.4538290000000  0.5467870000000  0.4516120000000 1.0
C      1  0.4298260000000  0.4451980000000  0.4887320000000 1.0
C      1  0.5142420000000  0.5095580000000  0.4528910000000 1.0
C      1  0.4965890000000  0.5683450000000  0.5596830000000 1.0
C      1  0.5676870000000  0.4997380000000  0.4715090000000 1.0
C      1  0.5480450000000  0.5696810000000  0.5245950000000 1.0
C      1  0.5842910000000  0.5294370000000  0.5232860000000 1.0
C      1  0.4942480000000  0.4299550000000  0.4729320000000 1.0
C      1  0.5016120000000  0.4879890000000  0.4746370000000 1.0
C      1  0.5270860000000  0.4316970000000  0.5363810000000 1.0
C      1  0.4797500000000  0.5545520000000  0.4109990000000 1.0
C      1  0.4908500000000  0.4080940000000  0.5132380000000 1.0
C      1  0.5431920000000  0.5338020000000  0.4256050000000 1.0
C      1  0.5498370000000  0.5424760000000  0.5693880000000 1.0
C      1  0.4914640000000  0.5966860000000  0.5434850000000 1.0
C      1  0.5013000000000  0.5603630000000  0.4564590000000 1.0
C      1  0.4559480000000  0.4256300000000  0.4833320000000 1.0
C      1  0.4344830000000  0.5064450000000  0.5351300000000 1.0
C      1  0.5287910000000  0.4942230000000  0.4941050000000 1.0
C      1  0.4816820000000  0.5397010000000  0.5704440000000 1.0
C      1  0.5480310000000  0.5055850000000  0.4533830000000 1.0
C      1  0.5030670000000  0.4378740000000  0.4475150000000 1.0
C      1  0.4497430000000  0.4577590000000  0.4331110000000 1.0
C      1  0.4915770000000  0.5335840000000  0.4750280000000 1.0
C      1  0.4986080000000  0.4279550000000  0.5545940000000 1.0
C      1  0.5836440000000  0.4815990000000  0.5274190000000 1.0
C      1  0.4658300000000  0.4991720000000  0.4195110000000 1.0
C      1  0.4166200000000  0.5077530000000  0.4820050000000 1.0
C      1  0.5486190000000  0.5100560000000  0.5111910000000 1.0
C      1  0.5307770000000  0.4375480000000  0.5030610000000 1.0
C      1  0.5134380000000  0.5768700000000  0.4826280000000 1.0
C      1  0.4931940000000  0.4410050000000  0.5173770000000 1.0
C      1  0.4713340000000  0.5693360000000  0.4700850000000 1.0
C      1  0.5681780000000  0.5488430000000  0.4799470000000 1.0
C      1  0.4625410000000  0.5206750000000  0.5497330000000 1.0
C      1  0.5388190000000  0.5003280000000  0.4230720000000 1.0
C      1  0.4508110000000  0.4514460000000  0.4639380000000 1.0
C      1  0.5793770000000  0.4653140000000  0.5028100000000 1.0
C      1  0.4389250000000  0.5460950000000  0.5073020000000 1.0
C      1  0.4922690000000  0.5096470000000  0.4991850000000 1.0
C      1  0.4794940000000  0.4685750000000  0.4575410000000 1.0
C      1  0.4285430000000  0.4651620000000  0.5110520000000 1.0
C      1  0.4298000000000  0.4978490000000  0.4576000000000 1.0
C      1  0.4693500000000  0.4214250000000  0.5569090000000 1.0
C      1  0.5457040000000  0.4587830000000  0.5502850000000 1.0
C      1  0.4829380000000  0.4554490000000  0.4887300000000 1.0
C      1  0.5393410000000  0.5165020000000  0.5785210000000 1.0
C      1  0.5188070000000  0.4797940000000  0.4266960000000 1.0
C      1  0.4817740000000  0.5943960000000  0.5202240000000 1.0
C      1  0.5547210000000  0.4300400000000  0.4801160000000 1.0
C      1  0.4850160000000  0.5713770000000  0.4997410000000 1.0
C      1  0.4570720000000  0.4731750000000  0.4969240000000 1.0
C      1  0.5149660000000  0.5307160000000  0.5505240000000 1.0
C      1  0.5269430000000  0.4770420000000  0.5205570000000 1.0
C      1  0.4944560000000  0.4931520000000  0.5834860000000 1.0
C      1  0.5265240000000  0.5392350000000  0.4539220000000 1.0
C      1  0.4498930000000  0.5295910000000  0.4805730000000 1.0
C      1  0.4518550000000  0.4396020000000  0.5718490000000 1.0
C      1  0.4904600000000  0.4851520000000  0.4299290000000 1.0
C      1  0.5589970000000  0.5711030000000  0.4943090000000 1.0
C      1  0.5584930000000  0.5450310000000  0.4539620000000 1.0
C      1  0.4817560000000  0.5183810000000  0.4502880000000 1.0
C      1  0.5538920000000  0.4563580000000  0.5190210000000 1.0
C      1  0.4615920000000  0.5028330000000  0.4911300000000 1.0
C      1  0.4248610000000  0.5180960000000  0.5094200000000 1.0
C      1  0.4668470000000  0.4811150000000  0.5429590000000 1.0
C      1  0.4794840000000  0.4467170000000  0.4311710000000 1.0
C      1  0.4428920000000  0.4623330000000  0.5575110000000 1.0
C      1  0.5238360000000  0.4630720000000  0.4811200000000 1.0
C      1  0.5106050000000  0.4160160000000  0.4915260000000 1.0
C      1  0.5421550000000  0.5878630000000  0.4803470000000 1.0
C      1  0.4940480000000  0.4853630000000  0.5229570000000 1.0
C      1  0.5734630000000  0.4724640000000  0.4759560000000 1.0
C      1  0.5254020000000  0.4412530000000  0.5695810000000 1.0
C      1  0.4645760000000  0.5677850000000  0.5481900000000 1.0
C      1  0.4625610000000  0.4974820000000  0.4604120000000 1.0
C      1  0.5204190000000  0.5560830000000  0.5086260000000 1.0
C      1  0.5019460000000  0.5636850000000  0.4238330000000 1.0
C      1  0.4930700000000  0.5121420000000  0.5412960000000 1.0
C      1  0.5421930000000  0.4907010000000  0.5611270000000 1.0
C      1  0.4904880000000  0.5405070000000  0.5134150000000 1.0
C      1  0.5624380000000  0.5444530000000  0.5401790000000 1.0
C      1  0.5576780000000  0.4521670000000  0.4629150000000 1.0
END
