TITL C-2847958-8115-195 -0.000748393668334077 125000 -241.25482642412 0 0 44 (C1) n - 1
REM
REM in /home/bkarasulu/work/CARBON/AIRSS/Generating-Clusters/AIREBO/with-SteepDescent/Only-C1/SD-CG-opt/Try1-1.4A-POS3A/HFTN-CG
REM
REM
REM
REM
REM
REM ./C.cell (11c1c37f851c82e70ff6c80c92926a4b)
REM
REM compiler GCC version 9.2.1 20190827 (Red Hat 9.2.1-1)
REM options -cpp -mtune=generic -march=x86-64 -g -O0 -fpre-include=/usr/include/finclude/math-vector-fortran.h
REM seed -2065731056 953798109 1006937719 1918461918 167935243 -1967240431 -1738071665 558233517 -1888566049 -1505746810 801928031 -707935790 1613777540 -281308990 155509502 1340808736 -29623470 807606229 1085415378 559955949 430545896 374043025 2089423252 -387620442 -833744972 2037366397 -430169874 455853907 2094021100 -2097111437 2021741918 -1644290610 -1199163967
REM
CELL 1.54180   50.00000   50.00000   50.00000   90.00000   90.00000   90.00000
LATT -1
SFAC C  
C      1  0.4540730000000  0.5439440000000  0.5205370000000 1.0
C      1  0.5020670000000  0.5604130000000  0.5481770000000 1.0
C      1  0.4680650000000  0.4733010000000  0.4560390000000 1.0
C      1  0.4794460000000  0.4692730000000  0.5339040000000 1.0
C      1  0.5593200000000  0.5268690000000  0.5507630000000 1.0
C      1  0.4560080000000  0.4913210000000  0.4298450000000 1.0
C      1  0.4198500000000  0.4947510000000  0.4797760000000 1.0
C      1  0.4632400000000  0.5124620000000  0.4498430000000 1.0
C      1  0.5134550000000  0.4989390000000  0.5347190000000 1.0
C      1  0.5042610000000  0.5338290000000  0.4730980000000 1.0
C      1  0.5617680000000  0.4586680000000  0.5113520000000 1.0
C      1  0.4810080000000  0.5038450000000  0.5731430000000 1.0
C      1  0.4465860000000  0.5365390000000  0.4980750000000 1.0
C      1  0.5274300000000  0.5172410000000  0.5563390000000 1.0
C      1  0.4452330000000  0.5126090000000  0.4786850000000 1.0
C      1  0.4357090000000  0.4467110000000  0.4801750000000 1.0
C      1  0.4708890000000  0.4927120000000  0.4834990000000 1.0
C      1  0.4815520000000  0.4926420000000  0.5114880000000 1.0
C      1  0.4196230000000  0.4682060000000  0.4861790000000 1.0
C      1  0.5197690000000  0.5143610000000  0.4401670000000 1.0
C      1  0.4952800000000  0.5231120000000  0.5608840000000 1.0
C      1  0.5269840000000  0.5498080000000  0.5485050000000 1.0
C      1  0.5114430000000  0.4694560000000  0.5250510000000 1.0
C      1  0.5592750000000  0.4693930000000  0.4862350000000 1.0
C      1  0.4737650000000  0.4802990000000  0.5620180000000 1.0
C      1  0.4964200000000  0.5197580000000  0.5190060000000 1.0
C      1  0.4759520000000  0.4680220000000  0.4232190000000 1.0
C      1  0.5449670000000  0.5098520000000  0.4581410000000 1.0
C      1  0.5415870000000  0.4860450000000  0.4725760000000 1.0
C      1  0.4798690000000  0.5400580000000  0.5364770000000 1.0
C      1  0.5775210000000  0.5509240000000  0.4684130000000 1.0
C      1  0.5131030000000  0.5336870000000  0.4988940000000 1.0
C      1  0.5036480000000  0.4636780000000  0.4950500000000 1.0
C      1  0.5490770000000  0.5452760000000  0.5267420000000 1.0
C      1  0.4861540000000  0.4426140000000  0.4874730000000 1.0
C      1  0.5141230000000  0.4806500000000  0.4754150000000 1.0
C      1  0.5364650000000  0.4553610000000  0.5302340000000 1.0
C      1  0.5533030000000  0.5383830000000  0.4727110000000 1.0
C      1  0.5255030000000  0.5440720000000  0.4538360000000 1.0
C      1  0.5399370000000  0.5406880000000  0.5010440000000 1.0
C      1  0.4653670000000  0.4457280000000  0.5285560000000 1.0
C      1  0.4627490000000  0.4488080000000  0.4729910000000 1.0
C      1  0.5638390000000  0.4407880000000  0.5386530000000 1.0
C      1  0.4943130000000  0.5049020000000  0.4620750000000 1.0
END
