TITL C-2848507-1641-129 0.000866493310537708 125000 -382.841654057247 0 0 68 (C1) n - 1
REM
REM in /home/bkarasulu/work/CARBON/AIRSS/Generating-Clusters/AIREBO/with-SteepDescent/Only-C1/SD-CG-opt/Try1-1.4A-POS3A/HFTN-CG
REM
REM
REM
REM
REM
REM ./C.cell (11c1c37f851c82e70ff6c80c92926a4b)
REM
REM compiler GCC version 9.2.1 20190827 (Red Hat 9.2.1-1)
REM options -cpp -mtune=generic -march=x86-64 -g -O0 -fpre-include=/usr/include/finclude/math-vector-fortran.h
REM seed 1632505270 1982258765 249103420 805821846 -1804775798 449712786 473261682 -993307221 1176320614 2074497115 225502877 -1595552625 1470821115 -1529720898 -1144365626 940887348 1580325605 -1962268795 -815518852 -1361057752 1113695438 1328112228 831221757 -1616165572 568171255 855540009 1189611749 1034893210 399580231 489323620 907752917 -1352300515 -998004920
REM
CELL 1.54180   50.00000   50.00000   50.00000   90.00000   90.00000   90.00000
LATT -1
SFAC C  
C      1  0.5211860000000  0.5112900000000  0.5978030000000 1.0
C      1  0.5357170000000  0.4312040000000  0.4661830000000 1.0
C      1  0.4617310000000  0.5339730000000  0.4332470000000 1.0
C      1  0.4824860000000  0.4766540000000  0.5734310000000 1.0
C      1  0.5529310000000  0.5444080000000  0.5589580000000 1.0
C      1  0.5013720000000  0.5091880000000  0.4682360000000 1.0
C      1  0.5210810000000  0.4659930000000  0.4349330000000 1.0
C      1  0.5415980000000  0.4598580000000  0.5338460000000 1.0
C      1  0.4505070000000  0.4595590000000  0.5026380000000 1.0
C      1  0.4835800000000  0.5137630000000  0.4396160000000 1.0
C      1  0.4447810000000  0.4519100000000  0.5297750000000 1.0
C      1  0.4718240000000  0.5665130000000  0.4912470000000 1.0
C      1  0.4236710000000  0.4376430000000  0.5360630000000 1.0
C      1  0.4436830000000  0.5589230000000  0.5030480000000 1.0
C      1  0.4432250000000  0.4986350000000  0.4922620000000 1.0
C      1  0.4407660000000  0.5306110000000  0.4509710000000 1.0
C      1  0.5420110000000  0.4902160000000  0.5391320000000 1.0
C      1  0.4578660000000  0.4624480000000  0.4272830000000 1.0
C      1  0.4380910000000  0.4560880000000  0.6002470000000 1.0
C      1  0.4341810000000  0.5267840000000  0.5076510000000 1.0
C      1  0.5464530000000  0.4960430000000  0.4915940000000 1.0
C      1  0.5155090000000  0.4404920000000  0.4507240000000 1.0
C      1  0.4930780000000  0.4872560000000  0.5191550000000 1.0
C      1  0.4811660000000  0.5328230000000  0.4820650000000 1.0
C      1  0.5356150000000  0.5115230000000  0.4297300000000 1.0
C      1  0.5051750000000  0.4877740000000  0.5805890000000 1.0
C      1  0.5186360000000  0.5246220000000  0.4932260000000 1.0
C      1  0.4278360000000  0.5072630000000  0.4631850000000 1.0
C      1  0.5133990000000  0.5276190000000  0.4350270000000 1.0
C      1  0.5620630000000  0.5373780000000  0.5330350000000 1.0
C      1  0.5334060000000  0.4977100000000  0.5664240000000 1.0
C      1  0.4877010000000  0.4411130000000  0.4620790000000 1.0
C      1  0.4910310000000  0.5636760000000  0.5377530000000 1.0
C      1  0.4730690000000  0.4826910000000  0.4970440000000 1.0
C      1  0.4852520000000  0.4727960000000  0.4709920000000 1.0
C      1  0.5401410000000  0.5283570000000  0.5760980000000 1.0
C      1  0.4834840000000  0.5375100000000  0.5491890000000 1.0
C      1  0.5453440000000  0.5443250000000  0.4867490000000 1.0
C      1  0.5162080000000  0.4492650000000  0.5395540000000 1.0
C      1  0.5561270000000  0.4478170000000  0.5147770000000 1.0
C      1  0.5613050000000  0.5538860000000  0.5100940000000 1.0
C      1  0.5833840000000  0.4457260000000  0.4730970000000 1.0
C      1  0.4916300000000  0.5154880000000  0.5323900000000 1.0
C      1  0.4216970000000  0.4484020000000  0.6191970000000 1.0
C      1  0.4957200000000  0.5419330000000  0.5114130000000 1.0
C      1  0.5241760000000  0.5003570000000  0.5147550000000 1.0
C      1  0.5574250000000  0.5152640000000  0.4476790000000 1.0
C      1  0.4561670000000  0.4426910000000  0.4747550000000 1.0
C      1  0.5314600000000  0.4857020000000  0.4181760000000 1.0
C      1  0.4610660000000  0.4384310000000  0.4417710000000 1.0
C      1  0.5664910000000  0.5091330000000  0.5309590000000 1.0
C      1  0.4713750000000  0.5584250000000  0.4230300000000 1.0
C      1  0.5144320000000  0.5548040000000  0.4448790000000 1.0
C      1  0.4562360000000  0.4618120000000  0.5815700000000 1.0
C      1  0.4934220000000  0.4632140000000  0.5374350000000 1.0
C      1  0.5151680000000  0.4783500000000  0.4634800000000 1.0
C      1  0.5757090000000  0.5771290000000  0.5080890000000 1.0
C      1  0.5218060000000  0.5600380000000  0.4720530000000 1.0
C      1  0.4655820000000  0.4580710000000  0.5500710000000 1.0
C      1  0.4455730000000  0.4740680000000  0.4693450000000 1.0
C      1  0.5536790000000  0.5171020000000  0.4755260000000 1.0
C      1  0.5196800000000  0.5154160000000  0.6243990000000 1.0
C      1  0.5401910000000  0.4725790000000  0.4781910000000 1.0
C      1  0.4948620000000  0.5708360000000  0.4315080000000 1.0
C      1  0.5028120000000  0.5682030000000  0.4910160000000 1.0
C      1  0.4682140000000  0.4863350000000  0.4465670000000 1.0
C      1  0.5574110000000  0.4470880000000  0.4835100000000 1.0
C      1  0.4503480000000  0.5358010000000  0.4794860000000 1.0
END
