TITL C-2848496-4490-640 0.00159689779467563 125000 -998.267058043947 0 0 193 (C1) n - 1
REM
REM in /home/bkarasulu/work/CARBON/AIRSS/Generating-Clusters/AIREBO/with-SteepDescent/Only-C1/SD-CG-opt/Try1-1.4A-POS3A/HFTN-CG
REM
REM
REM
REM
REM
REM ./C.cell (11c1c37f851c82e70ff6c80c92926a4b)
REM
REM compiler GCC version 9.2.1 20190827 (Red Hat 9.2.1-1)
REM options -cpp -mtune=generic -march=x86-64 -g -O0 -fpre-include=/usr/include/finclude/math-vector-fortran.h
REM seed -750842451 1894369726 -349157899 1683856394 752697003 -185432887 -1582997118 556439832 1678493915 -1292157970 -600665820 1017873737 2093698134 -1294722833 -1246545853 232698763 1599574292 -678220505 719137212 1789498974 -2122011047 1719787407 1862320162 1057574258 -746298065 -1542167795 1226000150 -324343555 535768862 448857198 859081772 -1735053126 485692145
REM
CELL 1.54180   50.00000   50.00000   50.00000   90.00000   90.00000   90.00000
LATT -1
SFAC C  
C      1  0.5637560000000  0.5590090000000  0.5621470000000 1.0
C      1  0.4262830000000  0.4963840000000  0.5847590000000 1.0
C      1  0.5047380000000  0.5885620000000  0.4589470000000 1.0
C      1  0.5442260000000  0.5423170000000  0.5052150000000 1.0
C      1  0.3918380000000  0.5467330000000  0.5163520000000 1.0
C      1  0.4612170000000  0.5193150000000  0.4936240000000 1.0
C      1  0.4245510000000  0.4656700000000  0.5829500000000 1.0
C      1  0.4464870000000  0.4433680000000  0.5030600000000 1.0
C      1  0.5696340000000  0.5835000000000  0.4766100000000 1.0
C      1  0.4624550000000  0.4144510000000  0.4987170000000 1.0
C      1  0.4361460000000  0.4456480000000  0.4277170000000 1.0
C      1  0.5795540000000  0.5470960000000  0.4638910000000 1.0
C      1  0.4830860000000  0.4467600000000  0.4203340000000 1.0
C      1  0.5624520000000  0.4983370000000  0.5758770000000 1.0
C      1  0.5715930000000  0.5490910000000  0.5859950000000 1.0
C      1  0.4563240000000  0.4315760000000  0.4162790000000 1.0
C      1  0.4756220000000  0.3946810000000  0.4743800000000 1.0
C      1  0.4566140000000  0.4715070000000  0.5916290000000 1.0
C      1  0.3958780000000  0.4703920000000  0.5147540000000 1.0
C      1  0.4117600000000  0.5171030000000  0.4805760000000 1.0
C      1  0.4743750000000  0.5633600000000  0.3933120000000 1.0
C      1  0.4660470000000  0.5676610000000  0.4692250000000 1.0
C      1  0.4883000000000  0.4575450000000  0.4521850000000 1.0
C      1  0.5123540000000  0.5267470000000  0.6056860000000 1.0
C      1  0.4456690000000  0.5618470000000  0.5454550000000 1.0
C      1  0.4928610000000  0.4000120000000  0.5591490000000 1.0
C      1  0.5989850000000  0.5492150000000  0.5135440000000 1.0
C      1  0.4421380000000  0.5728500000000  0.4259400000000 1.0
C      1  0.4999580000000  0.4921740000000  0.4782220000000 1.0
C      1  0.5163000000000  0.5488010000000  0.5840110000000 1.0
C      1  0.5916190000000  0.4596370000000  0.4550260000000 1.0
C      1  0.5760350000000  0.5338940000000  0.4950340000000 1.0
C      1  0.5372490000000  0.4009060000000  0.4971470000000 1.0
C      1  0.5046860000000  0.4290390000000  0.4044080000000 1.0
C      1  0.5727590000000  0.5009210000000  0.5026750000000 1.0
C      1  0.5243250000000  0.5849130000000  0.5486600000000 1.0
C      1  0.4531830000000  0.5405030000000  0.5882620000000 1.0
C      1  0.4982210000000  0.4608260000000  0.5037370000000 1.0
C      1  0.4232640000000  0.5470370000000  0.4489890000000 1.0
C      1  0.4487280000000  0.4733350000000  0.4323520000000 1.0
C      1  0.6006710000000  0.5169930000000  0.4784640000000 1.0
C      1  0.4885310000000  0.5124000000000  0.6100570000000 1.0
C      1  0.5611000000000  0.5727470000000  0.4274570000000 1.0
C      1  0.5039840000000  0.5657200000000  0.4823350000000 1.0
C      1  0.5915280000000  0.4327360000000  0.4832090000000 1.0
C      1  0.5273460000000  0.4240930000000  0.4142540000000 1.0
C      1  0.5205830000000  0.5914960000000  0.4298640000000 1.0
C      1  0.5831180000000  0.4654140000000  0.4874570000000 1.0
C      1  0.5255850000000  0.4623210000000  0.3970330000000 1.0
C      1  0.5299170000000  0.5596760000000  0.4701010000000 1.0
C      1  0.5435530000000  0.5213720000000  0.5492700000000 1.0
C      1  0.4743880000000  0.5705360000000  0.5402330000000 1.0
C      1  0.5251030000000  0.4815730000000  0.4579330000000 1.0
C      1  0.5654870000000  0.4326030000000  0.5308290000000 1.0
C      1  0.4086750000000  0.5213120000000  0.4357480000000 1.0
C      1  0.5485760000000  0.4575030000000  0.4199530000000 1.0
C      1  0.5081720000000  0.4118460000000  0.4585420000000 1.0
C      1  0.4472920000000  0.4342290000000  0.4643350000000 1.0
C      1  0.4495110000000  0.4677260000000  0.5257900000000 1.0
C      1  0.4895070000000  0.6026430000000  0.4247950000000 1.0
C      1  0.4119150000000  0.4761210000000  0.4470930000000 1.0
C      1  0.4764720000000  0.5062200000000  0.5367970000000 1.0
C      1  0.3987460000000  0.4834350000000  0.5415590000000 1.0
C      1  0.4863540000000  0.5090310000000  0.3803250000000 1.0
C      1  0.5998120000000  0.4729010000000  0.5704190000000 1.0
C      1  0.4523030000000  0.5253290000000  0.4174850000000 1.0
C      1  0.5132730000000  0.4547110000000  0.4750960000000 1.0
C      1  0.4986320000000  0.5239480000000  0.4803680000000 1.0
C      1  0.4438890000000  0.4941280000000  0.4088500000000 1.0
C      1  0.4590830000000  0.4980990000000  0.5621860000000 1.0
C      1  0.5277710000000  0.4950310000000  0.4282750000000 1.0
C      1  0.5171560000000  0.5066130000000  0.5337330000000 1.0
C      1  0.4276350000000  0.4446380000000  0.5378740000000 1.0
C      1  0.5554610000000  0.4702110000000  0.4682230000000 1.0
C      1  0.5722970000000  0.4784300000000  0.5260420000000 1.0
C      1  0.4905530000000  0.4309540000000  0.4970780000000 1.0
C      1  0.4112610000000  0.4416720000000  0.4796100000000 1.0
C      1  0.4259270000000  0.5033000000000  0.5200240000000 1.0
C      1  0.5887560000000  0.5091560000000  0.5572390000000 1.0
C      1  0.5167790000000  0.5396730000000  0.5257940000000 1.0
C      1  0.5442800000000  0.5856870000000  0.4540310000000 1.0
C      1  0.5046240000000  0.4225270000000  0.5385480000000 1.0
C      1  0.4300570000000  0.4911940000000  0.5515320000000 1.0
C      1  0.4704660000000  0.5820260000000  0.4397330000000 1.0
C      1  0.5568480000000  0.4367840000000  0.4619330000000 1.0
C      1  0.3798890000000  0.5065940000000  0.4807440000000 1.0
C      1  0.4479420000000  0.4884040000000  0.4987660000000 1.0
C      1  0.5817900000000  0.5783480000000  0.5087440000000 1.0
C      1  0.4429910000000  0.6102380000000  0.5014700000000 1.0
C      1  0.5248590000000  0.4391950000000  0.5505840000000 1.0
C      1  0.4329900000000  0.5803300000000  0.4891330000000 1.0
C      1  0.5949700000000  0.5354710000000  0.5536980000000 1.0
C      1  0.4840590000000  0.5905810000000  0.5193180000000 1.0
C      1  0.5654180000000  0.4147390000000  0.4835440000000 1.0
C      1  0.5337470000000  0.4294100000000  0.5995030000000 1.0
C      1  0.4867560000000  0.4867070000000  0.5899670000000 1.0
C      1  0.4871090000000  0.5339970000000  0.5100960000000 1.0
C      1  0.4199010000000  0.5954360000000  0.5158180000000 1.0
C      1  0.4108290000000  0.4574810000000  0.5601090000000 1.0
C      1  0.4719850000000  0.3760590000000  0.5028180000000 1.0
C      1  0.5527760000000  0.5519600000000  0.4018510000000 1.0
C      1  0.5717830000000  0.5236740000000  0.5962570000000 1.0
C      1  0.6068960000000  0.4807060000000  0.5066120000000 1.0
C      1  0.5639100000000  0.5030410000000  0.4709760000000 1.0
C      1  0.4237960000000  0.5831100000000  0.5392070000000 1.0
C      1  0.5527360000000  0.4354300000000  0.5568700000000 1.0
C      1  0.5340570000000  0.4747650000000  0.5960950000000 1.0
C      1  0.6024430000000  0.4857550000000  0.5399600000000 1.0
C      1  0.4586880000000  0.4644830000000  0.5584090000000 1.0
C      1  0.4302520000000  0.4168400000000  0.4880710000000 1.0
C      1  0.5296210000000  0.6022200000000  0.5693430000000 1.0
C      1  0.5734990000000  0.4999140000000  0.4386400000000 1.0
C      1  0.5284730000000  0.5275150000000  0.4011230000000 1.0
C      1  0.5270400000000  0.6042380000000  0.4767290000000 1.0
C      1  0.5281830000000  0.5186490000000  0.4881510000000 1.0
C      1  0.4851180000000  0.5326840000000  0.5655450000000 1.0
C      1  0.5133090000000  0.3914810000000  0.4773670000000 1.0
C      1  0.5194120000000  0.4945130000000  0.5066140000000 1.0
C      1  0.4533640000000  0.5533880000000  0.4080780000000 1.0
C      1  0.4707790000000  0.4182190000000  0.5663190000000 1.0
C      1  0.5670110000000  0.4323130000000  0.4321430000000 1.0
C      1  0.4796300000000  0.4272680000000  0.4650820000000 1.0
C      1  0.4929930000000  0.4696040000000  0.3992660000000 1.0
C      1  0.4829970000000  0.4732270000000  0.5279510000000 1.0
C      1  0.4607520000000  0.4943140000000  0.6176290000000 1.0
C      1  0.4357480000000  0.5007970000000  0.4695290000000 1.0
C      1  0.4790980000000  0.4400400000000  0.5342760000000 1.0
C      1  0.5913000000000  0.4501150000000  0.5270430000000 1.0
C      1  0.4171900000000  0.4367440000000  0.4485300000000 1.0
C      1  0.4397430000000  0.4673880000000  0.4646070000000 1.0
C      1  0.5564350000000  0.4411180000000  0.5838710000000 1.0
C      1  0.5299300000000  0.4272180000000  0.4457170000000 1.0
C      1  0.4031130000000  0.5174410000000  0.5409280000000 1.0
C      1  0.4594900000000  0.5349130000000  0.5299210000000 1.0
C      1  0.4195670000000  0.4708270000000  0.4922330000000 1.0
C      1  0.4987050000000  0.4682040000000  0.5567170000000 1.0
C      1  0.4649980000000  0.4852170000000  0.3879170000000 1.0
C      1  0.4772550000000  0.4867280000000  0.4386320000000 1.0
C      1  0.5633460000000  0.4065670000000  0.5157500000000 1.0
C      1  0.5936770000000  0.5756190000000  0.4590850000000 1.0
C      1  0.4070620000000  0.4397150000000  0.5133190000000 1.0
C      1  0.5308720000000  0.4652070000000  0.5009740000000 1.0
C      1  0.4180950000000  0.5331950000000  0.5074990000000 1.0
C      1  0.5300730000000  0.5938540000000  0.5027700000000 1.0
C      1  0.5505520000000  0.4882290000000  0.5456690000000 1.0
C      1  0.5845400000000  0.5636220000000  0.5392690000000 1.0
C      1  0.4861930000000  0.5337500000000  0.4558780000000 1.0
C      1  0.4161920000000  0.4961300000000  0.4281570000000 1.0
C      1  0.4518250000000  0.4229610000000  0.5397240000000 1.0
C      1  0.4591960000000  0.5142880000000  0.4489010000000 1.0
C      1  0.4337510000000  0.5483820000000  0.5695860000000 1.0
C      1  0.5572500000000  0.4557690000000  0.5073360000000 1.0
C      1  0.4830960000000  0.5497940000000  0.5914120000000 1.0
C      1  0.5724170000000  0.4680310000000  0.5877130000000 1.0
C      1  0.4807360000000  0.5093090000000  0.4156260000000 1.0
C      1  0.4531270000000  0.5112820000000  0.5910380000000 1.0
C      1  0.4998000000000  0.5753340000000  0.4073480000000 1.0
C      1  0.4956140000000  0.5594990000000  0.4437960000000 1.0
C      1  0.4676470000000  0.6149920000000  0.5107740000000 1.0
C      1  0.5312570000000  0.4698590000000  0.5635410000000 1.0
C      1  0.5462520000000  0.5418920000000  0.4336740000000 1.0
C      1  0.4435220000000  0.5538320000000  0.5064960000000 1.0
C      1  0.5314280000000  0.5530370000000  0.5534460000000 1.0
C      1  0.5486670000000  0.5330320000000  0.4659640000000 1.0
C      1  0.3934940000000  0.5630730000000  0.4536350000000 1.0
C      1  0.6232380000000  0.5285740000000  0.5142780000000 1.0
C      1  0.6067480000000  0.4398740000000  0.5071350000000 1.0
C      1  0.4492180000000  0.5399070000000  0.4689110000000 1.0
C      1  0.3885910000000  0.5308290000000  0.4597720000000 1.0
C      1  0.5613040000000  0.4852540000000  0.6136100000000 1.0
C      1  0.4923070000000  0.5507740000000  0.5460030000000 1.0
C      1  0.5513190000000  0.5727420000000  0.5023500000000 1.0
C      1  0.5058000000000  0.4662950000000  0.6003510000000 1.0
C      1  0.4086290000000  0.5371990000000  0.5590430000000 1.0
C      1  0.4681320000000  0.3783340000000  0.4514450000000 1.0
C      1  0.5185280000000  0.4565480000000  0.4358750000000 1.0
C      1  0.4709540000000  0.4745120000000  0.4760960000000 1.0
C      1  0.5158750000000  0.5514340000000  0.4217470000000 1.0
C      1  0.5122670000000  0.4137440000000  0.5103830000000 1.0
C      1  0.5136110000000  0.5933080000000  0.5242080000000 1.0
C      1  0.5366380000000  0.5065980000000  0.6077590000000 1.0
C      1  0.4988780000000  0.5017940000000  0.5620010000000 1.0
C      1  0.4752820000000  0.5643550000000  0.5003680000000 1.0
C      1  0.5939320000000  0.5201840000000  0.4496120000000 1.0
C      1  0.4363090000000  0.5765040000000  0.4592400000000 1.0
C      1  0.6178320000000  0.5051240000000  0.4971220000000 1.0
C      1  0.5298720000000  0.5080830000000  0.5751370000000 1.0
C      1  0.5521720000000  0.5123600000000  0.4229200000000 1.0
C      1  0.5102190000000  0.4988460000000  0.4023020000000 1.0
C      1  0.4827070000000  0.4462650000000  0.5743760000000 1.0
C      1  0.4568480000000  0.3933670000000  0.5241060000000 1.0
C      1  0.5051250000000  0.4375040000000  0.5984550000000 1.0
C      1  0.5764090000000  0.4709080000000  0.4341590000000 1.0
END
