TITL C-2848494-1720-3 0.00193904064704918 125000 -433.4851756838 0 0 84 (C1) n - 1
REM
REM in /home/bkarasulu/work/CARBON/AIRSS/Generating-Clusters/AIREBO/with-SteepDescent/Only-C1/SD-CG-opt/Try1-1.4A-POS3A/HFTN-CG
REM
REM
REM
REM
REM
REM ./C.cell (11c1c37f851c82e70ff6c80c92926a4b)
REM
REM compiler GCC version 9.2.1 20190827 (Red Hat 9.2.1-1)
REM options -cpp -mtune=generic -march=x86-64 -g -O0 -fpre-include=/usr/include/finclude/math-vector-fortran.h
REM seed 767183244 -104124972 77223092 953187616 1638803423 1403658674 570630486 1317415838 1619910490 -1414588451 503145268 2080267263 -651317983 -2030796984 950339258 2075430417 1045376759 -164220787 -215703182 -1655931657 1900748159 755226637 743873189 -2124068337 755841137 -421049292 1180417234 1639258123 -2048889571 1514707273 1889779834 2071171644 -2084985402
REM
CELL 1.54180   50.00000   50.00000   50.00000   90.00000   90.00000   90.00000
LATT -1
SFAC C  
C      1  0.4796210000000  0.4709280000000  0.4655190000000 1.0
C      1  0.5045320000000  0.5540700000000  0.5519120000000 1.0
C      1  0.4919610000000  0.4539350000000  0.4306510000000 1.0
C      1  0.5319870000000  0.5089650000000  0.5766660000000 1.0
C      1  0.5591300000000  0.5598630000000  0.4609090000000 1.0
C      1  0.5416700000000  0.4177770000000  0.5268290000000 1.0
C      1  0.4395500000000  0.5551450000000  0.5491120000000 1.0
C      1  0.5363700000000  0.4854650000000  0.5033350000000 1.0
C      1  0.5126530000000  0.4849980000000  0.5831290000000 1.0
C      1  0.5323420000000  0.5437220000000  0.4475530000000 1.0
C      1  0.4907190000000  0.5242860000000  0.5198830000000 1.0
C      1  0.4612030000000  0.4914700000000  0.5087270000000 1.0
C      1  0.5507040000000  0.4997660000000  0.4541440000000 1.0
C      1  0.4682510000000  0.5401750000000  0.4999050000000 1.0
C      1  0.4120270000000  0.4992810000000  0.5079180000000 1.0
C      1  0.4922010000000  0.5105000000000  0.5751560000000 1.0
C      1  0.4158110000000  0.4745070000000  0.5230960000000 1.0
C      1  0.5035840000000  0.5369020000000  0.4307400000000 1.0
C      1  0.4790610000000  0.4459480000000  0.4092110000000 1.0
C      1  0.5156030000000  0.5123390000000  0.5049500000000 1.0
C      1  0.5388950000000  0.5227240000000  0.5274460000000 1.0
C      1  0.4760820000000  0.4139890000000  0.4551130000000 1.0
C      1  0.4997720000000  0.5389450000000  0.4701780000000 1.0
C      1  0.4411910000000  0.5483960000000  0.4781680000000 1.0
C      1  0.4400690000000  0.5200320000000  0.4660860000000 1.0
C      1  0.5283770000000  0.5030890000000  0.4153420000000 1.0
C      1  0.5279180000000  0.5275590000000  0.4771420000000 1.0
C      1  0.4784300000000  0.5178090000000  0.4763780000000 1.0
C      1  0.4622770000000  0.4469640000000  0.5662990000000 1.0
C      1  0.5478790000000  0.5548580000000  0.5209070000000 1.0
C      1  0.5095780000000  0.4374710000000  0.5402570000000 1.0
C      1  0.4471560000000  0.5311230000000  0.5250120000000 1.0
C      1  0.5566810000000  0.5013170000000  0.5670390000000 1.0
C      1  0.4142740000000  0.5234190000000  0.5210840000000 1.0
C      1  0.4136660000000  0.5490040000000  0.5371100000000 1.0
C      1  0.4666470000000  0.5097490000000  0.4475390000000 1.0
C      1  0.5114160000000  0.5708630000000  0.5240660000000 1.0
C      1  0.5337040000000  0.4737660000000  0.5336310000000 1.0
C      1  0.5436080000000  0.4435300000000  0.5449200000000 1.0
C      1  0.5244940000000  0.5770210000000  0.4973820000000 1.0
C      1  0.4971880000000  0.5821680000000  0.4780580000000 1.0
C      1  0.5255040000000  0.4899630000000  0.4643600000000 1.0
C      1  0.4992040000000  0.4455130000000  0.4893860000000 1.0
C      1  0.4390030000000  0.4900500000000  0.4496150000000 1.0
C      1  0.5449600000000  0.5171550000000  0.4326890000000 1.0
C      1  0.5531370000000  0.5134420000000  0.4914030000000 1.0
C      1  0.5591560000000  0.4963050000000  0.5343720000000 1.0
C      1  0.5748050000000  0.4724890000000  0.5158060000000 1.0
C      1  0.4360390000000  0.4968130000000  0.4885740000000 1.0
C      1  0.4707970000000  0.5650840000000  0.4768830000000 1.0
C      1  0.4543590000000  0.4800040000000  0.5619910000000 1.0
C      1  0.5714150000000  0.4924460000000  0.4739670000000 1.0
C      1  0.4891340000000  0.5085230000000  0.4261690000000 1.0
C      1  0.4774980000000  0.5076690000000  0.3975460000000 1.0
C      1  0.5369780000000  0.4574540000000  0.4840290000000 1.0
C      1  0.5175830000000  0.4204630000000  0.4755700000000 1.0
C      1  0.5831090000000  0.5174350000000  0.5226970000000 1.0
C      1  0.4423830000000  0.4691090000000  0.5258300000000 1.0
C      1  0.5689670000000  0.4679680000000  0.4888190000000 1.0
C      1  0.5435940000000  0.5471940000000  0.5510300000000 1.0
C      1  0.4780830000000  0.4301290000000  0.5410790000000 1.0
C      1  0.4706140000000  0.5534120000000  0.5493940000000 1.0
C      1  0.4869570000000  0.5577540000000  0.4480820000000 1.0
C      1  0.5248590000000  0.4389930000000  0.5099090000000 1.0
C      1  0.5036410000000  0.4764230000000  0.5452610000000 1.0
C      1  0.5082840000000  0.4806300000000  0.4299510000000 1.0
C      1  0.4840410000000  0.4714990000000  0.5717060000000 1.0
C      1  0.4869780000000  0.4393310000000  0.4582580000000 1.0
C      1  0.5203440000000  0.4559790000000  0.5666890000000 1.0
C      1  0.5214380000000  0.5729810000000  0.4610170000000 1.0
C      1  0.4986010000000  0.4938350000000  0.4820200000000 1.0
C      1  0.5245610000000  0.4609230000000  0.4524740000000 1.0
C      1  0.5308190000000  0.4299570000000  0.4556680000000 1.0
C      1  0.4886700000000  0.4718570000000  0.5040270000000 1.0
C      1  0.4395800000000  0.4688640000000  0.4721120000000 1.0
C      1  0.4798190000000  0.5228060000000  0.5499920000000 1.0
C      1  0.4598900000000  0.4512740000000  0.4850310000000 1.0
C      1  0.4819330000000  0.5632880000000  0.5207760000000 1.0
C      1  0.4655770000000  0.4393030000000  0.5099870000000 1.0
C      1  0.5687160000000  0.5363500000000  0.5046230000000 1.0
C      1  0.4573470000000  0.5028050000000  0.5405520000000 1.0
C      1  0.5551880000000  0.5643560000000  0.4899040000000 1.0
C      1  0.4751550000000  0.4629090000000  0.5325200000000 1.0
C      1  0.5230000000000  0.5354250000000  0.5697320000000 1.0
END
