TITL C-2847948-6138-519 -0.00608188310703417 125000 -278.319646643713 0 0 53 (C1) n - 1
REM
REM in /home/bkarasulu/work/CARBON/AIRSS/Generating-Clusters/AIREBO/with-SteepDescent/Only-C1/SD-CG-opt/Try1-1.4A-POS3A/HFTN-CG
REM
REM
REM
REM
REM
REM ./C.cell (11c1c37f851c82e70ff6c80c92926a4b)
REM
REM compiler GCC version 9.2.1 20190827 (Red Hat 9.2.1-1)
REM options -cpp -mtune=generic -march=x86-64 -g -O0 -fpre-include=/usr/include/finclude/math-vector-fortran.h
REM seed -830345759 2015254681 -1265816213 -7178729 -1297996970 -395727260 -640227410 902735337 -1489999237 -1916430190 8820801 1212057521 910453977 1629944821 1335073473 -665199980 44877036 -1069088706 -1415277390 -1253220595 29839002 412109321 -1594874461 -1351147652 1721038517 459830329 627295727 -994487843 1115826803 1367964083 -2017121556 -330470112 1496174158
REM
CELL 1.54180   50.00000   50.00000   50.00000   90.00000   90.00000   90.00000
LATT -1
SFAC C  
C      1  0.5251060000000  0.4638920000000  0.5126650000000 1.0
C      1  0.5203140000000  0.4861250000000  0.4901150000000 1.0
C      1  0.5000800000000  0.4285190000000  0.4819460000000 1.0
C      1  0.4223250000000  0.4811060000000  0.5249580000000 1.0
C      1  0.4678510000000  0.5649580000000  0.4876320000000 1.0
C      1  0.4622990000000  0.5537830000000  0.5356300000000 1.0
C      1  0.4578910000000  0.4903350000000  0.4245080000000 1.0
C      1  0.4447730000000  0.5162720000000  0.4612760000000 1.0
C      1  0.5166360000000  0.5427060000000  0.4597530000000 1.0
C      1  0.4849050000000  0.4458610000000  0.4659520000000 1.0
C      1  0.4765670000000  0.5678860000000  0.4618380000000 1.0
C      1  0.5208960000000  0.4363470000000  0.4976570000000 1.0
C      1  0.5677340000000  0.4938520000000  0.4943530000000 1.0
C      1  0.5211250000000  0.4703240000000  0.4423100000000 1.0
C      1  0.5531450000000  0.5021710000000  0.4709870000000 1.0
C      1  0.4678130000000  0.4868550000000  0.5095970000000 1.0
C      1  0.5364390000000  0.4784770000000  0.4627820000000 1.0
C      1  0.4485920000000  0.4753640000000  0.5277150000000 1.0
C      1  0.5408350000000  0.4986680000000  0.5269060000000 1.0
C      1  0.4683430000000  0.5171450000000  0.4202840000000 1.0
C      1  0.4903910000000  0.4918610000000  0.4861410000000 1.0
C      1  0.5042700000000  0.5635570000000  0.5090970000000 1.0
C      1  0.4794980000000  0.5402800000000  0.5079400000000 1.0
C      1  0.5230960000000  0.4354350000000  0.5529720000000 1.0
C      1  0.5558920000000  0.4561490000000  0.4884490000000 1.0
C      1  0.4921680000000  0.5664340000000  0.5354190000000 1.0
C      1  0.5420520000000  0.5319110000000  0.4745640000000 1.0
C      1  0.4880230000000  0.5101760000000  0.5216020000000 1.0
C      1  0.5040810000000  0.5213490000000  0.4806250000000 1.0
C      1  0.4958500000000  0.4517160000000  0.4377090000000 1.0
C      1  0.5088870000000  0.4595610000000  0.5399200000000 1.0
C      1  0.4724360000000  0.4665000000000  0.4794810000000 1.0
C      1  0.4836480000000  0.4646420000000  0.5579610000000 1.0
C      1  0.4657100000000  0.5336750000000  0.4442480000000 1.0
C      1  0.4918980000000  0.4822200000000  0.5787310000000 1.0
C      1  0.4432300000000  0.4389160000000  0.5583430000000 1.0
C      1  0.5580450000000  0.4708650000000  0.5175310000000 1.0
C      1  0.5526810000000  0.5165340000000  0.5467520000000 1.0
C      1  0.5026150000000  0.4279540000000  0.4237410000000 1.0
C      1  0.5122820000000  0.4930140000000  0.5376860000000 1.0
C      1  0.5306290000000  0.5144670000000  0.5014240000000 1.0
C      1  0.5464820000000  0.5585130000000  0.5227850000000 1.0
C      1  0.4386830000000  0.4927700000000  0.4462340000000 1.0
C      1  0.5110590000000  0.5004860000000  0.5683440000000 1.0
C      1  0.5075460000000  0.5493960000000  0.5576410000000 1.0
C      1  0.5392040000000  0.5445370000000  0.5482510000000 1.0
C      1  0.4580950000000  0.4590160000000  0.5482260000000 1.0
C      1  0.4817360000000  0.5301500000000  0.5464860000000 1.0
C      1  0.5505590000000  0.5498580000000  0.4999040000000 1.0
C      1  0.4987380000000  0.5587310000000  0.4483880000000 1.0
C      1  0.4713120000000  0.5259070000000  0.4782280000000 1.0
C      1  0.4738420000000  0.4676770000000  0.4224780000000 1.0
C      1  0.5216920000000  0.5250980000000  0.5738380000000 1.0
END
