TITL C-2848496-4490-73 3.22225468810492e-06 125000 -259.614115793647 0 0 46 (C1) n - 1
REM
REM in /home/bkarasulu/work/CARBON/AIRSS/Generating-Clusters/AIREBO/with-SteepDescent/Only-C1/SD-CG-opt/Try1-1.4A-POS3A/HFTN-CG
REM
REM
REM
REM
REM
REM ./C.cell (11c1c37f851c82e70ff6c80c92926a4b)
REM
REM compiler GCC version 9.2.1 20190827 (Red Hat 9.2.1-1)
REM options -cpp -mtune=generic -march=x86-64 -g -O0 -fpre-include=/usr/include/finclude/math-vector-fortran.h
REM seed -609835611 -131859870 -86575942 -162196946 -1052344745 -1081531612 -123025053 2006469530 781502766 493470470 351421172 1179554292 -546810509 -61352286 1759767703 -185960815 -1900747992 159768683 853012529 987954298 -1955506170 -1913247486 -381678236 -1155940782 1903588928 -1285949211 -357774618 -257369326 1817215406 112841294 1063208904 1822093114 -1908063888
REM
CELL 1.54180   50.00000   50.00000   50.00000   90.00000   90.00000   90.00000
LATT -1
SFAC C  
C      1  0.5428400000000  0.4619200000000  0.4637060000000 1.0
C      1  0.4791440000000  0.5736280000000  0.4731260000000 1.0
C      1  0.5154000000000  0.5446660000000  0.5336440000000 1.0
C      1  0.5038420000000  0.5125480000000  0.4515210000000 1.0
C      1  0.5502390000000  0.5294380000000  0.5214080000000 1.0
C      1  0.5417240000000  0.5408160000000  0.4539790000000 1.0
C      1  0.4436490000000  0.5454780000000  0.5219070000000 1.0
C      1  0.4488130000000  0.4730260000000  0.5694830000000 1.0
C      1  0.5371730000000  0.4445890000000  0.5125110000000 1.0
C      1  0.4583060000000  0.4670650000000  0.5444000000000 1.0
C      1  0.5225480000000  0.4907350000000  0.5541790000000 1.0
C      1  0.4820010000000  0.4462510000000  0.4697620000000 1.0
C      1  0.4955810000000  0.5550850000000  0.5171510000000 1.0
C      1  0.4281920000000  0.4877180000000  0.4866590000000 1.0
C      1  0.4640500000000  0.4404810000000  0.5368180000000 1.0
C      1  0.5612240000000  0.5491050000000  0.5348560000000 1.0
C      1  0.5464390000000  0.4870140000000  0.4511070000000 1.0
C      1  0.4784900000000  0.5147540000000  0.5324560000000 1.0
C      1  0.4851720000000  0.4856030000000  0.5045180000000 1.0
C      1  0.5383440000000  0.5073800000000  0.5095890000000 1.0
C      1  0.5555180000000  0.4872660000000  0.5015830000000 1.0
C      1  0.5058700000000  0.5079340000000  0.5041390000000 1.0
C      1  0.4590290000000  0.5566450000000  0.4646510000000 1.0
C      1  0.4848250000000  0.4645820000000  0.4883140000000 1.0
C      1  0.5453900000000  0.5139760000000  0.4528260000000 1.0
C      1  0.5289010000000  0.5631900000000  0.4744190000000 1.0
C      1  0.5401990000000  0.4703900000000  0.5555620000000 1.0
C      1  0.5823270000000  0.4907760000000  0.5028280000000 1.0
C      1  0.4264850000000  0.5238070000000  0.5199150000000 1.0
C      1  0.5505980000000  0.5718500000000  0.4522750000000 1.0
C      1  0.4966850000000  0.5259710000000  0.4810790000000 1.0
C      1  0.4579330000000  0.5061930000000  0.4515740000000 1.0
C      1  0.4662420000000  0.5294600000000  0.4662810000000 1.0
C      1  0.5476520000000  0.4504250000000  0.5382880000000 1.0
C      1  0.4354040000000  0.4985440000000  0.5112780000000 1.0
C      1  0.4713630000000  0.5410260000000  0.5237370000000 1.0
C      1  0.4880580000000  0.4359150000000  0.5234140000000 1.0
C      1  0.5383470000000  0.4392820000000  0.4498290000000 1.0
C      1  0.5124660000000  0.4311750000000  0.5128240000000 1.0
C      1  0.5452490000000  0.4623470000000  0.4918120000000 1.0
C      1  0.5103410000000  0.5126840000000  0.5375140000000 1.0
C      1  0.4610930000000  0.4892910000000  0.5244170000000 1.0
C      1  0.4348990000000  0.4934130000000  0.4607370000000 1.0
C      1  0.4828020000000  0.4986850000000  0.4393970000000 1.0
C      1  0.5024970000000  0.5573610000000  0.4865460000000 1.0
C      1  0.4466550000000  0.4205110000000  0.5419820000000 1.0
END
