TITL C-2847945-6269-616 0.00155344386203026 125000 -815.167303433579 0 0 151 (C1) n - 1
REM
REM in /home/bkarasulu/work/CARBON/AIRSS/Generating-Clusters/AIREBO/with-SteepDescent/Only-C1/SD-CG-opt/Try1-1.4A-POS3A/HFTN-CG
REM
REM
REM
REM
REM
REM ./C.cell (11c1c37f851c82e70ff6c80c92926a4b)
REM
REM compiler GCC version 9.2.1 20190827 (Red Hat 9.2.1-1)
REM options -cpp -mtune=generic -march=x86-64 -g -O0 -fpre-include=/usr/include/finclude/math-vector-fortran.h
REM seed 60593587 1582708946 2060297043 438808378 1314831780 -1005856042 -1523495387 -718316093 2056406412 1727422357 1284332437 1568087799 -1281067714 636968540 -913427549 1779487751 -1440834830 2102459807 1513832921 -299482868 869886975 560499523 -1342330986 1025406624 1453934374 -1260446580 1380926132 791933902 1648510603 1513172564 -1715793163 763771900 -48026776
REM
CELL 1.54180   50.00000   50.00000   50.00000   90.00000   90.00000   90.00000
LATT -1
SFAC C  
C      1  0.5539050000000  0.5920380000000  0.4954300000000 1.0
C      1  0.4540910000000  0.5227890000000  0.5165820000000 1.0
C      1  0.4722630000000  0.4210360000000  0.5125380000000 1.0
C      1  0.5763590000000  0.4357750000000  0.4861510000000 1.0
C      1  0.5102610000000  0.4753130000000  0.4323810000000 1.0
C      1  0.4053250000000  0.4875200000000  0.5385590000000 1.0
C      1  0.4474210000000  0.4720310000000  0.5664120000000 1.0
C      1  0.4047690000000  0.4860610000000  0.4844000000000 1.0
C      1  0.4556310000000  0.4112950000000  0.4776140000000 1.0
C      1  0.4191760000000  0.5301330000000  0.4356910000000 1.0
C      1  0.4322750000000  0.4245800000000  0.4985050000000 1.0
C      1  0.5910390000000  0.5399720000000  0.4581000000000 1.0
C      1  0.5078860000000  0.4988820000000  0.4689570000000 1.0
C      1  0.4640480000000  0.4437800000000  0.5754610000000 1.0
C      1  0.4688810000000  0.5880180000000  0.4570320000000 1.0
C      1  0.4751810000000  0.4834280000000  0.4088120000000 1.0
C      1  0.5193160000000  0.4613350000000  0.4620560000000 1.0
C      1  0.4572110000000  0.4608700000000  0.4876250000000 1.0
C      1  0.4402860000000  0.5451640000000  0.5881830000000 1.0
C      1  0.5659150000000  0.4293670000000  0.5399610000000 1.0
C      1  0.5004920000000  0.5527530000000  0.5652490000000 1.0
C      1  0.5426720000000  0.4817660000000  0.5359910000000 1.0
C      1  0.4544860000000  0.5101310000000  0.4049470000000 1.0
C      1  0.5649570000000  0.5204240000000  0.4988630000000 1.0
C      1  0.5185210000000  0.5445460000000  0.4552990000000 1.0
C      1  0.4408830000000  0.4826530000000  0.4146650000000 1.0
C      1  0.6017710000000  0.4869340000000  0.4728480000000 1.0
C      1  0.4801430000000  0.4742000000000  0.5080590000000 1.0
C      1  0.5132080000000  0.4056630000000  0.4722800000000 1.0
C      1  0.5766080000000  0.5806290000000  0.5564620000000 1.0
C      1  0.5470800000000  0.5122240000000  0.4171940000000 1.0
C      1  0.4035430000000  0.5190730000000  0.4925090000000 1.0
C      1  0.4393780000000  0.5534560000000  0.5165310000000 1.0
C      1  0.5670190000000  0.5070740000000  0.5701800000000 1.0
C      1  0.4738450000000  0.5152200000000  0.4393460000000 1.0
C      1  0.6062850000000  0.4858970000000  0.5056700000000 1.0
C      1  0.5247310000000  0.5573060000000  0.4179310000000 1.0
C      1  0.5602240000000  0.4596970000000  0.4282980000000 1.0
C      1  0.4957510000000  0.5440770000000  0.4881660000000 1.0
C      1  0.5206160000000  0.5477310000000  0.5827510000000 1.0
C      1  0.4782280000000  0.4221990000000  0.4275330000000 1.0
C      1  0.5332440000000  0.5250790000000  0.5523020000000 1.0
C      1  0.5403840000000  0.4606140000000  0.5838460000000 1.0
C      1  0.5237100000000  0.5040590000000  0.6168810000000 1.0
C      1  0.4223520000000  0.5734570000000  0.4660060000000 1.0
C      1  0.5203180000000  0.5249620000000  0.4832580000000 1.0
C      1  0.5877540000000  0.5150000000000  0.5498610000000 1.0
C      1  0.5190050000000  0.4058960000000  0.5049020000000 1.0
C      1  0.4762910000000  0.5361560000000  0.4617680000000 1.0
C      1  0.4709240000000  0.4724290000000  0.4386410000000 1.0
C      1  0.5639850000000  0.5330180000000  0.5399230000000 1.0
C      1  0.5285620000000  0.5133570000000  0.4461670000000 1.0
C      1  0.4403720000000  0.4833960000000  0.5020930000000 1.0
C      1  0.5598140000000  0.5707770000000  0.5284250000000 1.0
C      1  0.4671240000000  0.4952330000000  0.5291370000000 1.0
C      1  0.4597500000000  0.5628350000000  0.4924820000000 1.0
C      1  0.5459200000000  0.4377830000000  0.4979720000000 1.0
C      1  0.4943010000000  0.4471850000000  0.5758030000000 1.0
C      1  0.4470770000000  0.4398990000000  0.4650550000000 1.0
C      1  0.5776260000000  0.5484090000000  0.5127830000000 1.0
C      1  0.4527500000000  0.4650400000000  0.5353240000000 1.0
C      1  0.4068890000000  0.5466150000000  0.5070830000000 1.0
C      1  0.5507290000000  0.5729910000000  0.4708990000000 1.0
C      1  0.5193620000000  0.5304030000000  0.4113090000000 1.0
C      1  0.5426000000000  0.5011500000000  0.4930420000000 1.0
C      1  0.4327760000000  0.5273300000000  0.4666020000000 1.0
C      1  0.4501350000000  0.5352560000000  0.4254260000000 1.0
C      1  0.5279430000000  0.4027310000000  0.5700000000000 1.0
C      1  0.4672530000000  0.4023870000000  0.5393180000000 1.0
C      1  0.4103400000000  0.4709940000000  0.5121240000000 1.0
C      1  0.4317740000000  0.4793230000000  0.4423890000000 1.0
C      1  0.5597130000000  0.5153620000000  0.4596500000000 1.0
C      1  0.5552400000000  0.4694420000000  0.4897820000000 1.0
C      1  0.4139160000000  0.4764470000000  0.5626610000000 1.0
C      1  0.4471420000000  0.5057590000000  0.5620680000000 1.0
C      1  0.4848800000000  0.4442760000000  0.4770260000000 1.0
C      1  0.5629800000000  0.5451380000000  0.4757370000000 1.0
C      1  0.4233790000000  0.5082230000000  0.5179530000000 1.0
C      1  0.5004350000000  0.5075810000000  0.4279590000000 1.0
C      1  0.4530280000000  0.4211130000000  0.5619610000000 1.0
C      1  0.5650420000000  0.4526650000000  0.4617440000000 1.0
C      1  0.4756780000000  0.5216870000000  0.5634510000000 1.0
C      1  0.5165030000000  0.4649070000000  0.5288020000000 1.0
C      1  0.5230950000000  0.5852560000000  0.4590890000000 1.0
C      1  0.4134070000000  0.4690250000000  0.4630920000000 1.0
C      1  0.6007940000000  0.4591880000000  0.5189650000000 1.0
C      1  0.5435970000000  0.4199310000000  0.5240540000000 1.0
C      1  0.5470290000000  0.4785270000000  0.4524220000000 1.0
C      1  0.4975800000000  0.3950840000000  0.5290510000000 1.0
C      1  0.4591650000000  0.4450310000000  0.4390040000000 1.0
C      1  0.5570270000000  0.4780130000000  0.5639930000000 1.0
C      1  0.4312010000000  0.4493440000000  0.5208290000000 1.0
C      1  0.5023210000000  0.5907000000000  0.5456590000000 1.0
C      1  0.5857260000000  0.5066090000000  0.5194700000000 1.0
C      1  0.4557100000000  0.4959490000000  0.4573740000000 1.0
C      1  0.5662790000000  0.5353170000000  0.4348700000000 1.0
C      1  0.4772830000000  0.5012850000000  0.5975550000000 1.0
C      1  0.4778690000000  0.4831690000000  0.5731860000000 1.0
C      1  0.5339920000000  0.5668360000000  0.5066510000000 1.0
C      1  0.4911740000000  0.5623500000000  0.4530530000000 1.0
C      1  0.5530520000000  0.5648920000000  0.5671100000000 1.0
C      1  0.4514280000000  0.5940870000000  0.4840090000000 1.0
C      1  0.4949360000000  0.4495890000000  0.4162540000000 1.0
C      1  0.5181710000000  0.4151440000000  0.5436160000000 1.0
C      1  0.4571960000000  0.5660690000000  0.4327480000000 1.0
C      1  0.4000320000000  0.5233690000000  0.4595880000000 1.0
C      1  0.4802970000000  0.5865180000000  0.5008960000000 1.0
C      1  0.4289840000000  0.5230480000000  0.5480430000000 1.0
C      1  0.5038990000000  0.4416640000000  0.5476250000000 1.0
C      1  0.4993920000000  0.4300100000000  0.5004000000000 1.0
C      1  0.5167780000000  0.5830810000000  0.4309460000000 1.0
C      1  0.5980850000000  0.4382850000000  0.5015300000000 1.0
C      1  0.5996270000000  0.5375350000000  0.4890640000000 1.0
C      1  0.5068690000000  0.4763640000000  0.3985620000000 1.0
C      1  0.4792130000000  0.4480490000000  0.5293500000000 1.0
C      1  0.5781640000000  0.4902480000000  0.4595190000000 1.0
C      1  0.5464470000000  0.5581390000000  0.4414640000000 1.0
C      1  0.5755080000000  0.4597080000000  0.5417380000000 1.0
C      1  0.4877350000000  0.4735680000000  0.4651600000000 1.0
C      1  0.5115980000000  0.4241020000000  0.4277280000000 1.0
C      1  0.5307520000000  0.5743010000000  0.5457370000000 1.0
C      1  0.4722560000000  0.5475440000000  0.5469870000000 1.0
C      1  0.5090930000000  0.4943200000000  0.5951010000000 1.0
C      1  0.5517260000000  0.5346650000000  0.5785250000000 1.0
C      1  0.5380260000000  0.4809250000000  0.4135650000000 1.0
C      1  0.6162990000000  0.5169460000000  0.4960720000000 1.0
C      1  0.5673290000000  0.4806280000000  0.5167160000000 1.0
C      1  0.5066650000000  0.5095250000000  0.5646640000000 1.0
C      1  0.4833210000000  0.4169940000000  0.4600640000000 1.0
C      1  0.5134920000000  0.4642830000000  0.5890140000000 1.0
C      1  0.4158240000000  0.4401710000000  0.4726780000000 1.0
C      1  0.4485560000000  0.5094100000000  0.4852060000000 1.0
C      1  0.4482070000000  0.5546230000000  0.4634830000000 1.0
C      1  0.5054030000000  0.4877390000000  0.4980330000000 1.0
C      1  0.5178590000000  0.4568540000000  0.4957670000000 1.0
C      1  0.4327330000000  0.5483520000000  0.5601210000000 1.0
C      1  0.5088290000000  0.5530580000000  0.5341190000000 1.0
C      1  0.4617380000000  0.5266310000000  0.5928560000000 1.0
C      1  0.4599800000000  0.3924540000000  0.5016080000000 1.0
C      1  0.4504430000000  0.5708340000000  0.5434380000000 1.0
C      1  0.4854640000000  0.5842780000000  0.4276910000000 1.0
C      1  0.4949600000000  0.4858670000000  0.5443880000000 1.0
C      1  0.5303760000000  0.5354570000000  0.5200460000000 1.0
C      1  0.5211140000000  0.4285520000000  0.4539460000000 1.0
C      1  0.4832220000000  0.5403260000000  0.5156650000000 1.0
C      1  0.4221420000000  0.5752690000000  0.4969270000000 1.0
C      1  0.5080500000000  0.5747950000000  0.4870670000000 1.0
C      1  0.5233070000000  0.5031450000000  0.5195280000000 1.0
C      1  0.4790350000000  0.5851450000000  0.5318750000000 1.0
C      1  0.5649300000000  0.6138010000000  0.5028220000000 1.0
C      1  0.4375240000000  0.4186150000000  0.5317900000000 1.0
END
