TITL C-2848509-3138-713 -0.00352205297341052 125000 -713.547272275335 0 0 136 (C1) n - 1
REM
REM in /home/bkarasulu/work/CARBON/AIRSS/Generating-Clusters/AIREBO/with-SteepDescent/Only-C1/SD-CG-opt/Try1-1.4A-POS3A/HFTN-CG
REM
REM
REM
REM
REM
REM ./C.cell (11c1c37f851c82e70ff6c80c92926a4b)
REM
REM compiler GCC version 9.2.1 20190827 (Red Hat 9.2.1-1)
REM options -cpp -mtune=generic -march=x86-64 -g -O0 -fpre-include=/usr/include/finclude/math-vector-fortran.h
REM seed 450473663 -1090388272 1682798878 -352639865 1593736711 -2074391710 1820188725 -1417850551 -1609563569 -1246397392 1351097218 2056619356 -1819956573 1253872361 -1228282003 -1316703901 900259476 -2117358808 741363812 1604142340 -848074247 -2142059695 -938488764 542043903 750703740 504536512 1074066843 -841547484 1096734291 -1483070179 -1798611116 -1900130889 -955510772
REM
CELL 1.54180   50.00000   50.00000   50.00000   90.00000   90.00000   90.00000
LATT -1
SFAC C  
C      1  0.5032910000000  0.5595260000000  0.5144230000000 1.0
C      1  0.4605640000000  0.5592660000000  0.5321680000000 1.0
C      1  0.5026720000000  0.5092440000000  0.4289110000000 1.0
C      1  0.4522540000000  0.5345440000000  0.4093390000000 1.0
C      1  0.5174990000000  0.4126040000000  0.4590440000000 1.0
C      1  0.4939740000000  0.5353710000000  0.4490500000000 1.0
C      1  0.5530960000000  0.5602060000000  0.5509410000000 1.0
C      1  0.3918580000000  0.5127000000000  0.5019360000000 1.0
C      1  0.4794210000000  0.4299400000000  0.4317140000000 1.0
C      1  0.5812220000000  0.5605860000000  0.5116940000000 1.0
C      1  0.4749440000000  0.4854040000000  0.3888170000000 1.0
C      1  0.4477430000000  0.5160920000000  0.5939560000000 1.0
C      1  0.5536970000000  0.4293870000000  0.4599800000000 1.0
C      1  0.4673860000000  0.5417670000000  0.5829450000000 1.0
C      1  0.5963830000000  0.4806960000000  0.5031240000000 1.0
C      1  0.5107530000000  0.4985060000000  0.4698790000000 1.0
C      1  0.4624850000000  0.4130500000000  0.4741920000000 1.0
C      1  0.4732920000000  0.4368800000000  0.5140290000000 1.0
C      1  0.4858840000000  0.4932390000000  0.5239920000000 1.0
C      1  0.4273190000000  0.4677270000000  0.5358560000000 1.0
C      1  0.5783690000000  0.4517990000000  0.4969220000000 1.0
C      1  0.4627150000000  0.5100310000000  0.3994900000000 1.0
C      1  0.5302140000000  0.5831660000000  0.4490480000000 1.0
C      1  0.5046830000000  0.4800580000000  0.4462720000000 1.0
C      1  0.4440470000000  0.5091640000000  0.4391000000000 1.0
C      1  0.4797590000000  0.5871940000000  0.4899070000000 1.0
C      1  0.4878230000000  0.5511440000000  0.5602390000000 1.0
C      1  0.5710210000000  0.4888000000000  0.5786740000000 1.0
C      1  0.4052420000000  0.5202170000000  0.5255320000000 1.0
C      1  0.4292620000000  0.5345540000000  0.4314970000000 1.0
C      1  0.4632420000000  0.4119520000000  0.4460590000000 1.0
C      1  0.4530630000000  0.4979910000000  0.5314340000000 1.0
C      1  0.5283310000000  0.4607700000000  0.5029700000000 1.0
C      1  0.4786360000000  0.4664600000000  0.4633930000000 1.0
C      1  0.5065710000000  0.4279190000000  0.4355360000000 1.0
C      1  0.5849560000000  0.5359960000000  0.4685990000000 1.0
C      1  0.5093530000000  0.5383210000000  0.4125650000000 1.0
C      1  0.5601260000000  0.5353950000000  0.5204770000000 1.0
C      1  0.5052500000000  0.4196310000000  0.5630390000000 1.0
C      1  0.4999030000000  0.4861730000000  0.5995230000000 1.0
C      1  0.4709840000000  0.4613880000000  0.4306300000000 1.0
C      1  0.5005950000000  0.5049440000000  0.5484640000000 1.0
C      1  0.4985090000000  0.4539430000000  0.4881180000000 1.0
C      1  0.4884040000000  0.4214790000000  0.4877500000000 1.0
C      1  0.5177960000000  0.4552000000000  0.4303200000000 1.0
C      1  0.5291210000000  0.5853270000000  0.4799810000000 1.0
C      1  0.4654900000000  0.4932340000000  0.4778420000000 1.0
C      1  0.5683850000000  0.5092860000000  0.4616360000000 1.0
C      1  0.5351330000000  0.5076860000000  0.4378900000000 1.0
C      1  0.4306890000000  0.4374930000000  0.5167460000000 1.0
C      1  0.5461690000000  0.5354890000000  0.5679170000000 1.0
C      1  0.5190250000000  0.5324600000000  0.4889500000000 1.0
C      1  0.5771460000000  0.4611540000000  0.4545710000000 1.0
C      1  0.4025510000000  0.4638070000000  0.4817030000000 1.0
C      1  0.4710280000000  0.4675730000000  0.5790630000000 1.0
C      1  0.5738620000000  0.5390550000000  0.4361660000000 1.0
C      1  0.4392720000000  0.5369720000000  0.5686290000000 1.0
C      1  0.5458200000000  0.4819140000000  0.4203590000000 1.0
C      1  0.5238520000000  0.4436280000000  0.4679150000000 1.0
C      1  0.5457140000000  0.5520170000000  0.4945120000000 1.0
C      1  0.5297370000000  0.5467050000000  0.5307930000000 1.0
C      1  0.5002810000000  0.5912320000000  0.5167660000000 1.0
C      1  0.5606210000000  0.5543200000000  0.4704180000000 1.0
C      1  0.5191270000000  0.5393940000000  0.5821220000000 1.0
C      1  0.4943030000000  0.5538960000000  0.5995150000000 1.0
C      1  0.5635260000000  0.4285040000000  0.4911300000000 1.0
C      1  0.4332510000000  0.4582880000000  0.4317990000000 1.0
C      1  0.4444980000000  0.4857700000000  0.5035350000000 1.0
C      1  0.4563610000000  0.4702480000000  0.5514100000000 1.0
C      1  0.4578730000000  0.4587990000000  0.4965920000000 1.0
C      1  0.4516610000000  0.5662110000000  0.4515570000000 1.0
C      1  0.4885610000000  0.5800100000000  0.5780450000000 1.0
C      1  0.5405580000000  0.5010000000000  0.4769520000000 1.0
C      1  0.4939080000000  0.5226000000000  0.5108830000000 1.0
C      1  0.5196220000000  0.4115260000000  0.4912620000000 1.0
C      1  0.4536970000000  0.4381240000000  0.5404740000000 1.0
C      1  0.5349750000000  0.4586110000000  0.5473420000000 1.0
C      1  0.4178920000000  0.4648830000000  0.5052520000000 1.0
C      1  0.4227320000000  0.5092110000000  0.5718700000000 1.0
C      1  0.5157030000000  0.4638730000000  0.5833570000000 1.0
C      1  0.5471110000000  0.4729100000000  0.5836990000000 1.0
C      1  0.5845700000000  0.5172360000000  0.5369450000000 1.0
C      1  0.5066770000000  0.5638140000000  0.4353810000000 1.0
C      1  0.4329860000000  0.5540220000000  0.5457210000000 1.0
C      1  0.4716910000000  0.4961180000000  0.4271160000000 1.0
C      1  0.5891510000000  0.4936630000000  0.5545510000000 1.0
C      1  0.4559830000000  0.5633750000000  0.4849870000000 1.0
C      1  0.4828810000000  0.5046320000000  0.5726970000000 1.0
C      1  0.5612060000000  0.4065510000000  0.4456760000000 1.0
C      1  0.4389160000000  0.4251640000000  0.4883880000000 1.0
C      1  0.4490960000000  0.4501120000000  0.4676050000000 1.0
C      1  0.5101940000000  0.5334980000000  0.5506570000000 1.0
C      1  0.4298610000000  0.5429120000000  0.4630670000000 1.0
C      1  0.5265970000000  0.4894830000000  0.5536610000000 1.0
C      1  0.5177380000000  0.4177220000000  0.5371460000000 1.0
C      1  0.5957860000000  0.5371440000000  0.4962100000000 1.0
C      1  0.5451120000000  0.5558750000000  0.4430310000000 1.0
C      1  0.4610280000000  0.5282190000000  0.5180410000000 1.0
C      1  0.4928620000000  0.4636930000000  0.5203710000000 1.0
C      1  0.5966610000000  0.5131690000000  0.5104380000000 1.0
C      1  0.4853590000000  0.5793940000000  0.5440030000000 1.0
C      1  0.4211520000000  0.5004080000000  0.5429220000000 1.0
C      1  0.5331550000000  0.5882720000000  0.5084840000000 1.0
C      1  0.5502580000000  0.4565020000000  0.4396760000000 1.0
C      1  0.4774950000000  0.4388780000000  0.5640130000000 1.0
C      1  0.4673050000000  0.5463810000000  0.4326100000000 1.0
C      1  0.4159740000000  0.5462600000000  0.5248600000000 1.0
C      1  0.5802290000000  0.4834820000000  0.4733130000000 1.0
C      1  0.4832610000000  0.5181030000000  0.4731690000000 1.0
C      1  0.4270730000000  0.5533880000000  0.4982000000000 1.0
C      1  0.5271120000000  0.5320310000000  0.4559100000000 1.0
C      1  0.4662340000000  0.4915130000000  0.5992870000000 1.0
C      1  0.5260320000000  0.4874490000000  0.5209680000000 1.0
C      1  0.5551950000000  0.5768570000000  0.5242790000000 1.0
C      1  0.5024280000000  0.4579110000000  0.5525820000000 1.0
C      1  0.4229260000000  0.4692930000000  0.4592180000000 1.0
C      1  0.5850160000000  0.4679120000000  0.5327370000000 1.0
C      1  0.5581460000000  0.4471330000000  0.5345190000000 1.0
C      1  0.5275290000000  0.4763990000000  0.3983030000000 1.0
C      1  0.5584640000000  0.4880490000000  0.5301860000000 1.0
C      1  0.4974460000000  0.5200480000000  0.5978930000000 1.0
C      1  0.5378220000000  0.4304790000000  0.5129220000000 1.0
C      1  0.5516530000000  0.5061570000000  0.5598450000000 1.0
C      1  0.4834000000000  0.5740860000000  0.4581880000000 1.0
C      1  0.4029170000000  0.5114690000000  0.4768050000000 1.0
C      1  0.4958010000000  0.4699990000000  0.4089590000000 1.0
C      1  0.4604200000000  0.5884970000000  0.5152000000000 1.0
C      1  0.5390060000000  0.5127750000000  0.5063950000000 1.0
C      1  0.4337960000000  0.5003380000000  0.4679340000000 1.0
C      1  0.4823040000000  0.5473070000000  0.4905900000000 1.0
C      1  0.4432980000000  0.5253590000000  0.4889380000000 1.0
C      1  0.5141410000000  0.4387690000000  0.5976830000000 1.0
C      1  0.5570470000000  0.4782770000000  0.4976450000000 1.0
C      1  0.5666650000000  0.5075650000000  0.4285130000000 1.0
C      1  0.4921990000000  0.4113550000000  0.5261580000000 1.0
C      1  0.5088940000000  0.5618760000000  0.4752030000000 1.0
END
