TITL C-2847957-7266-659 -0.00200267330348181 125000 -226.706006978478 0 0 41 (C1) n - 1
REM
REM in /home/bkarasulu/work/CARBON/AIRSS/Generating-Clusters/AIREBO/with-SteepDescent/Only-C1/SD-CG-opt/Try1-1.4A-POS3A/HFTN-CG
REM
REM
REM
REM
REM
REM ./C.cell (11c1c37f851c82e70ff6c80c92926a4b)
REM
REM compiler GCC version 9.2.1 20190827 (Red Hat 9.2.1-1)
REM options -cpp -mtune=generic -march=x86-64 -g -O0 -fpre-include=/usr/include/finclude/math-vector-fortran.h
REM seed -1956093777 -150149527 -1865000342 1512967346 2041131687 -863679449 1995443079 -1959924816 -1517648815 -1469326937 -1196084232 -420569483 1995272244 2080165018 523588361 1164970051 -692863185 -234201023 -1797906312 470320933 -1362633287 975710704 -153896277 693766807 -1541903902 1499657786 1627078064 1472718137 -640314588 233001455 1201597482 -1896523358 536553366
REM
CELL 1.54180   50.00000   50.00000   50.00000   90.00000   90.00000   90.00000
LATT -1
SFAC C  
C      1  0.5079850000000  0.5553110000000  0.5420130000000 1.0
C      1  0.4718770000000  0.5484960000000  0.4805490000000 1.0
C      1  0.5026780000000  0.5367750000000  0.5171030000000 1.0
C      1  0.5317190000000  0.4885870000000  0.5673950000000 1.0
C      1  0.5201490000000  0.5403300000000  0.5629730000000 1.0
C      1  0.4551940000000  0.5155190000000  0.5163680000000 1.0
C      1  0.5511180000000  0.4627430000000  0.4965000000000 1.0
C      1  0.5564040000000  0.4675910000000  0.5639870000000 1.0
C      1  0.4389460000000  0.4753180000000  0.4979870000000 1.0
C      1  0.5206800000000  0.5457970000000  0.4919770000000 1.0
C      1  0.4506340000000  0.4847120000000  0.5204640000000 1.0
C      1  0.5371470000000  0.4451870000000  0.5139440000000 1.0
C      1  0.4747460000000  0.5370280000000  0.5056940000000 1.0
C      1  0.4967020000000  0.4741670000000  0.4732370000000 1.0
C      1  0.5290080000000  0.5293370000000  0.4634050000000 1.0
C      1  0.4603360000000  0.5110530000000  0.4542870000000 1.0
C      1  0.5001760000000  0.4468410000000  0.4810230000000 1.0
C      1  0.4953590000000  0.4808420000000  0.4456180000000 1.0
C      1  0.5507430000000  0.5396400000000  0.4994390000000 1.0
C      1  0.4859800000000  0.5080190000000  0.4428370000000 1.0
C      1  0.5087260000000  0.4476980000000  0.5084060000000 1.0
C      1  0.5187710000000  0.4655480000000  0.5519230000000 1.0
C      1  0.5037660000000  0.5305330000000  0.4462440000000 1.0
C      1  0.4698180000000  0.4722360000000  0.5344910000000 1.0
C      1  0.4720730000000  0.5003300000000  0.4909040000000 1.0
C      1  0.4973250000000  0.5523510000000  0.4686560000000 1.0
C      1  0.5567220000000  0.5154970000000  0.5039320000000 1.0
C      1  0.5073840000000  0.5080960000000  0.5329620000000 1.0
C      1  0.5209040000000  0.5125750000000  0.5576530000000 1.0
C      1  0.5045260000000  0.4918020000000  0.4966340000000 1.0
C      1  0.4350410000000  0.5296470000000  0.5300810000000 1.0
C      1  0.4505580000000  0.4851120000000  0.4693650000000 1.0
C      1  0.4407430000000  0.4666160000000  0.4503480000000 1.0
C      1  0.5020140000000  0.5819210000000  0.5417360000000 1.0
C      1  0.5422310000000  0.4481060000000  0.5421060000000 1.0
C      1  0.4985300000000  0.4340380000000  0.4547060000000 1.0
C      1  0.4967750000000  0.4538940000000  0.4339890000000 1.0
C      1  0.5004200000000  0.4754960000000  0.5261920000000 1.0
C      1  0.4529550000000  0.5365470000000  0.4632770000000 1.0
C      1  0.5448050000000  0.5077780000000  0.4665830000000 1.0
C      1  0.5383320000000  0.4908830000000  0.4930110000000 1.0
END
