TITL C-2847954-6904-46 0.000980276023243883 125000 -1041.85824552031 0 0 191 (C1) n - 1
REM
REM in /home/bkarasulu/work/CARBON/AIRSS/Generating-Clusters/AIREBO/with-SteepDescent/Only-C1/SD-CG-opt/Try1-1.4A-POS3A/HFTN-CG
REM
REM
REM
REM
REM
REM ./C.cell (11c1c37f851c82e70ff6c80c92926a4b)
REM
REM compiler GCC version 9.2.1 20190827 (Red Hat 9.2.1-1)
REM options -cpp -mtune=generic -march=x86-64 -g -O0 -fpre-include=/usr/include/finclude/math-vector-fortran.h
REM seed -94555416 -1376304393 -1960201772 1772377063 -1513033524 1107684419 -391692025 2084982175 -1866586670 1383662389 -1754251292 -1637121875 1468527919 -741481803 58691653 1832056436 -1529655965 -450096884 -596194421 2058920622 -1881464443 -135194977 -844756151 -1194749359 -386487136 -1663562578 -829628688 -556752980 379722504 927301990 122271411 -1843767191 661828409
REM
CELL 1.54180   50.00000   50.00000   50.00000   90.00000   90.00000   90.00000
LATT -1
SFAC C  
C      1  0.4998650000000  0.5632280000000  0.4201320000000 1.0
C      1  0.5702990000000  0.4665760000000  0.4335930000000 1.0
C      1  0.4771430000000  0.4950480000000  0.4445230000000 1.0
C      1  0.4538670000000  0.4354530000000  0.5853680000000 1.0
C      1  0.4887080000000  0.4547460000000  0.4824970000000 1.0
C      1  0.5163210000000  0.5577820000000  0.5401900000000 1.0
C      1  0.5700310000000  0.5957350000000  0.4786590000000 1.0
C      1  0.3934830000000  0.5104660000000  0.4667240000000 1.0
C      1  0.4421710000000  0.4223540000000  0.4605460000000 1.0
C      1  0.3967910000000  0.5182590000000  0.4400720000000 1.0
C      1  0.5291030000000  0.6176820000000  0.4675530000000 1.0
C      1  0.5583500000000  0.4437770000000  0.4547440000000 1.0
C      1  0.5828750000000  0.5303490000000  0.4433720000000 1.0
C      1  0.4696790000000  0.5238950000000  0.4608750000000 1.0
C      1  0.5688650000000  0.4407750000000  0.4829220000000 1.0
C      1  0.5254790000000  0.4342720000000  0.5322290000000 1.0
C      1  0.5075700000000  0.5786600000000  0.5148170000000 1.0
C      1  0.5552240000000  0.5002690000000  0.4037350000000 1.0
C      1  0.5920050000000  0.5018500000000  0.5062610000000 1.0
C      1  0.5266390000000  0.4477260000000  0.4430900000000 1.0
C      1  0.5059610000000  0.5235090000000  0.5101690000000 1.0
C      1  0.4828920000000  0.5685080000000  0.4937460000000 1.0
C      1  0.5601480000000  0.5196190000000  0.6044250000000 1.0
C      1  0.4999370000000  0.4086990000000  0.5570870000000 1.0
C      1  0.4963580000000  0.3846710000000  0.4830240000000 1.0
C      1  0.4340950000000  0.5703970000000  0.5090170000000 1.0
C      1  0.4518700000000  0.4757680000000  0.4391640000000 1.0
C      1  0.5220670000000  0.4782800000000  0.4533980000000 1.0
C      1  0.5473220000000  0.4043240000000  0.4252260000000 1.0
C      1  0.4207930000000  0.5415530000000  0.5588900000000 1.0
C      1  0.5183050000000  0.5114820000000  0.6149890000000 1.0
C      1  0.4725780000000  0.4307750000000  0.4542580000000 1.0
C      1  0.5474880000000  0.5421450000000  0.4295340000000 1.0
C      1  0.3963800000000  0.4908330000000  0.5311930000000 1.0
C      1  0.5304490000000  0.5007180000000  0.4775390000000 1.0
C      1  0.4831870000000  0.5212550000000  0.3986830000000 1.0
C      1  0.5823700000000  0.4768220000000  0.4933970000000 1.0
C      1  0.4056150000000  0.4643580000000  0.5419090000000 1.0
C      1  0.5381560000000  0.4297300000000  0.4166280000000 1.0
C      1  0.4615560000000  0.5863490000000  0.5516750000000 1.0
C      1  0.4325210000000  0.4818540000000  0.5176100000000 1.0
C      1  0.4413810000000  0.5353350000000  0.5853060000000 1.0
C      1  0.5372750000000  0.4977420000000  0.5298290000000 1.0
C      1  0.4192940000000  0.4343180000000  0.4974410000000 1.0
C      1  0.5249920000000  0.5085530000000  0.5717990000000 1.0
C      1  0.5627390000000  0.5468830000000  0.4654220000000 1.0
C      1  0.5263210000000  0.5077410000000  0.4384580000000 1.0
C      1  0.4393750000000  0.5356900000000  0.4708670000000 1.0
C      1  0.4058490000000  0.5465830000000  0.4357710000000 1.0
C      1  0.4739770000000  0.4080140000000  0.5421670000000 1.0
C      1  0.4779690000000  0.5472010000000  0.4076680000000 1.0
C      1  0.5187600000000  0.4690900000000  0.5506020000000 1.0
C      1  0.4459440000000  0.4757310000000  0.5452100000000 1.0
C      1  0.4947990000000  0.4829560000000  0.4690900000000 1.0
C      1  0.6136570000000  0.4947880000000  0.5282660000000 1.0
C      1  0.4768590000000  0.4402930000000  0.5491980000000 1.0
C      1  0.4435220000000  0.5827830000000  0.4613150000000 1.0
C      1  0.5233580000000  0.6084110000000  0.5195060000000 1.0
C      1  0.5993400000000  0.4517320000000  0.4824540000000 1.0
C      1  0.4598450000000  0.5415220000000  0.5329130000000 1.0
C      1  0.5783050000000  0.4967450000000  0.5600320000000 1.0
C      1  0.4380700000000  0.4088350000000  0.4914930000000 1.0
C      1  0.4738320000000  0.4949660000000  0.5422570000000 1.0
C      1  0.4599840000000  0.4491690000000  0.3974910000000 1.0
C      1  0.4481880000000  0.6189950000000  0.5047370000000 1.0
C      1  0.4672080000000  0.4493110000000  0.5082810000000 1.0
C      1  0.4320380000000  0.5066140000000  0.4548370000000 1.0
C      1  0.5626150000000  0.5142210000000  0.5168830000000 1.0
C      1  0.5785250000000  0.5763550000000  0.4630070000000 1.0
C      1  0.4957190000000  0.5460330000000  0.5645910000000 1.0
C      1  0.4940000000000  0.4960370000000  0.4188190000000 1.0
C      1  0.4199940000000  0.5615870000000  0.4603840000000 1.0
C      1  0.4350880000000  0.4539730000000  0.5935800000000 1.0
C      1  0.5428020000000  0.3994900000000  0.4530000000000 1.0
C      1  0.5339780000000  0.5420870000000  0.5154960000000 1.0
C      1  0.5332150000000  0.4567300000000  0.4047240000000 1.0
C      1  0.5283460000000  0.5678290000000  0.5704110000000 1.0
C      1  0.5429920000000  0.4978840000000  0.6086310000000 1.0
C      1  0.4379750000000  0.5634940000000  0.5417320000000 1.0
C      1  0.5218640000000  0.4012890000000  0.5247420000000 1.0
C      1  0.5449960000000  0.6173580000000  0.4948450000000 1.0
C      1  0.4430640000000  0.4235670000000  0.5620450000000 1.0
C      1  0.5477120000000  0.4729640000000  0.5506420000000 1.0
C      1  0.5095900000000  0.5228460000000  0.4617810000000 1.0
C      1  0.4463240000000  0.5021310000000  0.4183530000000 1.0
C      1  0.5491770000000  0.5267060000000  0.4892050000000 1.0
C      1  0.4753240000000  0.5265950000000  0.5533250000000 1.0
C      1  0.5270350000000  0.5955760000000  0.5507790000000 1.0
C      1  0.5241640000000  0.3828320000000  0.4969340000000 1.0
C      1  0.3918040000000  0.4820910000000  0.4721270000000 1.0
C      1  0.5174550000000  0.5903440000000  0.4844380000000 1.0
C      1  0.4959670000000  0.4919180000000  0.6164660000000 1.0
C      1  0.5955420000000  0.4880220000000  0.4573540000000 1.0
C      1  0.5832460000000  0.4357320000000  0.4340520000000 1.0
C      1  0.5391740000000  0.5647870000000  0.4486400000000 1.0
C      1  0.5555490000000  0.5806380000000  0.5448880000000 1.0
C      1  0.5759330000000  0.5180880000000  0.4123600000000 1.0
C      1  0.5834280000000  0.4728320000000  0.5829900000000 1.0
C      1  0.5494330000000  0.5451440000000  0.5846430000000 1.0
C      1  0.4131300000000  0.5758920000000  0.4891350000000 1.0
C      1  0.4791670000000  0.4804720000000  0.5824900000000 1.0
C      1  0.5086180000000  0.5663830000000  0.4631960000000 1.0
C      1  0.4985530000000  0.4125260000000  0.5024000000000 1.0
C      1  0.4577640000000  0.4077090000000  0.5195850000000 1.0
C      1  0.5223430000000  0.5076230000000  0.4052940000000 1.0
C      1  0.5628500000000  0.4854900000000  0.4596800000000 1.0
C      1  0.5139720000000  0.4908660000000  0.5060300000000 1.0
C      1  0.5722300000000  0.4785160000000  0.5319650000000 1.0
C      1  0.4555460000000  0.5552490000000  0.4232910000000 1.0
C      1  0.4789060000000  0.4305920000000  0.4052450000000 1.0
C      1  0.5496630000000  0.5465930000000  0.4027470000000 1.0
C      1  0.5550460000000  0.5131130000000  0.4455840000000 1.0
C      1  0.4594540000000  0.5922940000000  0.4869530000000 1.0
C      1  0.4830940000000  0.4788820000000  0.5137690000000 1.0
C      1  0.5139900000000  0.5509670000000  0.6121260000000 1.0
C      1  0.6026480000000  0.5146900000000  0.4608340000000 1.0
C      1  0.5554970000000  0.4732220000000  0.4090390000000 1.0
C      1  0.3998750000000  0.5211060000000  0.5413360000000 1.0
C      1  0.5567700000000  0.5184510000000  0.5648430000000 1.0
C      1  0.4925300000000  0.4081170000000  0.4631300000000 1.0
C      1  0.4308280000000  0.4873850000000  0.4782900000000 1.0
C      1  0.5580070000000  0.4526750000000  0.5728100000000 1.0
C      1  0.4375310000000  0.5141740000000  0.5522520000000 1.0
C      1  0.5106180000000  0.4471470000000  0.6044260000000 1.0
C      1  0.4249680000000  0.4354000000000  0.4417800000000 1.0
C      1  0.5335770000000  0.5308350000000  0.3870270000000 1.0
C      1  0.5385630000000  0.4655170000000  0.5977640000000 1.0
C      1  0.4740890000000  0.4737620000000  0.3912450000000 1.0
C      1  0.5070640000000  0.4984650000000  0.5458580000000 1.0
C      1  0.5863480000000  0.5536930000000  0.5164520000000 1.0
C      1  0.4351760000000  0.5315310000000  0.4313330000000 1.0
C      1  0.4358650000000  0.5112630000000  0.5229850000000 1.0
C      1  0.4739400000000  0.5667710000000  0.5747490000000 1.0
C      1  0.5760200000000  0.4516410000000  0.5146390000000 1.0
C      1  0.4831260000000  0.5100310000000  0.4888570000000 1.0
C      1  0.5480440000000  0.5850460000000  0.4983030000000 1.0
C      1  0.4947100000000  0.4589870000000  0.5352730000000 1.0
C      1  0.4856520000000  0.4471070000000  0.5813300000000 1.0
C      1  0.4391540000000  0.4535320000000  0.4181870000000 1.0
C      1  0.6064550000000  0.4827030000000  0.5518080000000 1.0
C      1  0.4631150000000  0.4994490000000  0.3939760000000 1.0
C      1  0.4694990000000  0.4213930000000  0.4929930000000 1.0
C      1  0.5472640000000  0.4237670000000  0.4977390000000 1.0
C      1  0.4885450000000  0.5893480000000  0.4481620000000 1.0
C      1  0.4598310000000  0.5079350000000  0.5771580000000 1.0
C      1  0.4208760000000  0.4997720000000  0.5734170000000 1.0
C      1  0.4151570000000  0.4972860000000  0.4268300000000 1.0
C      1  0.4228970000000  0.4690050000000  0.5693790000000 1.0
C      1  0.5242720000000  0.5719990000000  0.6017620000000 1.0
C      1  0.5072870000000  0.5297310000000  0.5889710000000 1.0
C      1  0.5122250000000  0.4832190000000  0.5877780000000 1.0
C      1  0.6052510000000  0.4552240000000  0.5544860000000 1.0
C      1  0.4005860000000  0.4559250000000  0.4537160000000 1.0
C      1  0.4944410000000  0.5895710000000  0.5504800000000 1.0
C      1  0.5445830000000  0.3963700000000  0.4824550000000 1.0
C      1  0.4177700000000  0.4449060000000  0.5239120000000 1.0
C      1  0.5557560000000  0.5660520000000  0.5181890000000 1.0
C      1  0.4548910000000  0.5535570000000  0.4951360000000 1.0
C      1  0.4250640000000  0.4547570000000  0.4765500000000 1.0
C      1  0.5481380000000  0.4201700000000  0.5709900000000 1.0
C      1  0.5005520000000  0.6219440000000  0.5020430000000 1.0
C      1  0.4102370000000  0.4679750000000  0.4252310000000 1.0
C      1  0.5207340000000  0.4203070000000  0.4607830000000 1.0
C      1  0.4563000000000  0.5568430000000  0.5930870000000 1.0
C      1  0.5557450000000  0.4216630000000  0.5303170000000 1.0
C      1  0.4583390000000  0.5244050000000  0.5060700000000 1.0
C      1  0.4101140000000  0.5251600000000  0.4846490000000 1.0
C      1  0.5272950000000  0.4598020000000  0.5097510000000 1.0
C      1  0.4091390000000  0.5231390000000  0.5115440000000 1.0
C      1  0.4613650000000  0.5780220000000  0.4401970000000 1.0
C      1  0.5136940000000  0.4390590000000  0.5638120000000 1.0
C      1  0.5496450000000  0.4752250000000  0.4892840000000 1.0
C      1  0.5771350000000  0.4413460000000  0.5470610000000 1.0
C      1  0.5651820000000  0.5572110000000  0.5597590000000 1.0
C      1  0.4953490000000  0.4413980000000  0.4313520000000 1.0
C      1  0.4057040000000  0.4804950000000  0.5001680000000 1.0
C      1  0.4603720000000  0.4847660000000  0.4892820000000 1.0
C      1  0.6045630000000  0.5221750000000  0.4873020000000 1.0
C      1  0.5167140000000  0.4359690000000  0.4890610000000 1.0
C      1  0.4874750000000  0.6054740000000  0.4791090000000 1.0
C      1  0.5062950000000  0.5446620000000  0.4870210000000 1.0
C      1  0.5312300000000  0.4038630000000  0.5573330000000 1.0
C      1  0.5024410000000  0.4654920000000  0.4080970000000 1.0
C      1  0.4667860000000  0.4928910000000  0.6116230000000 1.0
C      1  0.4479400000000  0.5951750000000  0.5232480000000 1.0
C      1  0.4899370000000  0.5440080000000  0.4456450000000 1.0
C      1  0.6066370000000  0.5466390000000  0.5007840000000 1.0
C      1  0.4582310000000  0.4584700000000  0.4678300000000 1.0
C      1  0.4469570000000  0.4439270000000  0.5350820000000 1.0
C      1  0.5706820000000  0.5352640000000  0.5387680000000 1.0
C      1  0.5189500000000  0.5836440000000  0.4288530000000 1.0
END
