TITL C-2848497-6229-684 0.00125068060498876 125000 -883.511538112316 0 0 164 (C1) n - 1
REM
REM in /home/bkarasulu/work/CARBON/AIRSS/Generating-Clusters/AIREBO/with-SteepDescent/Only-C1/SD-CG-opt/Try1-1.4A-POS3A/HFTN-CG
REM
REM
REM
REM
REM
REM ./C.cell (11c1c37f851c82e70ff6c80c92926a4b)
REM
REM compiler GCC version 9.2.1 20190827 (Red Hat 9.2.1-1)
REM options -cpp -mtune=generic -march=x86-64 -g -O0 -fpre-include=/usr/include/finclude/math-vector-fortran.h
REM seed 769254331 -1395313914 -1201486542 885606107 -1341191977 1436991183 -184818850 -1720400447 2019666775 -759971412 -2005754525 525256650 -1412320597 1830415850 -757029601 1514754656 1153288791 126502287 -1298060575 643032659 -641206707 1296229333 1756457935 2134370871 -2064229262 -1759568839 -783518859 -1889157551 728811704 -484453716 -1229851166 1556428703 -1348840465
REM
CELL 1.54180   50.00000   50.00000   50.00000   90.00000   90.00000   90.00000
LATT -1
SFAC C  
C      1  0.5276010000000  0.4782630000000  0.3971900000000 1.0
C      1  0.5276010000000  0.5472720000000  0.5016380000000 1.0
C      1  0.4892820000000  0.4640200000000  0.5048490000000 1.0
C      1  0.5380410000000  0.4007410000000  0.5497890000000 1.0
C      1  0.5819380000000  0.5630060000000  0.4489730000000 1.0
C      1  0.4383900000000  0.5138710000000  0.6004170000000 1.0
C      1  0.5359920000000  0.5109910000000  0.5161240000000 1.0
C      1  0.5184450000000  0.5224210000000  0.5557400000000 1.0
C      1  0.4177970000000  0.5108030000000  0.4604660000000 1.0
C      1  0.5146770000000  0.5305320000000  0.4000460000000 1.0
C      1  0.5737640000000  0.5737910000000  0.5015520000000 1.0
C      1  0.4804760000000  0.3916300000000  0.4692010000000 1.0
C      1  0.4284400000000  0.4946150000000  0.5776360000000 1.0
C      1  0.3872500000000  0.5164680000000  0.4972220000000 1.0
C      1  0.5203530000000  0.4789670000000  0.4362850000000 1.0
C      1  0.5485090000000  0.4894290000000  0.4203440000000 1.0
C      1  0.5286320000000  0.4463510000000  0.5644700000000 1.0
C      1  0.4136210000000  0.5300910000000  0.5375830000000 1.0
C      1  0.4931150000000  0.5883080000000  0.4586510000000 1.0
C      1  0.4776810000000  0.5052590000000  0.5374900000000 1.0
C      1  0.4439040000000  0.4165170000000  0.5674290000000 1.0
C      1  0.5083020000000  0.4919680000000  0.5444530000000 1.0
C      1  0.4974000000000  0.5375430000000  0.5765400000000 1.0
C      1  0.4715060000000  0.5818950000000  0.5007390000000 1.0
C      1  0.5259020000000  0.4050540000000  0.4288130000000 1.0
C      1  0.5437210000000  0.4189120000000  0.4737770000000 1.0
C      1  0.5013070000000  0.5560430000000  0.4091270000000 1.0
C      1  0.4757540000000  0.5396470000000  0.4011500000000 1.0
C      1  0.4253330000000  0.4785400000000  0.5109720000000 1.0
C      1  0.4304280000000  0.5596260000000  0.5361490000000 1.0
C      1  0.5042100000000  0.5786570000000  0.5095330000000 1.0
C      1  0.4706270000000  0.4004300000000  0.5282780000000 1.0
C      1  0.4806660000000  0.5613190000000  0.4752550000000 1.0
C      1  0.5835440000000  0.4615050000000  0.4713120000000 1.0
C      1  0.5119260000000  0.5040890000000  0.4059520000000 1.0
C      1  0.5239760000000  0.5076890000000  0.4517060000000 1.0
C      1  0.5643110000000  0.5115950000000  0.5201100000000 1.0
C      1  0.4964210000000  0.5939370000000  0.5502390000000 1.0
C      1  0.5088980000000  0.4270530000000  0.4147890000000 1.0
C      1  0.4963590000000  0.3843490000000  0.5134310000000 1.0
C      1  0.5712620000000  0.4694640000000  0.4225730000000 1.0
C      1  0.4158500000000  0.5320950000000  0.4364890000000 1.0
C      1  0.4861050000000  0.4957970000000  0.4247410000000 1.0
C      1  0.5587240000000  0.5147840000000  0.4336720000000 1.0
C      1  0.4246320000000  0.5295610000000  0.5104440000000 1.0
C      1  0.4415880000000  0.4433840000000  0.5196890000000 1.0
C      1  0.5069570000000  0.6091290000000  0.4782440000000 1.0
C      1  0.4971450000000  0.5774610000000  0.5743690000000 1.0
C      1  0.4671120000000  0.4178460000000  0.4843070000000 1.0
C      1  0.5223110000000  0.4152230000000  0.5682290000000 1.0
C      1  0.4869970000000  0.5605180000000  0.5307150000000 1.0
C      1  0.4399580000000  0.4331310000000  0.4360760000000 1.0
C      1  0.5173410000000  0.4796770000000  0.5834440000000 1.0
C      1  0.4996690000000  0.5369040000000  0.4852520000000 1.0
C      1  0.5273420000000  0.5367170000000  0.5918870000000 1.0
C      1  0.4959950000000  0.5771540000000  0.4263840000000 1.0
C      1  0.5132730000000  0.4872810000000  0.5111290000000 1.0
C      1  0.5599790000000  0.5777060000000  0.4329710000000 1.0
C      1  0.5666640000000  0.4556050000000  0.5674600000000 1.0
C      1  0.6044700000000  0.5401540000000  0.4811660000000 1.0
C      1  0.5072670000000  0.4520830000000  0.3918350000000 1.0
C      1  0.5247030000000  0.3946280000000  0.5230390000000 1.0
C      1  0.4563780000000  0.4678890000000  0.4682370000000 1.0
C      1  0.4613030000000  0.5985590000000  0.4556900000000 1.0
C      1  0.4627660000000  0.5359690000000  0.5004620000000 1.0
C      1  0.4659850000000  0.4680630000000  0.5837400000000 1.0
C      1  0.5148760000000  0.5320700000000  0.5270520000000 1.0
C      1  0.5300330000000  0.4403380000000  0.4942600000000 1.0
C      1  0.5218440000000  0.5726440000000  0.4816670000000 1.0
C      1  0.5500950000000  0.5328610000000  0.4859180000000 1.0
C      1  0.4496670000000  0.5509600000000  0.4658640000000 1.0
C      1  0.5033290000000  0.4588670000000  0.5504530000000 1.0
C      1  0.4236040000000  0.5881530000000  0.4833640000000 1.0
C      1  0.5645520000000  0.4212450000000  0.5006640000000 1.0
C      1  0.4922470000000  0.4571750000000  0.5880960000000 1.0
C      1  0.4694830000000  0.4117300000000  0.5574770000000 1.0
C      1  0.5389980000000  0.4651180000000  0.5135230000000 1.0
C      1  0.5345660000000  0.4493310000000  0.4138440000000 1.0
C      1  0.5398380000000  0.5824940000000  0.5628640000000 1.0
C      1  0.5649430000000  0.4486720000000  0.4470970000000 1.0
C      1  0.5237740000000  0.4673510000000  0.4768520000000 1.0
C      1  0.4929440000000  0.4984050000000  0.4579590000000 1.0
C      1  0.4276550000000  0.4850760000000  0.4256050000000 1.0
C      1  0.5127330000000  0.4208900000000  0.5095030000000 1.0
C      1  0.4759230000000  0.6024320000000  0.5274850000000 1.0
C      1  0.5711530000000  0.4794180000000  0.5473460000000 1.0
C      1  0.5885530000000  0.4719100000000  0.5239580000000 1.0
C      1  0.4929380000000  0.5059750000000  0.4911180000000 1.0
C      1  0.5823290000000  0.5092930000000  0.4930940000000 1.0
C      1  0.4276680000000  0.4198050000000  0.4573150000000 1.0
C      1  0.4902930000000  0.4670740000000  0.4709890000000 1.0
C      1  0.4316450000000  0.5053920000000  0.4910900000000 1.0
C      1  0.4923320000000  0.4308800000000  0.5665250000000 1.0
C      1  0.6009410000000  0.4956410000000  0.5138980000000 1.0
C      1  0.4686630000000  0.4504500000000  0.4417580000000 1.0
C      1  0.4459070000000  0.5901160000000  0.5376920000000 1.0
C      1  0.6070000000000  0.5148170000000  0.5332590000000 1.0
C      1  0.5249760000000  0.5902910000000  0.5338170000000 1.0
C      1  0.5619320000000  0.5076120000000  0.5598220000000 1.0
C      1  0.5489960000000  0.4475000000000  0.5395020000000 1.0
C      1  0.4107660000000  0.4988800000000  0.5421810000000 1.0
C      1  0.5622620000000  0.4748710000000  0.4942130000000 1.0
C      1  0.4545560000000  0.5097470000000  0.5619350000000 1.0
C      1  0.5914410000000  0.4784270000000  0.4446860000000 1.0
C      1  0.4237540000000  0.5547060000000  0.4875650000000 1.0
C      1  0.4553060000000  0.4629380000000  0.5540320000000 1.0
C      1  0.5378610000000  0.6008480000000  0.4731330000000 1.0
C      1  0.5965660000000  0.5400700000000  0.4546510000000 1.0
C      1  0.5652640000000  0.5569210000000  0.5462320000000 1.0
C      1  0.5466220000000  0.4747720000000  0.4574660000000 1.0
C      1  0.5798540000000  0.5290780000000  0.5425130000000 1.0
C      1  0.5284000000000  0.3888700000000  0.4777460000000 1.0
C      1  0.4755080000000  0.5065510000000  0.5877470000000 1.0
C      1  0.4298620000000  0.4578780000000  0.4843260000000 1.0
C      1  0.5387950000000  0.4842820000000  0.5574190000000 1.0
C      1  0.4413810000000  0.4876670000000  0.5396810000000 1.0
C      1  0.4679510000000  0.5489060000000  0.4299250000000 1.0
C      1  0.5767490000000  0.5424410000000  0.4982360000000 1.0
C      1  0.4459140000000  0.4138100000000  0.5088560000000 1.0
C      1  0.5447630000000  0.4614730000000  0.5896670000000 1.0
C      1  0.5344100000000  0.4338950000000  0.4447030000000 1.0
C      1  0.4012610000000  0.5309300000000  0.4783040000000 1.0
C      1  0.5549260000000  0.4191960000000  0.5312010000000 1.0
C      1  0.4838110000000  0.4253530000000  0.5123970000000 1.0
C      1  0.5035220000000  0.4384110000000  0.4583480000000 1.0
C      1  0.4132380000000  0.4542680000000  0.5327960000000 1.0
C      1  0.5820130000000  0.4476270000000  0.5010440000000 1.0
C      1  0.4567210000000  0.4875970000000  0.6048250000000 1.0
C      1  0.5661020000000  0.5818380000000  0.4729300000000 1.0
C      1  0.4664160000000  0.5674340000000  0.5509830000000 1.0
C      1  0.4288950000000  0.4295180000000  0.4839570000000 1.0
C      1  0.5483010000000  0.3913720000000  0.5018250000000 1.0
C      1  0.4619520000000  0.5202270000000  0.4703330000000 1.0
C      1  0.4789150000000  0.4493590000000  0.5337520000000 1.0
C      1  0.5429800000000  0.5619750000000  0.4578620000000 1.0
C      1  0.4649800000000  0.5820340000000  0.4314450000000 1.0
C      1  0.4923920000000  0.6158740000000  0.5009090000000 1.0
C      1  0.5874470000000  0.5119600000000  0.4470170000000 1.0
C      1  0.4309530000000  0.4426720000000  0.5591680000000 1.0
C      1  0.4478760000000  0.5382600000000  0.5913740000000 1.0
C      1  0.4791740000000  0.4204660000000  0.4538720000000 1.0
C      1  0.5658830000000  0.4971680000000  0.4687680000000 1.0
C      1  0.4455050000000  0.5416940000000  0.5586370000000 1.0
C      1  0.5456250000000  0.5685940000000  0.5210480000000 1.0
C      1  0.4127410000000  0.4714280000000  0.5621490000000 1.0
C      1  0.4494800000000  0.5979590000000  0.4807670000000 1.0
C      1  0.5074000000000  0.5086330000000  0.5914020000000 1.0
C      1  0.5480220000000  0.5360640000000  0.5652670000000 1.0
C      1  0.3968330000000  0.4969560000000  0.5132930000000 1.0
C      1  0.5427690000000  0.5308660000000  0.4559180000000 1.0
C      1  0.5231090000000  0.5680400000000  0.5792710000000 1.0
C      1  0.4582640000000  0.4705950000000  0.5079590000000 1.0
C      1  0.4970410000000  0.4574580000000  0.4243430000000 1.0
C      1  0.4737980000000  0.5128500000000  0.3984710000000 1.0
C      1  0.4828480000000  0.5296550000000  0.4490660000000 1.0
C      1  0.5014730000000  0.3821950000000  0.4848460000000 1.0
C      1  0.4366080000000  0.5501110000000  0.4369830000000 1.0
C      1  0.4626170000000  0.5024420000000  0.5061210000000 1.0
C      1  0.4483180000000  0.5614960000000  0.5100800000000 1.0
C      1  0.4461470000000  0.4954020000000  0.4540200000000 1.0
C      1  0.4595900000000  0.4796890000000  0.4269630000000 1.0
C      1  0.4737480000000  0.5566160000000  0.5820960000000 1.0
C      1  0.4849380000000  0.5313410000000  0.5220130000000 1.0
C      1  0.5830730000000  0.5773800000000  0.5308660000000 1.0
END
