TITL C-2848508-1660-191 0.00169008305181242 125000 -1029.65751298114 0 0 195 (C1) n - 1
REM
REM in /home/bkarasulu/work/CARBON/AIRSS/Generating-Clusters/AIREBO/with-SteepDescent/Only-C1/SD-CG-opt/Try1-1.4A-POS3A/HFTN-CG
REM
REM
REM
REM
REM
REM ./C.cell (11c1c37f851c82e70ff6c80c92926a4b)
REM
REM compiler GCC version 9.2.1 20190827 (Red Hat 9.2.1-1)
REM options -cpp -mtune=generic -march=x86-64 -g -O0 -fpre-include=/usr/include/finclude/math-vector-fortran.h
REM seed -1679951325 2077966933 -1541380687 972585838 -1867988425 895202924 101883292 -1216432448 -870102599 -184511121 246210 1502657208 -139666870 1199593697 -492615067 1115761383 1306024731 -1980558467 1503359444 -384365842 470086692 -2144306202 616448862 371447120 -498377497 -2009336473 1350929018 1916346771 -940216628 726194691 -400440625 979757359 -1121864988
REM
CELL 1.54180   50.00000   50.00000   50.00000   90.00000   90.00000   90.00000
LATT -1
SFAC C  
C      1  0.5571090000000  0.4575060000000  0.5901830000000 1.0
C      1  0.4706310000000  0.5561640000000  0.4122230000000 1.0
C      1  0.4883160000000  0.5552980000000  0.5116890000000 1.0
C      1  0.4606240000000  0.5389360000000  0.5227650000000 1.0
C      1  0.5530950000000  0.4150170000000  0.4136050000000 1.0
C      1  0.5628910000000  0.4985280000000  0.4133190000000 1.0
C      1  0.5170040000000  0.4317440000000  0.4147350000000 1.0
C      1  0.4544200000000  0.5903600000000  0.5001700000000 1.0
C      1  0.5623740000000  0.5666960000000  0.4841910000000 1.0
C      1  0.4761340000000  0.4902920000000  0.5660850000000 1.0
C      1  0.4071620000000  0.5097860000000  0.5481380000000 1.0
C      1  0.3793780000000  0.4737410000000  0.5173450000000 1.0
C      1  0.4723890000000  0.5223600000000  0.4955050000000 1.0
C      1  0.4099710000000  0.5339220000000  0.4598750000000 1.0
C      1  0.5446020000000  0.4387640000000  0.4931300000000 1.0
C      1  0.4410990000000  0.5673390000000  0.4614540000000 1.0
C      1  0.4660510000000  0.5095940000000  0.5399580000000 1.0
C      1  0.4982930000000  0.4485580000000  0.6092440000000 1.0
C      1  0.4807000000000  0.4957180000000  0.5983400000000 1.0
C      1  0.5581680000000  0.4687480000000  0.4220360000000 1.0
C      1  0.4626650000000  0.4368600000000  0.4641740000000 1.0
C      1  0.4541990000000  0.5283290000000  0.4349240000000 1.0
C      1  0.4689610000000  0.4140840000000  0.5516230000000 1.0
C      1  0.4872510000000  0.4574540000000  0.4202130000000 1.0
C      1  0.5040280000000  0.5454600000000  0.4609160000000 1.0
C      1  0.5512350000000  0.5689780000000  0.4286490000000 1.0
C      1  0.4727960000000  0.4928940000000  0.5125120000000 1.0
C      1  0.5375780000000  0.5501810000000  0.5826320000000 1.0
C      1  0.5100500000000  0.4337150000000  0.4613140000000 1.0
C      1  0.4242610000000  0.5527080000000  0.4445890000000 1.0
C      1  0.5043060000000  0.5149010000000  0.5031490000000 1.0
C      1  0.4837310000000  0.5351710000000  0.6030000000000 1.0
C      1  0.5153920000000  0.4922150000000  0.4115060000000 1.0
C      1  0.5307910000000  0.5335570000000  0.5448110000000 1.0
C      1  0.4981770000000  0.4032710000000  0.4519010000000 1.0
C      1  0.4803360000000  0.5242520000000  0.4053670000000 1.0
C      1  0.4355660000000  0.4014310000000  0.5089600000000 1.0
C      1  0.6045410000000  0.4957760000000  0.5130860000000 1.0
C      1  0.4299720000000  0.5152090000000  0.4743860000000 1.0
C      1  0.5340120000000  0.5394010000000  0.5058290000000 1.0
C      1  0.3809800000000  0.5032940000000  0.5051550000000 1.0
C      1  0.5743830000000  0.5152820000000  0.4321260000000 1.0
C      1  0.5970530000000  0.4131320000000  0.4796090000000 1.0
C      1  0.4402870000000  0.4697660000000  0.4632810000000 1.0
C      1  0.4101160000000  0.5064790000000  0.5188670000000 1.0
C      1  0.5260550000000  0.5067490000000  0.4799960000000 1.0
C      1  0.5428120000000  0.5037390000000  0.4537020000000 1.0
C      1  0.5505130000000  0.5098400000000  0.5023630000000 1.0
C      1  0.4379710000000  0.4185730000000  0.5382980000000 1.0
C      1  0.6072270000000  0.4936830000000  0.4628240000000 1.0
C      1  0.5509030000000  0.5963180000000  0.4948890000000 1.0
C      1  0.4846850000000  0.3840010000000  0.4748320000000 1.0
C      1  0.4539960000000  0.4453080000000  0.5271700000000 1.0
C      1  0.6104830000000  0.5109840000000  0.5587490000000 1.0
C      1  0.5249030000000  0.4278830000000  0.5693990000000 1.0
C      1  0.4986700000000  0.4664890000000  0.5590490000000 1.0
C      1  0.4776580000000  0.4710210000000  0.6200190000000 1.0
C      1  0.5433430000000  0.4205920000000  0.5478920000000 1.0
C      1  0.5125160000000  0.5691050000000  0.5813900000000 1.0
C      1  0.5546590000000  0.4799850000000  0.4865810000000 1.0
C      1  0.6212030000000  0.5149530000000  0.4725300000000 1.0
C      1  0.5748910000000  0.5478940000000  0.4378170000000 1.0
C      1  0.5798540000000  0.4757740000000  0.5766230000000 1.0
C      1  0.4419720000000  0.5141200000000  0.4070930000000 1.0
C      1  0.5080300000000  0.5149330000000  0.6047030000000 1.0
C      1  0.6103140000000  0.5272490000000  0.5054340000000 1.0
C      1  0.4403920000000  0.5241840000000  0.5762960000000 1.0
C      1  0.4085460000000  0.4731480000000  0.4750060000000 1.0
C      1  0.5092840000000  0.5811170000000  0.5517510000000 1.0
C      1  0.4740920000000  0.5513100000000  0.4457040000000 1.0
C      1  0.4866700000000  0.6064680000000  0.5532340000000 1.0
C      1  0.5192970000000  0.5229440000000  0.5736390000000 1.0
C      1  0.4134810000000  0.4429890000000  0.4760610000000 1.0
C      1  0.4407860000000  0.4882440000000  0.5478130000000 1.0
C      1  0.4923210000000  0.5266010000000  0.5532610000000 1.0
C      1  0.5542670000000  0.5999410000000  0.5232300000000 1.0
C      1  0.3877910000000  0.4962200000000  0.4748410000000 1.0
C      1  0.5545780000000  0.5506960000000  0.5380940000000 1.0
C      1  0.5080050000000  0.5344640000000  0.4042230000000 1.0
C      1  0.4831340000000  0.4767050000000  0.3907110000000 1.0
C      1  0.4529660000000  0.5073300000000  0.4550530000000 1.0
C      1  0.5272620000000  0.5344560000000  0.3776560000000 1.0
C      1  0.5535590000000  0.4949060000000  0.5689830000000 1.0
C      1  0.5654760000000  0.4656490000000  0.5307510000000 1.0
C      1  0.4516880000000  0.5931440000000  0.4514330000000 1.0
C      1  0.3900570000000  0.5439390000000  0.4777000000000 1.0
C      1  0.4753880000000  0.5834710000000  0.4738170000000 1.0
C      1  0.4663970000000  0.4982340000000  0.3895570000000 1.0
C      1  0.4613780000000  0.5677250000000  0.5731660000000 1.0
C      1  0.4261570000000  0.4402800000000  0.4227300000000 1.0
C      1  0.5275080000000  0.4661900000000  0.4933010000000 1.0
C      1  0.4643260000000  0.6228560000000  0.5018320000000 1.0
C      1  0.4903160000000  0.3748830000000  0.5061490000000 1.0
C      1  0.4436320000000  0.5564750000000  0.5464330000000 1.0
C      1  0.3953520000000  0.4622270000000  0.5582070000000 1.0
C      1  0.5830950000000  0.5273840000000  0.5530320000000 1.0
C      1  0.4557870000000  0.4801260000000  0.4348350000000 1.0
C      1  0.5162550000000  0.5567670000000  0.5290510000000 1.0
C      1  0.4340760000000  0.4694520000000  0.5222190000000 1.0
C      1  0.4688890000000  0.5284050000000  0.5778540000000 1.0
C      1  0.5009540000000  0.4496470000000  0.5026910000000 1.0
C      1  0.5933300000000  0.4412420000000  0.4919750000000 1.0
C      1  0.4512590000000  0.4787190000000  0.5992440000000 1.0
C      1  0.5933990000000  0.4633640000000  0.4667710000000 1.0
C      1  0.4907120000000  0.6120150000000  0.4837290000000 1.0
C      1  0.5771700000000  0.4021660000000  0.4643470000000 1.0
C      1  0.4972380000000  0.4325940000000  0.5565250000000 1.0
C      1  0.4058090000000  0.4871570000000  0.5668210000000 1.0
C      1  0.3711010000000  0.4664720000000  0.5428630000000 1.0
C      1  0.4741670000000  0.4216650000000  0.4360160000000 1.0
C      1  0.4657080000000  0.5510110000000  0.4783460000000 1.0
C      1  0.4138850000000  0.4421030000000  0.5429830000000 1.0
C      1  0.4137570000000  0.4633510000000  0.4124970000000 1.0
C      1  0.4788140000000  0.4545970000000  0.5839570000000 1.0
C      1  0.5436360000000  0.4390040000000  0.4608590000000 1.0
C      1  0.4125040000000  0.5460640000000  0.5239000000000 1.0
C      1  0.5234730000000  0.5703640000000  0.4100270000000 1.0
C      1  0.5867990000000  0.5707460000000  0.5084680000000 1.0
C      1  0.4837380000000  0.4137110000000  0.5010110000000 1.0
C      1  0.5120490000000  0.4958400000000  0.4442110000000 1.0
C      1  0.5148830000000  0.4220640000000  0.4928960000000 1.0
C      1  0.5294940000000  0.5595970000000  0.4788370000000 1.0
C      1  0.4980630000000  0.4744370000000  0.5258650000000 1.0
C      1  0.4288380000000  0.4891860000000  0.4962390000000 1.0
C      1  0.5266710000000  0.4443000000000  0.5966050000000 1.0
C      1  0.5334220000000  0.4778300000000  0.5989080000000 1.0
C      1  0.5464290000000  0.5361340000000  0.4513850000000 1.0
C      1  0.5884160000000  0.5586670000000  0.4638360000000 1.0
C      1  0.4333740000000  0.5276020000000  0.5058640000000 1.0
C      1  0.5318400000000  0.5820110000000  0.4533740000000 1.0
C      1  0.4863930000000  0.4839330000000  0.4631090000000 1.0
C      1  0.5393770000000  0.4873340000000  0.5253010000000 1.0
C      1  0.5462340000000  0.5459810000000  0.4034140000000 1.0
C      1  0.5264550000000  0.4097020000000  0.4340900000000 1.0
C      1  0.4831900000000  0.5593180000000  0.5509820000000 1.0
C      1  0.5913340000000  0.4352700000000  0.5514920000000 1.0
C      1  0.4709800000000  0.5786600000000  0.5274630000000 1.0
C      1  0.5615360000000  0.4675690000000  0.4556750000000 1.0
C      1  0.5596790000000  0.5247760000000  0.5777340000000 1.0
C      1  0.5693250000000  0.4265200000000  0.5380850000000 1.0
C      1  0.4839830000000  0.5178270000000  0.4642670000000 1.0
C      1  0.4318630000000  0.5739800000000  0.5196790000000 1.0
C      1  0.6072580000000  0.5428380000000  0.4762870000000 1.0
C      1  0.5632680000000  0.5328620000000  0.4808270000000 1.0
C      1  0.4474230000000  0.4212960000000  0.5769500000000 1.0
C      1  0.4851690000000  0.4431890000000  0.5295440000000 1.0
C      1  0.4570360000000  0.4484760000000  0.4224160000000 1.0
C      1  0.5266510000000  0.4571270000000  0.5322150000000 1.0
C      1  0.5402550000000  0.5121640000000  0.3996760000000 1.0
C      1  0.4334890000000  0.4933520000000  0.5803080000000 1.0
C      1  0.4864560000000  0.5618450000000  0.5909640000000 1.0
C      1  0.5419190000000  0.5103600000000  0.6038080000000 1.0
C      1  0.5469670000000  0.4632090000000  0.5582300000000 1.0
C      1  0.4576900000000  0.3933270000000  0.4934210000000 1.0
C      1  0.5761820000000  0.4982670000000  0.4576570000000 1.0
C      1  0.4983210000000  0.5829760000000  0.4484670000000 1.0
C      1  0.5684620000000  0.4410780000000  0.5095710000000 1.0
C      1  0.4793730000000  0.3947080000000  0.5270280000000 1.0
C      1  0.5245650000000  0.4263020000000  0.5252190000000 1.0
C      1  0.3880880000000  0.5361210000000  0.5041630000000 1.0
C      1  0.6062670000000  0.4722290000000  0.4962590000000 1.0
C      1  0.5195270000000  0.5453460000000  0.4327470000000 1.0
C      1  0.4180770000000  0.5384980000000  0.5568190000000 1.0
C      1  0.4491560000000  0.4454920000000  0.5920360000000 1.0
C      1  0.5733510000000  0.5407130000000  0.5123480000000 1.0
C      1  0.4369620000000  0.5473240000000  0.4135070000000 1.0
C      1  0.4252320000000  0.4318850000000  0.5028530000000 1.0
C      1  0.4952580000000  0.5751340000000  0.4218940000000 1.0
C      1  0.4606990000000  0.4832260000000  0.4853830000000 1.0
C      1  0.4838700000000  0.4968420000000  0.4252120000000 1.0
C      1  0.5548590000000  0.4104070000000  0.4527680000000 1.0
C      1  0.5929710000000  0.4669490000000  0.5511490000000 1.0
C      1  0.4886130000000  0.4549410000000  0.4521240000000 1.0
C      1  0.4209380000000  0.5846310000000  0.4903970000000 1.0
C      1  0.5231220000000  0.6030470000000  0.4786240000000 1.0
C      1  0.5044190000000  0.4861290000000  0.4881980000000 1.0
C      1  0.4585060000000  0.4331330000000  0.4957270000000 1.0
C      1  0.4290220000000  0.4859730000000  0.4146890000000 1.0
C      1  0.5148430000000  0.5102820000000  0.5312570000000 1.0
C      1  0.5639160000000  0.5647450000000  0.5667910000000 1.0
C      1  0.4592610000000  0.4611800000000  0.5568880000000 1.0
C      1  0.4044680000000  0.4564540000000  0.5136220000000 1.0
C      1  0.5287410000000  0.4628510000000  0.4115580000000 1.0
C      1  0.5080390000000  0.5790020000000  0.4973450000000 1.0
C      1  0.5037950000000  0.4513270000000  0.3915150000000 1.0
C      1  0.5202420000000  0.4889790000000  0.5723400000000 1.0
C      1  0.6113000000000  0.4884570000000  0.5423050000000 1.0
C      1  0.5627060000000  0.4382280000000  0.4108250000000 1.0
C      1  0.4328010000000  0.4384650000000  0.4525700000000 1.0
C      1  0.5719310000000  0.5794640000000  0.5370280000000 1.0
C      1  0.5766510000000  0.5099560000000  0.5244960000000 1.0
C      1  0.6011790000000  0.5466420000000  0.5307760000000 1.0
C      1  0.5087620000000  0.6026640000000  0.5181220000000 1.0
C      1  0.4720570000000  0.6118120000000  0.5288870000000 1.0
C      1  0.5306600000000  0.6025720000000  0.5362970000000 1.0
END
