TITL C-2847948-6138-350 -0.00246177177184367 125000 -931.824840393071 0 0 172 (C1) n - 1
REM
REM in /home/bkarasulu/work/CARBON/AIRSS/Generating-Clusters/AIREBO/with-SteepDescent/Only-C1/SD-CG-opt/Try1-1.4A-POS3A/HFTN-CG
REM
REM
REM
REM
REM
REM ./C.cell (11c1c37f851c82e70ff6c80c92926a4b)
REM
REM compiler GCC version 9.2.1 20190827 (Red Hat 9.2.1-1)
REM options -cpp -mtune=generic -march=x86-64 -g -O0 -fpre-include=/usr/include/finclude/math-vector-fortran.h
REM seed 1947538611 -1247555004 -1255890348 -154207801 -1472686878 1411795129 2071133267 -797045483 1468593654 -2029910497 -1094911668 2137488222 772536588 1579669361 -811838341 623076537 633417781 -2043974143 -1045878277 740601574 1584248775 -1701950946 2023770310 706785296 -1849637952 20877091 1457013136 -551682535 -9512451 1008818477 426838449 -244546833 1054194144
REM
CELL 1.54180   50.00000   50.00000   50.00000   90.00000   90.00000   90.00000
LATT -1
SFAC C  
C      1  0.4679140000000  0.5404370000000  0.5916690000000 1.0
C      1  0.4829050000000  0.5124190000000  0.3871110000000 1.0
C      1  0.5404090000000  0.5459380000000  0.5375850000000 1.0
C      1  0.5975410000000  0.5577730000000  0.4948890000000 1.0
C      1  0.4748840000000  0.5301270000000  0.4150150000000 1.0
C      1  0.4517890000000  0.4601350000000  0.4938360000000 1.0
C      1  0.6153930000000  0.5106900000000  0.4701370000000 1.0
C      1  0.5598440000000  0.5473590000000  0.4441570000000 1.0
C      1  0.5257800000000  0.5816340000000  0.5795640000000 1.0
C      1  0.5061520000000  0.6017330000000  0.4857580000000 1.0
C      1  0.4341110000000  0.4740930000000  0.5800170000000 1.0
C      1  0.5203410000000  0.4815410000000  0.5854970000000 1.0
C      1  0.5092280000000  0.5867500000000  0.4560000000000 1.0
C      1  0.5111770000000  0.5674290000000  0.5047580000000 1.0
C      1  0.5006260000000  0.5252550000000  0.4819860000000 1.0
C      1  0.4209920000000  0.5672600000000  0.4957650000000 1.0
C      1  0.4369920000000  0.4080880000000  0.4411630000000 1.0
C      1  0.5647240000000  0.4988030000000  0.4658940000000 1.0
C      1  0.5157220000000  0.4732630000000  0.4055550000000 1.0
C      1  0.4186450000000  0.4961840000000  0.4833260000000 1.0
C      1  0.4952370000000  0.4423810000000  0.5107070000000 1.0
C      1  0.4536550000000  0.5741780000000  0.5516520000000 1.0
C      1  0.5247280000000  0.5196990000000  0.5527860000000 1.0
C      1  0.4663510000000  0.4324350000000  0.4961740000000 1.0
C      1  0.5498920000000  0.4981800000000  0.5891730000000 1.0
C      1  0.4107930000000  0.5197400000000  0.4066660000000 1.0
C      1  0.5031410000000  0.4950100000000  0.6115610000000 1.0
C      1  0.4874230000000  0.4292600000000  0.5836090000000 1.0
C      1  0.4862500000000  0.5241650000000  0.6143730000000 1.0
C      1  0.3918280000000  0.5411720000000  0.5341340000000 1.0
C      1  0.5275840000000  0.6022370000000  0.5569960000000 1.0
C      1  0.5035160000000  0.4285660000000  0.4257750000000 1.0
C      1  0.6091230000000  0.4933290000000  0.5460650000000 1.0
C      1  0.4687830000000  0.5484930000000  0.4762980000000 1.0
C      1  0.4575570000000  0.4737750000000  0.4051500000000 1.0
C      1  0.4770210000000  0.4309180000000  0.4661630000000 1.0
C      1  0.4282070000000  0.4689040000000  0.5331480000000 1.0
C      1  0.5742270000000  0.4532090000000  0.5404740000000 1.0
C      1  0.5376450000000  0.4322670000000  0.5692830000000 1.0
C      1  0.4795030000000  0.5423510000000  0.4464090000000 1.0
C      1  0.4390120000000  0.4688680000000  0.4332300000000 1.0
C      1  0.4371330000000  0.4862820000000  0.5057490000000 1.0
C      1  0.4350240000000  0.5261350000000  0.5236930000000 1.0
C      1  0.5129350000000  0.4911150000000  0.5131140000000 1.0
C      1  0.5388100000000  0.4732000000000  0.4820820000000 1.0
C      1  0.4406370000000  0.5554660000000  0.4272000000000 1.0
C      1  0.4862010000000  0.4850700000000  0.3928770000000 1.0
C      1  0.5444780000000  0.5928610000000  0.5348500000000 1.0
C      1  0.4771440000000  0.4831370000000  0.4397090000000 1.0
C      1  0.5696480000000  0.4735350000000  0.4140760000000 1.0
C      1  0.3886970000000  0.5223630000000  0.4870740000000 1.0
C      1  0.4383240000000  0.4166790000000  0.5252770000000 1.0
C      1  0.5223520000000  0.4599180000000  0.5087730000000 1.0
C      1  0.4591430000000  0.5343100000000  0.5050850000000 1.0
C      1  0.5724620000000  0.4422490000000  0.4805330000000 1.0
C      1  0.5575760000000  0.4259840000000  0.4603280000000 1.0
C      1  0.4868780000000  0.4080920000000  0.4349500000000 1.0
C      1  0.5822670000000  0.4696410000000  0.4669440000000 1.0
C      1  0.4881120000000  0.5588910000000  0.4030280000000 1.0
C      1  0.4209320000000  0.4493130000000  0.4845000000000 1.0
C      1  0.4289300000000  0.4213420000000  0.4703500000000 1.0
C      1  0.4637920000000  0.5023050000000  0.5094710000000 1.0
C      1  0.4288930000000  0.5359310000000  0.4518770000000 1.0
C      1  0.5080740000000  0.4000240000000  0.5141890000000 1.0
C      1  0.4288740000000  0.5173160000000  0.4253720000000 1.0
C      1  0.4675010000000  0.5440090000000  0.5590200000000 1.0
C      1  0.4097080000000  0.5443750000000  0.4732800000000 1.0
C      1  0.5075160000000  0.5466490000000  0.5289930000000 1.0
C      1  0.5281690000000  0.5213730000000  0.4538100000000 1.0
C      1  0.4429750000000  0.4084210000000  0.4954530000000 1.0
C      1  0.5374810000000  0.5962630000000  0.4737320000000 1.0
C      1  0.5267820000000  0.5938550000000  0.5116280000000 1.0
C      1  0.4103670000000  0.5149580000000  0.5104410000000 1.0
C      1  0.4699640000000  0.4711580000000  0.5216360000000 1.0
C      1  0.5361470000000  0.4956870000000  0.5361520000000 1.0
C      1  0.5534140000000  0.4733870000000  0.5523790000000 1.0
C      1  0.5777180000000  0.5269370000000  0.5103270000000 1.0
C      1  0.5002800000000  0.4850460000000  0.4821320000000 1.0
C      1  0.5003460000000  0.5420000000000  0.5815730000000 1.0
C      1  0.4674320000000  0.4148230000000  0.5405200000000 1.0
C      1  0.4899600000000  0.4596630000000  0.4232440000000 1.0
C      1  0.4614380000000  0.4422680000000  0.4169100000000 1.0
C      1  0.4349590000000  0.4934390000000  0.4565550000000 1.0
C      1  0.5803930000000  0.5522800000000  0.4711020000000 1.0
C      1  0.5666510000000  0.4281080000000  0.5110080000000 1.0
C      1  0.4912770000000  0.4021710000000  0.4647740000000 1.0
C      1  0.4563100000000  0.5854350000000  0.4982920000000 1.0
C      1  0.3935950000000  0.5508080000000  0.5074090000000 1.0
C      1  0.4611680000000  0.4735170000000  0.4650780000000 1.0
C      1  0.5827780000000  0.4909110000000  0.5859780000000 1.0
C      1  0.4601430000000  0.4159180000000  0.4266040000000 1.0
C      1  0.5407690000000  0.4022960000000  0.4719880000000 1.0
C      1  0.5385370000000  0.4246820000000  0.4953320000000 1.0
C      1  0.3968070000000  0.4649650000000  0.4713070000000 1.0
C      1  0.6126580000000  0.4798080000000  0.4746060000000 1.0
C      1  0.5489700000000  0.5701830000000  0.5872510000000 1.0
C      1  0.5107510000000  0.4182310000000  0.5721470000000 1.0
C      1  0.5122360000000  0.3971560000000  0.4837530000000 1.0
C      1  0.5922510000000  0.5503800000000  0.5276800000000 1.0
C      1  0.5362680000000  0.5071150000000  0.4825790000000 1.0
C      1  0.5034960000000  0.5156530000000  0.4215800000000 1.0
C      1  0.5848820000000  0.4708890000000  0.4338570000000 1.0
C      1  0.4407860000000  0.5156000000000  0.5508850000000 1.0
C      1  0.4838320000000  0.5760620000000  0.4893350000000 1.0
C      1  0.5969740000000  0.4764430000000  0.5034530000000 1.0
C      1  0.4636610000000  0.5681100000000  0.4204580000000 1.0
C      1  0.4906340000000  0.4883450000000  0.5367660000000 1.0
C      1  0.5428060000000  0.4913090000000  0.4154660000000 1.0
C      1  0.5972980000000  0.5211380000000  0.5445880000000 1.0
C      1  0.5384450000000  0.4594440000000  0.5733660000000 1.0
C      1  0.4018190000000  0.5137180000000  0.5421210000000 1.0
C      1  0.4531880000000  0.5199330000000  0.4664040000000 1.0
C      1  0.4454410000000  0.4499270000000  0.5719660000000 1.0
C      1  0.4384150000000  0.5879080000000  0.4750640000000 1.0
C      1  0.5492870000000  0.4261150000000  0.5402000000000 1.0
C      1  0.4833430000000  0.5761380000000  0.4461940000000 1.0
C      1  0.5514940000000  0.5239320000000  0.5688430000000 1.0
C      1  0.4951100000000  0.4548770000000  0.4799910000000 1.0
C      1  0.5423970000000  0.5450970000000  0.4150560000000 1.0
C      1  0.4174740000000  0.4370020000000  0.5283350000000 1.0
C      1  0.5220330000000  0.5391560000000  0.6035560000000 1.0
C      1  0.5564520000000  0.5507930000000  0.5098750000000 1.0
C      1  0.4962350000000  0.5942640000000  0.5567060000000 1.0
C      1  0.5021450000000  0.4996130000000  0.4514660000000 1.0
C      1  0.5968110000000  0.5091590000000  0.4953870000000 1.0
C      1  0.4896560000000  0.4566910000000  0.5882240000000 1.0
C      1  0.4481340000000  0.4439650000000  0.4545420000000 1.0
C      1  0.5110310000000  0.5467550000000  0.4459720000000 1.0
C      1  0.4886170000000  0.4413540000000  0.5429540000000 1.0
C      1  0.5206640000000  0.4381750000000  0.4754620000000 1.0
C      1  0.4733900000000  0.5128590000000  0.5468300000000 1.0
C      1  0.4458390000000  0.5198750000000  0.5823460000000 1.0
C      1  0.5599060000000  0.5531890000000  0.5645060000000 1.0
C      1  0.3872680000000  0.4883200000000  0.4921680000000 1.0
C      1  0.4443230000000  0.5676570000000  0.5210770000000 1.0
C      1  0.4767220000000  0.5073020000000  0.4816690000000 1.0
C      1  0.5872380000000  0.5178220000000  0.4253460000000 1.0
C      1  0.5293020000000  0.4826720000000  0.4439900000000 1.0
C      1  0.5689180000000  0.5823180000000  0.5084980000000 1.0
C      1  0.4567190000000  0.4531990000000  0.5430500000000 1.0
C      1  0.5291570000000  0.5128220000000  0.6086120000000 1.0
C      1  0.5493540000000  0.5635860000000  0.4791650000000 1.0
C      1  0.5281480000000  0.5197380000000  0.4084820000000 1.0
C      1  0.5558800000000  0.5143970000000  0.4367670000000 1.0
C      1  0.4626820000000  0.4247900000000  0.5705630000000 1.0
C      1  0.4811180000000  0.3935150000000  0.5208310000000 1.0
C      1  0.4529290000000  0.5901620000000  0.4520540000000 1.0
C      1  0.5518520000000  0.4571300000000  0.5158990000000 1.0
C      1  0.5992550000000  0.4707360000000  0.5330210000000 1.0
C      1  0.5713840000000  0.5021170000000  0.5556920000000 1.0
C      1  0.5140150000000  0.5564790000000  0.4153980000000 1.0
C      1  0.4037550000000  0.4637330000000  0.5100670000000 1.0
C      1  0.5392560000000  0.4539330000000  0.4540490000000 1.0
C      1  0.5878440000000  0.5229320000000  0.4589570000000 1.0
C      1  0.5399730000000  0.5739880000000  0.4481640000000 1.0
C      1  0.4968340000000  0.5121370000000  0.5686170000000 1.0
C      1  0.4518390000000  0.4931600000000  0.5913960000000 1.0
C      1  0.4739380000000  0.5516170000000  0.5265120000000 1.0
C      1  0.4813510000000  0.4886580000000  0.5878070000000 1.0
C      1  0.4662170000000  0.3878890000000  0.4983880000000 1.0
C      1  0.5637750000000  0.5034980000000  0.5225770000000 1.0
C      1  0.5705620000000  0.5718190000000  0.5407940000000 1.0
C      1  0.5064260000000  0.5623360000000  0.5591740000000 1.0
C      1  0.5273180000000  0.4463170000000  0.4232790000000 1.0
C      1  0.5018040000000  0.4686550000000  0.5598780000000 1.0
C      1  0.4685160000000  0.5960930000000  0.5577960000000 1.0
C      1  0.5190330000000  0.5228900000000  0.5074890000000 1.0
C      1  0.4207710000000  0.4900200000000  0.5557190000000 1.0
C      1  0.5181040000000  0.5516570000000  0.4778670000000 1.0
C      1  0.5656430000000  0.4809870000000  0.5014930000000 1.0
C      1  0.5153320000000  0.4207370000000  0.5385420000000 1.0
C      1  0.4560700000000  0.5032130000000  0.4221140000000 1.0
END
