TITL C-2848503-6230-607 -0.000975201086244048 125000 -897.249230457695 0 0 168 (C1) n - 1
REM
REM in /home/bkarasulu/work/CARBON/AIRSS/Generating-Clusters/AIREBO/with-SteepDescent/Only-C1/SD-CG-opt/Try1-1.4A-POS3A/HFTN-CG
REM
REM
REM
REM
REM
REM ./C.cell (11c1c37f851c82e70ff6c80c92926a4b)
REM
REM compiler GCC version 9.2.1 20190827 (Red Hat 9.2.1-1)
REM options -cpp -mtune=generic -march=x86-64 -g -O0 -fpre-include=/usr/include/finclude/math-vector-fortran.h
REM seed 1878960760 -354441823 -422989205 -648885902 1944774834 -1951340077 371020396 -1634724135 -986597889 -563344622 1906650051 -57154290 -936089388 521452598 1407936200 1078608380 353851558 -2056971402 1358205391 177777123 -30621236 -902561974 1833728635 -1925821212 595873183 -842025957 144761684 1290189375 -1137550025 -234698145 809677178 -1733977550 1858494042
REM
CELL 1.54180   50.00000   50.00000   50.00000   90.00000   90.00000   90.00000
LATT -1
SFAC C  
C      1  0.4061250000000  0.5421050000000  0.4748790000000 1.0
C      1  0.5358500000000  0.4385880000000  0.5825140000000 1.0
C      1  0.5312750000000  0.4297450000000  0.4298010000000 1.0
C      1  0.3971240000000  0.4949670000000  0.4484570000000 1.0
C      1  0.4161720000000  0.5433820000000  0.5587580000000 1.0
C      1  0.4347240000000  0.4319390000000  0.5270390000000 1.0
C      1  0.5936100000000  0.4334700000000  0.4672700000000 1.0
C      1  0.5168110000000  0.5772400000000  0.5289880000000 1.0
C      1  0.4964050000000  0.5895140000000  0.5652030000000 1.0
C      1  0.5066230000000  0.4879330000000  0.5193030000000 1.0
C      1  0.5521850000000  0.5688780000000  0.4771840000000 1.0
C      1  0.5837670000000  0.4767050000000  0.5553660000000 1.0
C      1  0.4885640000000  0.5866790000000  0.4510130000000 1.0
C      1  0.5515550000000  0.5090880000000  0.5590810000000 1.0
C      1  0.3990690000000  0.5149730000000  0.4681490000000 1.0
C      1  0.6058660000000  0.5038350000000  0.5003070000000 1.0
C      1  0.4349170000000  0.5886870000000  0.5094640000000 1.0
C      1  0.4974520000000  0.5590210000000  0.5502010000000 1.0
C      1  0.4917800000000  0.5945450000000  0.5034590000000 1.0
C      1  0.4718990000000  0.5317340000000  0.3993290000000 1.0
C      1  0.4808430000000  0.5928440000000  0.5351390000000 1.0
C      1  0.4371460000000  0.4120910000000  0.5529910000000 1.0
C      1  0.5025560000000  0.5426460000000  0.6005200000000 1.0
C      1  0.4548480000000  0.4619120000000  0.4741570000000 1.0
C      1  0.5865880000000  0.4512090000000  0.4961630000000 1.0
C      1  0.5199970000000  0.5449480000000  0.5714210000000 1.0
C      1  0.5170160000000  0.5283170000000  0.3912190000000 1.0
C      1  0.5042940000000  0.5554000000000  0.5109670000000 1.0
C      1  0.5790110000000  0.5282210000000  0.5530480000000 1.0
C      1  0.5354510000000  0.5980620000000  0.4743020000000 1.0
C      1  0.4391750000000  0.5159630000000  0.5762140000000 1.0
C      1  0.5786140000000  0.5102380000000  0.4561380000000 1.0
C      1  0.5357150000000  0.5777390000000  0.4276190000000 1.0
C      1  0.4429000000000  0.5098520000000  0.5446610000000 1.0
C      1  0.4730970000000  0.4515910000000  0.4118470000000 1.0
C      1  0.4025900000000  0.4825770000000  0.5397940000000 1.0
C      1  0.4847870000000  0.4789000000000  0.4945040000000 1.0
C      1  0.4319830000000  0.4397000000000  0.5673010000000 1.0
C      1  0.4490010000000  0.4840770000000  0.5238450000000 1.0
C      1  0.5089400000000  0.4583740000000  0.5461220000000 1.0
C      1  0.5328900000000  0.5275290000000  0.5977490000000 1.0
C      1  0.4785430000000  0.5502720000000  0.4788970000000 1.0
C      1  0.4098360000000  0.5107030000000  0.5807740000000 1.0
C      1  0.4732870000000  0.4796400000000  0.5706590000000 1.0
C      1  0.5532820000000  0.5045060000000  0.4760100000000 1.0
C      1  0.4081820000000  0.4589270000000  0.4938990000000 1.0
C      1  0.3776590000000  0.4764080000000  0.4581680000000 1.0
C      1  0.5648520000000  0.5151680000000  0.5961900000000 1.0
C      1  0.5619810000000  0.4045930000000  0.5175360000000 1.0
C      1  0.5850010000000  0.5399180000000  0.3923240000000 1.0
C      1  0.4905080000000  0.5337550000000  0.4255840000000 1.0
C      1  0.4746120000000  0.4468450000000  0.4969310000000 1.0
C      1  0.6009620000000  0.5332500000000  0.5065460000000 1.0
C      1  0.4911250000000  0.4980960000000  0.4600350000000 1.0
C      1  0.5320400000000  0.4673690000000  0.5906270000000 1.0
C      1  0.5204960000000  0.4520890000000  0.5085390000000 1.0
C      1  0.4952000000000  0.4322010000000  0.5195380000000 1.0
C      1  0.4563170000000  0.4449030000000  0.4381490000000 1.0
C      1  0.5149890000000  0.4189300000000  0.5438820000000 1.0
C      1  0.4457170000000  0.4771510000000  0.4451610000000 1.0
C      1  0.5169620000000  0.5683830000000  0.4549480000000 1.0
C      1  0.4790730000000  0.4874420000000  0.5394400000000 1.0
C      1  0.4766770000000  0.5483550000000  0.5254490000000 1.0
C      1  0.5604480000000  0.4411870000000  0.4676070000000 1.0
C      1  0.5758680000000  0.4613580000000  0.4449880000000 1.0
C      1  0.4515600000000  0.4562280000000  0.5369430000000 1.0
C      1  0.5295220000000  0.5006760000000  0.4976240000000 1.0
C      1  0.4543640000000  0.4528760000000  0.5823990000000 1.0
C      1  0.4201580000000  0.4621130000000  0.5486540000000 1.0
C      1  0.5321840000000  0.4796800000000  0.5401710000000 1.0
C      1  0.5328160000000  0.6059840000000  0.5062790000000 1.0
C      1  0.5024280000000  0.5262560000000  0.4758900000000 1.0
C      1  0.5263750000000  0.4925170000000  0.5696910000000 1.0
C      1  0.5765550000000  0.4871290000000  0.4337070000000 1.0
C      1  0.5395920000000  0.4934690000000  0.4474990000000 1.0
C      1  0.4148380000000  0.4336140000000  0.4810800000000 1.0
C      1  0.5375650000000  0.4775790000000  0.6164870000000 1.0
C      1  0.4721240000000  0.5351340000000  0.4492740000000 1.0
C      1  0.4273190000000  0.4165420000000  0.4993700000000 1.0
C      1  0.4409790000000  0.5718210000000  0.4637040000000 1.0
C      1  0.5455350000000  0.5666120000000  0.5379130000000 1.0
C      1  0.3796070000000  0.4710360000000  0.4847130000000 1.0
C      1  0.5146420000000  0.5292560000000  0.5300860000000 1.0
C      1  0.4753920000000  0.5829510000000  0.4805360000000 1.0
C      1  0.6013470000000  0.4893640000000  0.5308410000000 1.0
C      1  0.4189210000000  0.4879060000000  0.4311400000000 1.0
C      1  0.5093500000000  0.6104490000000  0.5278380000000 1.0
C      1  0.4790310000000  0.5453570000000  0.5753190000000 1.0
C      1  0.4659250000000  0.4830810000000  0.4016330000000 1.0
C      1  0.3973360000000  0.4850270000000  0.5102300000000 1.0
C      1  0.5233230000000  0.3994680000000  0.4744320000000 1.0
C      1  0.4844010000000  0.4648480000000  0.4575980000000 1.0
C      1  0.4974360000000  0.4124090000000  0.4565600000000 1.0
C      1  0.5806570000000  0.4188680000000  0.4413640000000 1.0
C      1  0.5671690000000  0.5417840000000  0.4112740000000 1.0
C      1  0.5046140000000  0.4840340000000  0.3743780000000 1.0
C      1  0.5205400000000  0.5180800000000  0.4224770000000 1.0
C      1  0.4333190000000  0.4389220000000  0.4613380000000 1.0
C      1  0.4587250000000  0.4761250000000  0.6072330000000 1.0
C      1  0.4451280000000  0.5482360000000  0.5757030000000 1.0
C      1  0.5570760000000  0.4268770000000  0.4304280000000 1.0
C      1  0.4644230000000  0.5061280000000  0.4943530000000 1.0
C      1  0.5532520000000  0.5324310000000  0.4954160000000 1.0
C      1  0.4105610000000  0.5113480000000  0.4999720000000 1.0
C      1  0.5303660000000  0.4765950000000  0.3933140000000 1.0
C      1  0.4351900000000  0.5564290000000  0.5202070000000 1.0
C      1  0.6015770000000  0.4955500000000  0.4738130000000 1.0
C      1  0.5132310000000  0.4361320000000  0.4841660000000 1.0
C      1  0.5442610000000  0.4724830000000  0.5028440000000 1.0
C      1  0.4006910000000  0.5102760000000  0.5514410000000 1.0
C      1  0.4363160000000  0.5060670000000  0.4789350000000 1.0
C      1  0.4701450000000  0.5181510000000  0.5319240000000 1.0
C      1  0.4600680000000  0.4174180000000  0.4931070000000 1.0
C      1  0.4589150000000  0.5058910000000  0.4548880000000 1.0
C      1  0.5026420000000  0.4597950000000  0.3971690000000 1.0
C      1  0.4594530000000  0.5052450000000  0.5979150000000 1.0
C      1  0.4540940000000  0.4043630000000  0.5243210000000 1.0
C      1  0.4937390000000  0.5170860000000  0.5074580000000 1.0
C      1  0.5294700000000  0.5814540000000  0.5653700000000 1.0
C      1  0.5980220000000  0.5216890000000  0.5348150000000 1.0
C      1  0.5095070000000  0.5563850000000  0.4240130000000 1.0
C      1  0.4918050000000  0.5048900000000  0.3979840000000 1.0
C      1  0.5500030000000  0.5814980000000  0.5076560000000 1.0
C      1  0.4886330000000  0.4648170000000  0.5971390000000 1.0
C      1  0.4625900000000  0.5667720000000  0.4463710000000 1.0
C      1  0.4787440000000  0.4480010000000  0.5446410000000 1.0
C      1  0.4645930000000  0.5748580000000  0.5664600000000 1.0
C      1  0.5117910000000  0.4264300000000  0.5714520000000 1.0
C      1  0.5144070000000  0.4809110000000  0.4778890000000 1.0
C      1  0.5090840000000  0.4439280000000  0.4513300000000 1.0
C      1  0.5589220000000  0.4593540000000  0.5455290000000 1.0
C      1  0.5758460000000  0.4782650000000  0.5140210000000 1.0
C      1  0.5588830000000  0.4325000000000  0.5646550000000 1.0
C      1  0.5964440000000  0.4667920000000  0.4703000000000 1.0
C      1  0.4784520000000  0.5122650000000  0.5705950000000 1.0
C      1  0.5457930000000  0.5043030000000  0.6181000000000 1.0
C      1  0.4529610000000  0.5431600000000  0.3866970000000 1.0
C      1  0.5384340000000  0.4363670000000  0.5310740000000 1.0
C      1  0.5451290000000  0.5343500000000  0.5265130000000 1.0
C      1  0.4688850000000  0.4224120000000  0.4605560000000 1.0
C      1  0.4511840000000  0.5810710000000  0.5374310000000 1.0
C      1  0.5553820000000  0.5019010000000  0.5274240000000 1.0
C      1  0.4851250000000  0.4400690000000  0.5756120000000 1.0
C      1  0.5079120000000  0.5168290000000  0.5599880000000 1.0
C      1  0.5748890000000  0.4957240000000  0.5757960000000 1.0
C      1  0.5011130000000  0.4082030000000  0.4960770000000 1.0
C      1  0.5319800000000  0.5422740000000  0.4707620000000 1.0
C      1  0.5382960000000  0.5503260000000  0.4069970000000 1.0
C      1  0.4786670000000  0.5275680000000  0.6111200000000 1.0
C      1  0.5809520000000  0.5450910000000  0.4914110000000 1.0
C      1  0.5796830000000  0.5584760000000  0.4643610000000 1.0
C      1  0.5396530000000  0.4910420000000  0.4145520000000 1.0
C      1  0.4397600000000  0.4900110000000  0.4078680000000 1.0
C      1  0.4188650000000  0.5278030000000  0.5286510000000 1.0
C      1  0.4561090000000  0.5386020000000  0.5001790000000 1.0
C      1  0.5741100000000  0.5381780000000  0.4417120000000 1.0
C      1  0.5671280000000  0.4118610000000  0.5442990000000 1.0
C      1  0.5020160000000  0.4347690000000  0.4167840000000 1.0
C      1  0.5361760000000  0.4625170000000  0.4601070000000 1.0
C      1  0.4324390000000  0.5490220000000  0.4780910000000 1.0
C      1  0.4357330000000  0.4785170000000  0.4968780000000 1.0
C      1  0.5494590000000  0.4163600000000  0.4881420000000 1.0
C      1  0.4455410000000  0.5931360000000  0.4838440000000 1.0
C      1  0.5139170000000  0.5759030000000  0.4879740000000 1.0
C      1  0.5591480000000  0.4427870000000  0.5072280000000 1.0
C      1  0.5141220000000  0.6080920000000  0.4525950000000 1.0
C      1  0.4991660000000  0.4949510000000  0.4296570000000 1.0
C      1  0.5434590000000  0.5271560000000  0.4448820000000 1.0
END
