TITL C-2848494-1720-346 0.000427492863544977 125000 -583.48866066564 0 0 108 (C1) n - 1
REM
REM in /home/bkarasulu/work/CARBON/AIRSS/Generating-Clusters/AIREBO/with-SteepDescent/Only-C1/SD-CG-opt/Try1-1.4A-POS3A/HFTN-CG
REM
REM
REM
REM
REM
REM ./C.cell (11c1c37f851c82e70ff6c80c92926a4b)
REM
REM compiler GCC version 9.2.1 20190827 (Red Hat 9.2.1-1)
REM options -cpp -mtune=generic -march=x86-64 -g -O0 -fpre-include=/usr/include/finclude/math-vector-fortran.h
REM seed -1078145226 -943571192 1367995322 -421325201 735812991 -1185368428 -1926915183 -1428000477 -142976271 -749240485 803772328 -2131696161 939912455 1594263917 -1993468711 1196051121 -1466343784 1402560816 1303335814 -1325339373 -1710787848 -1689819778 1009081138 2142163791 1030145068 1485667096 -528898803 -973342904 -1043319076 -693064330 -2140403757 -251888718 1015424177
REM
CELL 1.54180   50.00000   50.00000   50.00000   90.00000   90.00000   90.00000
LATT -1
SFAC C  
C      1  0.5699500000000  0.4316090000000  0.5113900000000 1.0
C      1  0.5683610000000  0.5332020000000  0.4982240000000 1.0
C      1  0.5494020000000  0.4859100000000  0.4799940000000 1.0
C      1  0.4554270000000  0.5033570000000  0.4749910000000 1.0
C      1  0.5150220000000  0.4208760000000  0.5273600000000 1.0
C      1  0.4941950000000  0.4751460000000  0.5511670000000 1.0
C      1  0.5388140000000  0.5024340000000  0.4187620000000 1.0
C      1  0.4975110000000  0.5921790000000  0.4559140000000 1.0
C      1  0.4614240000000  0.4580790000000  0.4242870000000 1.0
C      1  0.4465170000000  0.4471990000000  0.5621990000000 1.0
C      1  0.4861410000000  0.5651270000000  0.4942370000000 1.0
C      1  0.5130600000000  0.4577040000000  0.4257370000000 1.0
C      1  0.4923100000000  0.4565300000000  0.5780420000000 1.0
C      1  0.5567030000000  0.5820960000000  0.5138680000000 1.0
C      1  0.4644750000000  0.5644850000000  0.5278450000000 1.0
C      1  0.5925480000000  0.5250800000000  0.5166420000000 1.0
C      1  0.4495640000000  0.4690870000000  0.5003310000000 1.0
C      1  0.5465540000000  0.5637120000000  0.5401200000000 1.0
C      1  0.4345390000000  0.4971220000000  0.4520330000000 1.0
C      1  0.4765110000000  0.5211370000000  0.4606810000000 1.0
C      1  0.4845880000000  0.4181680000000  0.4497470000000 1.0
C      1  0.4250780000000  0.4564050000000  0.4847490000000 1.0
C      1  0.5572430000000  0.5210880000000  0.4369110000000 1.0
C      1  0.5061400000000  0.4334760000000  0.4986120000000 1.0
C      1  0.4406830000000  0.4497920000000  0.4459240000000 1.0
C      1  0.5334390000000  0.5081020000000  0.5951730000000 1.0
C      1  0.4294170000000  0.5296620000000  0.4604610000000 1.0
C      1  0.5616690000000  0.5159850000000  0.5518360000000 1.0
C      1  0.4215860000000  0.5292900000000  0.4895400000000 1.0
C      1  0.4897600000000  0.4517500000000  0.5301720000000 1.0
C      1  0.4323250000000  0.5301720000000  0.5617400000000 1.0
C      1  0.4622060000000  0.4465580000000  0.5168990000000 1.0
C      1  0.4975960000000  0.5492290000000  0.5936620000000 1.0
C      1  0.4847910000000  0.4974670000000  0.5908680000000 1.0
C      1  0.5459200000000  0.4608830000000  0.5164390000000 1.0
C      1  0.4971870000000  0.4704350000000  0.4529840000000 1.0
C      1  0.5310770000000  0.5927030000000  0.4615500000000 1.0
C      1  0.4412260000000  0.5213500000000  0.5318160000000 1.0
C      1  0.4154930000000  0.4574650000000  0.5174420000000 1.0
C      1  0.4372260000000  0.4478100000000  0.5347440000000 1.0
C      1  0.5411710000000  0.4733560000000  0.4249520000000 1.0
C      1  0.5587730000000  0.5731800000000  0.4650040000000 1.0
C      1  0.5920640000000  0.4812750000000  0.5365660000000 1.0
C      1  0.5047620000000  0.5451920000000  0.4363660000000 1.0
C      1  0.5345470000000  0.5052330000000  0.5370970000000 1.0
C      1  0.5432270000000  0.4309860000000  0.5324070000000 1.0
C      1  0.5679350000000  0.5528400000000  0.4432070000000 1.0
C      1  0.5106770000000  0.5234900000000  0.5532010000000 1.0
C      1  0.5059140000000  0.5208930000000  0.5849670000000 1.0
C      1  0.5678180000000  0.5664640000000  0.4911730000000 1.0
C      1  0.4651200000000  0.4204180000000  0.4749240000000 1.0
C      1  0.5482690000000  0.5061150000000  0.5040810000000 1.0
C      1  0.5410950000000  0.5437880000000  0.5148420000000 1.0
C      1  0.5550990000000  0.5212250000000  0.5835570000000 1.0
C      1  0.4641810000000  0.5276980000000  0.5555150000000 1.0
C      1  0.5273700000000  0.4776860000000  0.5557040000000 1.0
C      1  0.4119370000000  0.5051640000000  0.5063930000000 1.0
C      1  0.4741250000000  0.4985660000000  0.5430390000000 1.0
C      1  0.4831420000000  0.5041620000000  0.5142810000000 1.0
C      1  0.4889570000000  0.5481070000000  0.5443060000000 1.0
C      1  0.5563080000000  0.5471240000000  0.5628390000000 1.0
C      1  0.4849180000000  0.4426030000000  0.4271240000000 1.0
C      1  0.4789060000000  0.5492520000000  0.4292680000000 1.0
C      1  0.5864050000000  0.5085340000000  0.5374350000000 1.0
C      1  0.4642950000000  0.4918230000000  0.5731230000000 1.0
C      1  0.4572470000000  0.5486730000000  0.4554750000000 1.0
C      1  0.5136330000000  0.5666770000000  0.5321580000000 1.0
C      1  0.5249760000000  0.5656490000000  0.4451670000000 1.0
C      1  0.5150760000000  0.4621360000000  0.5132010000000 1.0
C      1  0.5288850000000  0.4461020000000  0.4514990000000 1.0
C      1  0.4848460000000  0.4989640000000  0.4391630000000 1.0
C      1  0.4965500000000  0.5289640000000  0.4807540000000 1.0
C      1  0.4450190000000  0.5662480000000  0.4819020000000 1.0
C      1  0.4779790000000  0.5340050000000  0.5057430000000 1.0
C      1  0.5894550000000  0.4805620000000  0.4456870000000 1.0
C      1  0.4649480000000  0.4664630000000  0.4630670000000 1.0
C      1  0.5178850000000  0.5617840000000  0.4982760000000 1.0
C      1  0.5557470000000  0.5334590000000  0.4680960000000 1.0
C      1  0.4439580000000  0.4725280000000  0.5755490000000 1.0
C      1  0.4577360000000  0.4871790000000  0.4297380000000 1.0
C      1  0.4739170000000  0.5886710000000  0.5139300000000 1.0
C      1  0.5087350000000  0.5101750000000  0.4179520000000 1.0
C      1  0.4807520000000  0.5713720000000  0.4649340000000 1.0
C      1  0.4940610000000  0.4269460000000  0.5488820000000 1.0
C      1  0.5788040000000  0.4605120000000  0.5252510000000 1.0
C      1  0.4891810000000  0.5637450000000  0.5744960000000 1.0
C      1  0.5636650000000  0.4562600000000  0.4886010000000 1.0
C      1  0.5537390000000  0.4525710000000  0.4587570000000 1.0
C      1  0.4904280000000  0.3926880000000  0.4407010000000 1.0
C      1  0.5186690000000  0.5171570000000  0.4496580000000 1.0
C      1  0.4396960000000  0.4304800000000  0.4704820000000 1.0
C      1  0.5614500000000  0.4876540000000  0.4482200000000 1.0
C      1  0.4764030000000  0.4263340000000  0.4992010000000 1.0
C      1  0.4762460000000  0.4838720000000  0.4900210000000 1.0
C      1  0.4457010000000  0.5445140000000  0.5077250000000 1.0
C      1  0.5434720000000  0.4539320000000  0.5555810000000 1.0
C      1  0.4007020000000  0.4827080000000  0.5198130000000 1.0
C      1  0.5180590000000  0.5217090000000  0.5036240000000 1.0
C      1  0.5250100000000  0.5431880000000  0.4706920000000 1.0
C      1  0.5346420000000  0.5886320000000  0.4928890000000 1.0
C      1  0.4441300000000  0.5010350000000  0.5062810000000 1.0
C      1  0.4087830000000  0.4578610000000  0.4373330000000 1.0
C      1  0.4145890000000  0.4754360000000  0.4612380000000 1.0
C      1  0.5138070000000  0.4819980000000  0.5852680000000 1.0
C      1  0.4728640000000  0.4342450000000  0.5704360000000 1.0
C      1  0.5125610000000  0.4917420000000  0.5149460000000 1.0
C      1  0.5225450000000  0.4902560000000  0.4630520000000 1.0
C      1  0.5027600000000  0.4398820000000  0.4681000000000 1.0
END
