TITL C-2847951-7423-408 -0.000443660305941683 125000 -593.697609701642 0 0 109 (C1) n - 1
REM
REM in /home/bkarasulu/work/CARBON/AIRSS/Generating-Clusters/AIREBO/with-SteepDescent/Only-C1/SD-CG-opt/Try1-1.4A-POS3A/HFTN-CG
REM
REM
REM
REM
REM
REM ./C.cell (11c1c37f851c82e70ff6c80c92926a4b)
REM
REM compiler GCC version 9.2.1 20190827 (Red Hat 9.2.1-1)
REM options -cpp -mtune=generic -march=x86-64 -g -O0 -fpre-include=/usr/include/finclude/math-vector-fortran.h
REM seed 1414845020 -1871823112 -1931542065 -3894120 1376731316 769127447 -1944185407 319807516 1020295438 588742185 -557763977 642061467 1375485119 309454405 -59415816 -295797059 -771078972 1031918536 -1414425143 -1117237479 200204432 -1985381988 -1064528908 -767996374 1051375687 1827969389 -757666101 181986804 -220456942 1733913006 -1068589192 -1694217560 1169125189
REM
CELL 1.54180   50.00000   50.00000   50.00000   90.00000   90.00000   90.00000
LATT -1
SFAC C  
C      1  0.4928760000000  0.4746170000000  0.4225300000000 1.0
C      1  0.5062990000000  0.4875400000000  0.3730700000000 1.0
C      1  0.5165660000000  0.4130620000000  0.4923430000000 1.0
C      1  0.4891020000000  0.4257700000000  0.4357810000000 1.0
C      1  0.5284080000000  0.4656610000000  0.5098980000000 1.0
C      1  0.5542470000000  0.4401090000000  0.5508510000000 1.0
C      1  0.4666410000000  0.5028420000000  0.5728470000000 1.0
C      1  0.5091290000000  0.5487090000000  0.4260690000000 1.0
C      1  0.4306720000000  0.5403720000000  0.5597470000000 1.0
C      1  0.5054320000000  0.5507900000000  0.5818290000000 1.0
C      1  0.4920330000000  0.4494740000000  0.5075830000000 1.0
C      1  0.5187550000000  0.5154670000000  0.5403510000000 1.0
C      1  0.5265740000000  0.4344890000000  0.4711900000000 1.0
C      1  0.4930590000000  0.4998270000000  0.5941400000000 1.0
C      1  0.5783130000000  0.5390540000000  0.4588030000000 1.0
C      1  0.4997500000000  0.4798760000000  0.3972640000000 1.0
C      1  0.5263480000000  0.5006380000000  0.4364490000000 1.0
C      1  0.4936260000000  0.5849900000000  0.5001830000000 1.0
C      1  0.4655550000000  0.4988800000000  0.4694570000000 1.0
C      1  0.5149840000000  0.4375950000000  0.4414500000000 1.0
C      1  0.4853440000000  0.4040920000000  0.4216370000000 1.0
C      1  0.4340680000000  0.5650320000000  0.5597900000000 1.0
C      1  0.5084290000000  0.5293340000000  0.4741960000000 1.0
C      1  0.4270440000000  0.4937940000000  0.4599870000000 1.0
C      1  0.5108910000000  0.4779390000000  0.5515600000000 1.0
C      1  0.4996430000000  0.4803890000000  0.5195630000000 1.0
C      1  0.5594850000000  0.5318270000000  0.4322100000000 1.0
C      1  0.5011150000000  0.4555230000000  0.4793000000000 1.0
C      1  0.5362460000000  0.4900430000000  0.5317990000000 1.0
C      1  0.5296270000000  0.4738920000000  0.4769310000000 1.0
C      1  0.4089340000000  0.4761030000000  0.5263930000000 1.0
C      1  0.3939360000000  0.5255690000000  0.5241040000000 1.0
C      1  0.5716590000000  0.5250230000000  0.5248140000000 1.0
C      1  0.4754520000000  0.5273560000000  0.5153230000000 1.0
C      1  0.5149010000000  0.5774800000000  0.5429740000000 1.0
C      1  0.4893310000000  0.5748270000000  0.5502490000000 1.0
C      1  0.5789040000000  0.4702760000000  0.5341640000000 1.0
C      1  0.4668510000000  0.4424520000000  0.4466260000000 1.0
C      1  0.4483860000000  0.5275420000000  0.4375760000000 1.0
C      1  0.5477110000000  0.4541860000000  0.4436300000000 1.0
C      1  0.5055180000000  0.4269700000000  0.5480180000000 1.0
C      1  0.5710010000000  0.5422920000000  0.5503890000000 1.0
C      1  0.4983060000000  0.5250500000000  0.5637010000000 1.0
C      1  0.5688060000000  0.4323360000000  0.5044770000000 1.0
C      1  0.4122480000000  0.5039180000000  0.5121470000000 1.0
C      1  0.5633500000000  0.4758010000000  0.4275540000000 1.0
C      1  0.4667390000000  0.4791650000000  0.5267660000000 1.0
C      1  0.4788490000000  0.5250360000000  0.4633440000000 1.0
C      1  0.5574110000000  0.4446820000000  0.4749150000000 1.0
C      1  0.4348110000000  0.4656410000000  0.4482670000000 1.0
C      1  0.5779690000000  0.4599030000000  0.5068420000000 1.0
C      1  0.5518310000000  0.4272100000000  0.5259210000000 1.0
C      1  0.5626130000000  0.4772150000000  0.4845020000000 1.0
C      1  0.5523250000000  0.5433670000000  0.5693740000000 1.0
C      1  0.4752760000000  0.5465250000000  0.4879320000000 1.0
C      1  0.5056610000000  0.5125470000000  0.5102140000000 1.0
C      1  0.4885770000000  0.4168350000000  0.5050270000000 1.0
C      1  0.5498390000000  0.5209500000000  0.4630460000000 1.0
C      1  0.4285230000000  0.4372260000000  0.4899440000000 1.0
C      1  0.5649420000000  0.4970680000000  0.5319500000000 1.0
C      1  0.4763380000000  0.4668090000000  0.4657850000000 1.0
C      1  0.5320120000000  0.5569810000000  0.5862220000000 1.0
C      1  0.5195210000000  0.5831810000000  0.4751420000000 1.0
C      1  0.4243790000000  0.4574750000000  0.5506070000000 1.0
C      1  0.5366560000000  0.5552850000000  0.4366270000000 1.0
C      1  0.6161430000000  0.5277350000000  0.4927260000000 1.0
C      1  0.4796740000000  0.5066830000000  0.5419860000000 1.0
C      1  0.4267430000000  0.4482520000000  0.5179580000000 1.0
C      1  0.4625560000000  0.4710190000000  0.4286930000000 1.0
C      1  0.4202660000000  0.4900440000000  0.5552590000000 1.0
C      1  0.5304880000000  0.5996180000000  0.5010470000000 1.0
C      1  0.5270200000000  0.5049340000000  0.4825610000000 1.0
C      1  0.5233190000000  0.5406090000000  0.5026130000000 1.0
C      1  0.4724320000000  0.4287880000000  0.5482730000000 1.0
C      1  0.4516580000000  0.5689570000000  0.4858270000000 1.0
C      1  0.5133170000000  0.5235530000000  0.4432740000000 1.0
C      1  0.5407160000000  0.5685410000000  0.4611870000000 1.0
C      1  0.4561610000000  0.5793650000000  0.5440920000000 1.0
C      1  0.4745070000000  0.4068130000000  0.5259480000000 1.0
C      1  0.4776100000000  0.5393040000000  0.4347460000000 1.0
C      1  0.5199760000000  0.4958250000000  0.5873670000000 1.0
C      1  0.4303760000000  0.5603120000000  0.4707320000000 1.0
C      1  0.5529390000000  0.5012890000000  0.4284320000000 1.0
C      1  0.4341330000000  0.5343150000000  0.4610710000000 1.0
C      1  0.5197210000000  0.5695380000000  0.5126960000000 1.0
C      1  0.4825310000000  0.4746120000000  0.5654330000000 1.0
C      1  0.4805390000000  0.5704620000000  0.4432900000000 1.0
C      1  0.5614730000000  0.5564360000000  0.4769610000000 1.0
C      1  0.4883930000000  0.5726880000000  0.4705990000000 1.0
C      1  0.4451390000000  0.4992730000000  0.4317220000000 1.0
C      1  0.4675170000000  0.4797650000000  0.4959370000000 1.0
C      1  0.4732840000000  0.5919620000000  0.5179120000000 1.0
C      1  0.5220390000000  0.4335010000000  0.5189590000000 1.0
C      1  0.4545120000000  0.4532920000000  0.5368820000000 1.0
C      1  0.5312170000000  0.5201020000000  0.5708290000000 1.0
C      1  0.5183230000000  0.4712550000000  0.4449410000000 1.0
C      1  0.5356570000000  0.4725300000000  0.5831380000000 1.0
C      1  0.4390580000000  0.4418720000000  0.4662110000000 1.0
C      1  0.5538870000000  0.5368350000000  0.4994470000000 1.0
C      1  0.5686400000000  0.5063530000000  0.4852080000000 1.0
C      1  0.5568530000000  0.4709010000000  0.5600600000000 1.0
C      1  0.5233990000000  0.4493980000000  0.5614420000000 1.0
C      1  0.4400560000000  0.5129000000000  0.4849220000000 1.0
C      1  0.5914840000000  0.5234900000000  0.4990250000000 1.0
C      1  0.4415130000000  0.5119270000000  0.5517050000000 1.0
C      1  0.4448910000000  0.5125710000000  0.5174660000000 1.0
C      1  0.4729950000000  0.4498970000000  0.5721230000000 1.0
C      1  0.4736000000000  0.5525580000000  0.5342170000000 1.0
C      1  0.4034190000000  0.4980160000000  0.4817080000000 1.0
END
