TITL C-2848507-1641-249 0.000429595380219306 125000 -995.519763941307 0 0 180 (C1) n - 1
REM
REM in /home/bkarasulu/work/CARBON/AIRSS/Generating-Clusters/AIREBO/with-SteepDescent/Only-C1/SD-CG-opt/Try1-1.4A-POS3A/HFTN-CG
REM
REM
REM
REM
REM
REM ./C.cell (11c1c37f851c82e70ff6c80c92926a4b)
REM
REM compiler GCC version 9.2.1 20190827 (Red Hat 9.2.1-1)
REM options -cpp -mtune=generic -march=x86-64 -g -O0 -fpre-include=/usr/include/finclude/math-vector-fortran.h
REM seed 1698136449 -1138000755 -314288856 1816582861 -2144296877 1378378389 206023166 1407160180 -163569279 1911651766 -2126932190 599246223 -1612213186 44027005 -818929291 -463580356 -1447731786 1582635528 -1297141668 -1014747 485689156 584773279 1885940996 1430594680 1642362061 -1519144287 -881973041 -1488265370 1337060764 -1433717471 413265948 1849063265 1211695575
REM
CELL 1.54180   50.00000   50.00000   50.00000   90.00000   90.00000   90.00000
LATT -1
SFAC C  
C      1  0.4683400000000  0.5229350000000  0.5954640000000 1.0
C      1  0.5501670000000  0.4954440000000  0.5999420000000 1.0
C      1  0.4671790000000  0.4236640000000  0.4253880000000 1.0
C      1  0.4964730000000  0.5613390000000  0.5939810000000 1.0
C      1  0.4538880000000  0.4066180000000  0.4494940000000 1.0
C      1  0.4585000000000  0.4729170000000  0.5183550000000 1.0
C      1  0.5425510000000  0.4734410000000  0.4676370000000 1.0
C      1  0.6123020000000  0.5158370000000  0.4839410000000 1.0
C      1  0.5100310000000  0.5509200000000  0.4204330000000 1.0
C      1  0.4938010000000  0.5621460000000  0.5431310000000 1.0
C      1  0.5292000000000  0.5194950000000  0.6003560000000 1.0
C      1  0.5001730000000  0.5110960000000  0.5981630000000 1.0
C      1  0.4898050000000  0.5670240000000  0.4942950000000 1.0
C      1  0.4405030000000  0.4133450000000  0.5314000000000 1.0
C      1  0.5681040000000  0.4225550000000  0.5259190000000 1.0
C      1  0.5029730000000  0.5013980000000  0.4679760000000 1.0
C      1  0.5295630000000  0.5682740000000  0.5158900000000 1.0
C      1  0.4228350000000  0.4657270000000  0.4644190000000 1.0
C      1  0.5090040000000  0.5956190000000  0.5187730000000 1.0
C      1  0.5505890000000  0.4937520000000  0.4232370000000 1.0
C      1  0.5772470000000  0.4862950000000  0.4824260000000 1.0
C      1  0.5702650000000  0.5464840000000  0.4844940000000 1.0
C      1  0.5996160000000  0.4451990000000  0.4846090000000 1.0
C      1  0.5360400000000  0.5374130000000  0.4215750000000 1.0
C      1  0.5406870000000  0.5259430000000  0.4516580000000 1.0
C      1  0.5994840000000  0.5511830000000  0.5206910000000 1.0
C      1  0.4707810000000  0.5527440000000  0.5944070000000 1.0
C      1  0.5297010000000  0.4563870000000  0.3981630000000 1.0
C      1  0.4324330000000  0.4348900000000  0.4413100000000 1.0
C      1  0.5473650000000  0.4692530000000  0.5895890000000 1.0
C      1  0.4454970000000  0.4662070000000  0.4390770000000 1.0
C      1  0.5088510000000  0.5762060000000  0.4329970000000 1.0
C      1  0.4341270000000  0.4229760000000  0.4718370000000 1.0
C      1  0.4534450000000  0.5860110000000  0.5321550000000 1.0
C      1  0.5138180000000  0.4239310000000  0.5573930000000 1.0
C      1  0.3906050000000  0.4655570000000  0.4733660000000 1.0
C      1  0.5754170000000  0.4455550000000  0.5053330000000 1.0
C      1  0.4721700000000  0.4682520000000  0.5812890000000 1.0
C      1  0.6027100000000  0.5408870000000  0.4930280000000 1.0
C      1  0.5181380000000  0.4246330000000  0.4660380000000 1.0
C      1  0.4304670000000  0.5157620000000  0.4449060000000 1.0
C      1  0.4822830000000  0.5116700000000  0.5102010000000 1.0
C      1  0.4979550000000  0.3818890000000  0.4717890000000 1.0
C      1  0.5785310000000  0.5211330000000  0.4633760000000 1.0
C      1  0.3966990000000  0.5772000000000  0.5310780000000 1.0
C      1  0.4229490000000  0.5873090000000  0.4674110000000 1.0
C      1  0.4286360000000  0.4506730000000  0.5497160000000 1.0
C      1  0.5240230000000  0.4584930000000  0.4459150000000 1.0
C      1  0.4141000000000  0.5209790000000  0.5134440000000 1.0
C      1  0.4076010000000  0.4540930000000  0.4361830000000 1.0
C      1  0.4771400000000  0.3987340000000  0.5013230000000 1.0
C      1  0.4667150000000  0.5859490000000  0.5598020000000 1.0
C      1  0.4562730000000  0.5129640000000  0.4591230000000 1.0
C      1  0.4916260000000  0.5483310000000  0.4557910000000 1.0
C      1  0.5187100000000  0.4010400000000  0.5290160000000 1.0
C      1  0.5074320000000  0.4344360000000  0.5850630000000 1.0
C      1  0.4919990000000  0.6050140000000  0.4686840000000 1.0
C      1  0.5450130000000  0.4372700000000  0.5549710000000 1.0
C      1  0.5187780000000  0.4888210000000  0.5697570000000 1.0
C      1  0.5619910000000  0.5192390000000  0.4095540000000 1.0
C      1  0.5541320000000  0.4655910000000  0.4085060000000 1.0
C      1  0.5637360000000  0.5531960000000  0.4093020000000 1.0
C      1  0.5081510000000  0.3905050000000  0.4991080000000 1.0
C      1  0.4903960000000  0.5062780000000  0.5668980000000 1.0
C      1  0.5536350000000  0.4214120000000  0.4820720000000 1.0
C      1  0.5049750000000  0.4725020000000  0.4812970000000 1.0
C      1  0.4562890000000  0.4208160000000  0.5042370000000 1.0
C      1  0.5170960000000  0.4796020000000  0.3843150000000 1.0
C      1  0.5842630000000  0.5302770000000  0.5418180000000 1.0
C      1  0.4854770000000  0.3946970000000  0.5324850000000 1.0
C      1  0.5312560000000  0.5832400000000  0.4479270000000 1.0
C      1  0.4024400000000  0.4786630000000  0.5392680000000 1.0
C      1  0.5173110000000  0.5394500000000  0.5025850000000 1.0
C      1  0.4434040000000  0.4753590000000  0.5878330000000 1.0
C      1  0.5166510000000  0.4520890000000  0.5058720000000 1.0
C      1  0.5727010000000  0.5150260000000  0.4971950000000 1.0
C      1  0.4981860000000  0.4790430000000  0.5949900000000 1.0
C      1  0.4796960000000  0.4385950000000  0.5884680000000 1.0
C      1  0.3850890000000  0.5337270000000  0.5113980000000 1.0
C      1  0.5413670000000  0.5424330000000  0.5783220000000 1.0
C      1  0.5092370000000  0.5172310000000  0.5434030000000 1.0
C      1  0.5223520000000  0.4574760000000  0.5942970000000 1.0
C      1  0.4852320000000  0.3978590000000  0.4506850000000 1.0
C      1  0.6078380000000  0.4724610000000  0.5403390000000 1.0
C      1  0.5305710000000  0.5919500000000  0.5622480000000 1.0
C      1  0.5915600000000  0.4817030000000  0.5605490000000 1.0
C      1  0.4917010000000  0.4675990000000  0.4121820000000 1.0
C      1  0.4990830000000  0.5924070000000  0.5511680000000 1.0
C      1  0.5229280000000  0.4628250000000  0.5548020000000 1.0
C      1  0.6043120000000  0.4907650000000  0.4623390000000 1.0
C      1  0.5648980000000  0.4931830000000  0.4514960000000 1.0
C      1  0.5103270000000  0.4404200000000  0.4205770000000 1.0
C      1  0.4170700000000  0.5695750000000  0.4420360000000 1.0
C      1  0.5626730000000  0.4658900000000  0.5600710000000 1.0
C      1  0.4594330000000  0.5335500000000  0.4806610000000 1.0
C      1  0.4760920000000  0.4802990000000  0.3885730000000 1.0
C      1  0.5864350000000  0.5353720000000  0.4270840000000 1.0
C      1  0.4498200000000  0.4996510000000  0.5376680000000 1.0
C      1  0.5733190000000  0.5636380000000  0.4402780000000 1.0
C      1  0.4831430000000  0.4495640000000  0.5112120000000 1.0
C      1  0.3979710000000  0.5243440000000  0.4608570000000 1.0
C      1  0.4609360000000  0.5059950000000  0.5651010000000 1.0
C      1  0.4705690000000  0.4879020000000  0.4477760000000 1.0
C      1  0.4194050000000  0.5056820000000  0.5390600000000 1.0
C      1  0.5465100000000  0.4535310000000  0.4901170000000 1.0
C      1  0.5470400000000  0.5682980000000  0.5570890000000 1.0
C      1  0.4613730000000  0.5239840000000  0.5236500000000 1.0
C      1  0.4732740000000  0.4511180000000  0.4320720000000 1.0
C      1  0.3791880000000  0.5568950000000  0.5229690000000 1.0
C      1  0.5916100000000  0.4743250000000  0.5108290000000 1.0
C      1  0.5590070000000  0.5153550000000  0.5279530000000 1.0
C      1  0.4398650000000  0.4797060000000  0.4904360000000 1.0
C      1  0.4927030000000  0.4905160000000  0.5303260000000 1.0
C      1  0.4801300000000  0.5589500000000  0.5198960000000 1.0
C      1  0.4753650000000  0.5982690000000  0.5143960000000 1.0
C      1  0.5161710000000  0.4728360000000  0.5285790000000 1.0
C      1  0.5119440000000  0.5534360000000  0.5689090000000 1.0
C      1  0.5631260000000  0.5910920000000  0.4823780000000 1.0
C      1  0.4924590000000  0.4261690000000  0.4883270000000 1.0
C      1  0.4297970000000  0.5506640000000  0.5711450000000 1.0
C      1  0.4621750000000  0.4235340000000  0.5734240000000 1.0
C      1  0.5758190000000  0.4501850000000  0.4166420000000 1.0
C      1  0.4693630000000  0.5067170000000  0.3873660000000 1.0
C      1  0.4370900000000  0.5236350000000  0.4177520000000 1.0
C      1  0.4921010000000  0.5275070000000  0.4831360000000 1.0
C      1  0.5386850000000  0.4844110000000  0.5140370000000 1.0
C      1  0.6063960000000  0.5189990000000  0.4440100000000 1.0
C      1  0.5339840000000  0.5144860000000  0.5047210000000 1.0
C      1  0.4224620000000  0.4242770000000  0.5041630000000 1.0
C      1  0.5145700000000  0.6066950000000  0.4867190000000 1.0
C      1  0.4960550000000  0.5029430000000  0.4362560000000 1.0
C      1  0.5615870000000  0.5161930000000  0.5779190000000 1.0
C      1  0.5286880000000  0.5449720000000  0.5404970000000 1.0
C      1  0.5655630000000  0.4820690000000  0.5302630000000 1.0
C      1  0.3923160000000  0.5054730000000  0.4935720000000 1.0
C      1  0.5613880000000  0.5706960000000  0.5061420000000 1.0
C      1  0.5377230000000  0.5986330000000  0.4727990000000 1.0
C      1  0.4136310000000  0.4522280000000  0.5210080000000 1.0
C      1  0.4259830000000  0.5716500000000  0.4946030000000 1.0
C      1  0.5251580000000  0.6207910000000  0.5296520000000 1.0
C      1  0.5395870000000  0.5099170000000  0.5553270000000 1.0
C      1  0.4332160000000  0.5386710000000  0.4996230000000 1.0
C      1  0.5953890000000  0.4579920000000  0.4607080000000 1.0
C      1  0.4900620000000  0.4272630000000  0.5359340000000 1.0
C      1  0.4494790000000  0.5544390000000  0.5218870000000 1.0
C      1  0.4010740000000  0.5471030000000  0.4448030000000 1.0
C      1  0.4217120000000  0.5831390000000  0.5220680000000 1.0
C      1  0.5479680000000  0.4361750000000  0.4543540000000 1.0
C      1  0.5617990000000  0.4165180000000  0.5668560000000 1.0
C      1  0.5766410000000  0.4440970000000  0.4439840000000 1.0
C      1  0.5604260000000  0.4059630000000  0.5025290000000 1.0
C      1  0.4862960000000  0.5308360000000  0.4271260000000 1.0
C      1  0.4252890000000  0.4592670000000  0.5752220000000 1.0
C      1  0.5887350000000  0.5098850000000  0.5656170000000 1.0
C      1  0.6181550000000  0.4925730000000  0.5003210000000 1.0
C      1  0.5811530000000  0.5856620000000  0.4623130000000 1.0
C      1  0.4566880000000  0.3896980000000  0.5412430000000 1.0
C      1  0.5346460000000  0.4282550000000  0.5238550000000 1.0
C      1  0.5031990000000  0.4179490000000  0.4416130000000 1.0
C      1  0.5336090000000  0.5051210000000  0.4729750000000 1.0
C      1  0.4695310000000  0.5913360000000  0.4847120000000 1.0
C      1  0.4732680000000  0.4695990000000  0.5488090000000 1.0
C      1  0.4811780000000  0.5798620000000  0.4483750000000 1.0
C      1  0.4927020000000  0.4555620000000  0.4565390000000 1.0
C      1  0.5174190000000  0.4893510000000  0.4169050000000 1.0
C      1  0.4628980000000  0.5245080000000  0.4080970000000 1.0
C      1  0.4392850000000  0.5060140000000  0.5904090000000 1.0
C      1  0.4633830000000  0.4391220000000  0.4781210000000 1.0
C      1  0.4251430000000  0.5237090000000  0.5668880000000 1.0
C      1  0.5167910000000  0.5577940000000  0.4757480000000 1.0
C      1  0.5704370000000  0.5607960000000  0.5362930000000 1.0
C      1  0.4592380000000  0.4390970000000  0.5433370000000 1.0
C      1  0.4537970000000  0.5643050000000  0.4771510000000 1.0
C      1  0.4074550000000  0.4756880000000  0.4999070000000 1.0
C      1  0.4210360000000  0.5040340000000  0.4754200000000 1.0
C      1  0.4540390000000  0.5657060000000  0.5761860000000 1.0
C      1  0.4493310000000  0.5797030000000  0.4473360000000 1.0
C      1  0.3674900000000  0.4559990000000  0.4683680000000 1.0
C      1  0.4661630000000  0.4691250000000  0.4729140000000 1.0
C      1  0.5475390000000  0.5565420000000  0.4612850000000 1.0
END
