TITL C-2848495-5024-606 -0.000652139064282846 125000 -763.56411885462 0 0 139 (C1) n - 1
REM
REM in /home/bkarasulu/work/CARBON/AIRSS/Generating-Clusters/AIREBO/with-SteepDescent/Only-C1/SD-CG-opt/Try1-1.4A-POS3A/HFTN-CG
REM
REM
REM
REM
REM
REM ./C.cell (11c1c37f851c82e70ff6c80c92926a4b)
REM
REM compiler GCC version 9.2.1 20190827 (Red Hat 9.2.1-1)
REM options -cpp -mtune=generic -march=x86-64 -g -O0 -fpre-include=/usr/include/finclude/math-vector-fortran.h
REM seed -1311174726 -1414681754 -618600663 -1932338934 -1440794723 566609982 851588439 2080678620 -1096023867 685885561 461718124 -2130345954 -447597523 -28060231 -97774525 -854386544 1195253912 272615584 1144578056 -1809760512 1524899618 353759232 -1907064438 -1788944370 -120903080 -793627320 1474106858 -2004964577 1290634426 1523186833 -1284255082 -874831514 1732365818
REM
CELL 1.54180   50.00000   50.00000   50.00000   90.00000   90.00000   90.00000
LATT -1
SFAC C  
C      1  0.5926290000000  0.4966660000000  0.4646900000000 1.0
C      1  0.4385480000000  0.4696660000000  0.5484250000000 1.0
C      1  0.5517290000000  0.4711820000000  0.4555500000000 1.0
C      1  0.5939290000000  0.4748430000000  0.4911230000000 1.0
C      1  0.5504880000000  0.5374020000000  0.4342270000000 1.0
C      1  0.4096900000000  0.4370490000000  0.4731470000000 1.0
C      1  0.4877530000000  0.5590540000000  0.5629290000000 1.0
C      1  0.5544840000000  0.5396950000000  0.5086520000000 1.0
C      1  0.4424830000000  0.5263260000000  0.5667030000000 1.0
C      1  0.4203600000000  0.5204480000000  0.4356150000000 1.0
C      1  0.5227900000000  0.4405690000000  0.5445020000000 1.0
C      1  0.4463590000000  0.4512090000000  0.4662310000000 1.0
C      1  0.5213020000000  0.4668310000000  0.4521480000000 1.0
C      1  0.5153330000000  0.5218250000000  0.5412900000000 1.0
C      1  0.5878480000000  0.5275210000000  0.4778740000000 1.0
C      1  0.4848280000000  0.5480800000000  0.4062640000000 1.0
C      1  0.4448990000000  0.4445020000000  0.4329300000000 1.0
C      1  0.4267580000000  0.4403810000000  0.5023860000000 1.0
C      1  0.5115460000000  0.5405820000000  0.4217170000000 1.0
C      1  0.5893010000000  0.5197360000000  0.5810670000000 1.0
C      1  0.5573530000000  0.4203490000000  0.4841040000000 1.0
C      1  0.4878050000000  0.4236530000000  0.4796770000000 1.0
C      1  0.4760020000000  0.5641820000000  0.5115010000000 1.0
C      1  0.4293630000000  0.4159170000000  0.5258760000000 1.0
C      1  0.4580550000000  0.4176560000000  0.5441340000000 1.0
C      1  0.4385550000000  0.5425660000000  0.4347850000000 1.0
C      1  0.4379740000000  0.4825750000000  0.4763430000000 1.0
C      1  0.5288140000000  0.5821310000000  0.5052990000000 1.0
C      1  0.4820340000000  0.5249450000000  0.4634570000000 1.0
C      1  0.4833980000000  0.4714340000000  0.4107660000000 1.0
C      1  0.5768350000000  0.5210320000000  0.5494540000000 1.0
C      1  0.5436150000000  0.5814030000000  0.5359170000000 1.0
C      1  0.4624730000000  0.5404270000000  0.4186170000000 1.0
C      1  0.4342690000000  0.4931400000000  0.5300080000000 1.0
C      1  0.4497690000000  0.5820420000000  0.5071230000000 1.0
C      1  0.4196840000000  0.4473320000000  0.5349200000000 1.0
C      1  0.4589310000000  0.5339840000000  0.5929080000000 1.0
C      1  0.4748310000000  0.4602240000000  0.5131130000000 1.0
C      1  0.4054050000000  0.4963960000000  0.5184100000000 1.0
C      1  0.4017330000000  0.5515800000000  0.5255950000000 1.0
C      1  0.5636530000000  0.4824340000000  0.5657560000000 1.0
C      1  0.4002620000000  0.5230170000000  0.5110610000000 1.0
C      1  0.5272890000000  0.5490880000000  0.4999290000000 1.0
C      1  0.5556950000000  0.4941590000000  0.4795080000000 1.0
C      1  0.5654110000000  0.5035810000000  0.5836770000000 1.0
C      1  0.4138300000000  0.5286240000000  0.4852900000000 1.0
C      1  0.4822220000000  0.4540880000000  0.5761640000000 1.0
C      1  0.4180310000000  0.4858600000000  0.4418490000000 1.0
C      1  0.4789710000000  0.5836380000000  0.5463000000000 1.0
C      1  0.5983840000000  0.5447750000000  0.5052140000000 1.0
C      1  0.5937100000000  0.5054120000000  0.5031080000000 1.0
C      1  0.5074640000000  0.5125400000000  0.4042170000000 1.0
C      1  0.5612450000000  0.5819130000000  0.4950690000000 1.0
C      1  0.4726230000000  0.5121410000000  0.5220490000000 1.0
C      1  0.4786140000000  0.4312930000000  0.4497370000000 1.0
C      1  0.5072030000000  0.5283380000000  0.5939590000000 1.0
C      1  0.4553590000000  0.4661480000000  0.4143570000000 1.0
C      1  0.5735980000000  0.4913340000000  0.4441200000000 1.0
C      1  0.4931680000000  0.6006990000000  0.4932350000000 1.0
C      1  0.5738840000000  0.5602160000000  0.5086000000000 1.0
C      1  0.4661400000000  0.4858160000000  0.4582450000000 1.0
C      1  0.5335970000000  0.4210950000000  0.5662530000000 1.0
C      1  0.5579090000000  0.5410940000000  0.5689670000000 1.0
C      1  0.5278790000000  0.4841740000000  0.5060130000000 1.0
C      1  0.5100560000000  0.3983580000000  0.4750640000000 1.0
C      1  0.4436360000000  0.5591490000000  0.4605450000000 1.0
C      1  0.5315790000000  0.5400030000000  0.4699140000000 1.0
C      1  0.5608050000000  0.5068240000000  0.4238600000000 1.0
C      1  0.5057070000000  0.5351720000000  0.5127260000000 1.0
C      1  0.5407880000000  0.4327460000000  0.4594850000000 1.0
C      1  0.4163620000000  0.4727180000000  0.5006760000000 1.0
C      1  0.4517760000000  0.5889590000000  0.5462170000000 1.0
C      1  0.4812980000000  0.5419570000000  0.5359150000000 1.0
C      1  0.5620330000000  0.5117480000000  0.5079120000000 1.0
C      1  0.5745290000000  0.4471810000000  0.4950520000000 1.0
C      1  0.5578260000000  0.4960520000000  0.5363350000000 1.0
C      1  0.5099370000000  0.4385910000000  0.5214830000000 1.0
C      1  0.5647430000000  0.5440170000000  0.4634730000000 1.0
C      1  0.5387520000000  0.5193880000000  0.5845210000000 1.0
C      1  0.4167390000000  0.4552520000000  0.4485490000000 1.0
C      1  0.4671510000000  0.5786410000000  0.4620580000000 1.0
C      1  0.5559390000000  0.4719660000000  0.5026510000000 1.0
C      1  0.5627590000000  0.5755790000000  0.4680820000000 1.0
C      1  0.5547950000000  0.4546950000000  0.5641100000000 1.0
C      1  0.5344770000000  0.3982790000000  0.4803280000000 1.0
C      1  0.5412660000000  0.5607970000000  0.5557940000000 1.0
C      1  0.4720610000000  0.4039160000000  0.5203820000000 1.0
C      1  0.4336400000000  0.5433140000000  0.5195570000000 1.0
C      1  0.4592180000000  0.4365380000000  0.4929300000000 1.0
C      1  0.5242200000000  0.4906240000000  0.5365250000000 1.0
C      1  0.4949810000000  0.4174870000000  0.5118090000000 1.0
C      1  0.5102870000000  0.4358060000000  0.5820340000000 1.0
C      1  0.4535250000000  0.4469820000000  0.5312450000000 1.0
C      1  0.4540200000000  0.4032340000000  0.4975060000000 1.0
C      1  0.4522790000000  0.4944240000000  0.5028350000000 1.0
C      1  0.4644210000000  0.5121890000000  0.4372390000000 1.0
C      1  0.4438800000000  0.5423210000000  0.4893510000000 1.0
C      1  0.5262800000000  0.4680140000000  0.5579310000000 1.0
C      1  0.5173830000000  0.5911760000000  0.4728820000000 1.0
C      1  0.5414250000000  0.5850100000000  0.4524810000000 1.0
C      1  0.5056430000000  0.4639140000000  0.4992030000000 1.0
C      1  0.4913030000000  0.4848530000000  0.5301060000000 1.0
C      1  0.5157830000000  0.5496170000000  0.5544670000000 1.0
C      1  0.5180900000000  0.4965030000000  0.5988610000000 1.0
C      1  0.5149860000000  0.4435950000000  0.4752560000000 1.0
C      1  0.5099990000000  0.4702990000000  0.5837140000000 1.0
C      1  0.5855820000000  0.4501260000000  0.5392440000000 1.0
C      1  0.4440420000000  0.5220780000000  0.5377720000000 1.0
C      1  0.4272460000000  0.5740370000000  0.5296630000000 1.0
C      1  0.5315850000000  0.4924020000000  0.4141180000000 1.0
C      1  0.4878990000000  0.4604940000000  0.4514310000000 1.0
C      1  0.5281540000000  0.5109330000000  0.4870090000000 1.0
C      1  0.4177330000000  0.5076890000000  0.4655500000000 1.0
C      1  0.4556750000000  0.4717630000000  0.5735240000000 1.0
C      1  0.4121590000000  0.5592930000000  0.4723960000000 1.0
C      1  0.4426230000000  0.4904360000000  0.4228130000000 1.0
C      1  0.5094440000000  0.5075060000000  0.4628830000000 1.0
C      1  0.5627030000000  0.4460540000000  0.4371550000000 1.0
C      1  0.5051970000000  0.5066660000000  0.5678370000000 1.0
C      1  0.5322100000000  0.4381730000000  0.4266510000000 1.0
C      1  0.5996090000000  0.5249410000000  0.5290010000000 1.0
C      1  0.5254780000000  0.5148850000000  0.4390920000000 1.0
C      1  0.4722220000000  0.4228130000000  0.5711120000000 1.0
C      1  0.5429930000000  0.5697940000000  0.4288140000000 1.0
C      1  0.4570580000000  0.5021670000000  0.5834480000000 1.0
C      1  0.4931200000000  0.4833830000000  0.4751440000000 1.0
C      1  0.5688030000000  0.4221230000000  0.5161350000000 1.0
C      1  0.5050870000000  0.5460080000000  0.4533160000000 1.0
C      1  0.4989830000000  0.5870260000000  0.5208750000000 1.0
C      1  0.4838870000000  0.5463100000000  0.5896650000000 1.0
C      1  0.5134310000000  0.4640830000000  0.4193330000000 1.0
C      1  0.4803850000000  0.4914860000000  0.5613070000000 1.0
C      1  0.5805080000000  0.4739420000000  0.5239330000000 1.0
C      1  0.5606440000000  0.4281620000000  0.5464480000000 1.0
C      1  0.4663290000000  0.5943470000000  0.4854530000000 1.0
C      1  0.4837400000000  0.4999870000000  0.4120570000000 1.0
C      1  0.4948480000000  0.5735290000000  0.4577890000000 1.0
C      1  0.4761880000000  0.5339750000000  0.4958790000000 1.0
C      1  0.4619660000000  0.4174900000000  0.4299270000000 1.0
END
