TITL C-2847957-7266-372 -0.00239993358316469 125000 -905.783221464329 0 0 172 (C1) n - 1
REM
REM in /home/bkarasulu/work/CARBON/AIRSS/Generating-Clusters/AIREBO/with-SteepDescent/Only-C1/SD-CG-opt/Try1-1.4A-POS3A/HFTN-CG
REM
REM
REM
REM
REM
REM ./C.cell (11c1c37f851c82e70ff6c80c92926a4b)
REM
REM compiler GCC version 9.2.1 20190827 (Red Hat 9.2.1-1)
REM options -cpp -mtune=generic -march=x86-64 -g -O0 -fpre-include=/usr/include/finclude/math-vector-fortran.h
REM seed 1690103141 118958866 -1487090369 -1610244160 -1102508823 206400633 1578648386 1519181907 -367332024 329152715 207187136 -258353825 884602264 1169708211 1369147822 -252004297 517912395 -1259386897 889428505 -1479914111 -1362871079 -1933515493 -943585485 -980052684 -594727826 -773780258 1930038838 -591143691 1370062442 55958799 186953267 -631327034 -1277844462
REM
CELL 1.54180   50.00000   50.00000   50.00000   90.00000   90.00000   90.00000
LATT -1
SFAC C  
C      1  0.4884790000000  0.4767230000000  0.5576830000000 1.0
C      1  0.5125720000000  0.5636080000000  0.4217960000000 1.0
C      1  0.5608350000000  0.4143050000000  0.4920820000000 1.0
C      1  0.5406780000000  0.4831450000000  0.3922000000000 1.0
C      1  0.4541880000000  0.5113910000000  0.4688340000000 1.0
C      1  0.6120300000000  0.5023550000000  0.4759580000000 1.0
C      1  0.5914140000000  0.5193080000000  0.5275490000000 1.0
C      1  0.4298650000000  0.4748800000000  0.5443010000000 1.0
C      1  0.4228490000000  0.5573430000000  0.4501310000000 1.0
C      1  0.4877110000000  0.5251520000000  0.6090040000000 1.0
C      1  0.5823880000000  0.4858330000000  0.4737310000000 1.0
C      1  0.4233380000000  0.5575440000000  0.4984370000000 1.0
C      1  0.4113730000000  0.4675760000000  0.4458970000000 1.0
C      1  0.4943680000000  0.5859170000000  0.4697150000000 1.0
C      1  0.5113050000000  0.5097910000000  0.6032560000000 1.0
C      1  0.5362570000000  0.5132070000000  0.4221650000000 1.0
C      1  0.5531840000000  0.4309690000000  0.5386520000000 1.0
C      1  0.4959120000000  0.5573680000000  0.4513030000000 1.0
C      1  0.4399800000000  0.5287780000000  0.4432910000000 1.0
C      1  0.4069150000000  0.4741910000000  0.5244920000000 1.0
C      1  0.4835870000000  0.4531340000000  0.5090680000000 1.0
C      1  0.5315530000000  0.5740350000000  0.4445770000000 1.0
C      1  0.5521940000000  0.5807370000000  0.5412150000000 1.0
C      1  0.4885740000000  0.3943700000000  0.5131250000000 1.0
C      1  0.4869360000000  0.5766180000000  0.4091640000000 1.0
C      1  0.5116610000000  0.3857690000000  0.4928560000000 1.0
C      1  0.4212470000000  0.4821430000000  0.5738040000000 1.0
C      1  0.5709060000000  0.5413000000000  0.4815510000000 1.0
C      1  0.5785740000000  0.4396610000000  0.5067700000000 1.0
C      1  0.5843910000000  0.4360300000000  0.5401040000000 1.0
C      1  0.4602420000000  0.5983900000000  0.4977860000000 1.0
C      1  0.5387450000000  0.5320790000000  0.5630330000000 1.0
C      1  0.5125420000000  0.4891100000000  0.3872390000000 1.0
C      1  0.5082950000000  0.4604360000000  0.3979410000000 1.0
C      1  0.4508770000000  0.5416680000000  0.4862850000000 1.0
C      1  0.4632280000000  0.5888390000000  0.4683270000000 1.0
C      1  0.5545250000000  0.4154520000000  0.4640440000000 1.0
C      1  0.5749290000000  0.5731460000000  0.4895110000000 1.0
C      1  0.4641210000000  0.5118050000000  0.6021560000000 1.0
C      1  0.4350980000000  0.5059650000000  0.4185380000000 1.0
C      1  0.4629270000000  0.5621510000000  0.4173910000000 1.0
C      1  0.4254310000000  0.5236970000000  0.5461530000000 1.0
C      1  0.4580110000000  0.4868930000000  0.5591680000000 1.0
C      1  0.5756960000000  0.5141300000000  0.4913660000000 1.0
C      1  0.4215910000000  0.5098350000000  0.5748580000000 1.0
C      1  0.4118180000000  0.4850120000000  0.4244390000000 1.0
C      1  0.5031650000000  0.6034260000000  0.5325480000000 1.0
C      1  0.4235090000000  0.4407200000000  0.4507870000000 1.0
C      1  0.5703840000000  0.4726390000000  0.5474330000000 1.0
C      1  0.4454460000000  0.4377910000000  0.5685090000000 1.0
C      1  0.5520690000000  0.5906490000000  0.4497230000000 1.0
C      1  0.5637750000000  0.5609770000000  0.5175060000000 1.0
C      1  0.5035860000000  0.5166760000000  0.3995140000000 1.0
C      1  0.5802060000000  0.4895460000000  0.4254380000000 1.0
C      1  0.5262560000000  0.5405680000000  0.4068710000000 1.0
C      1  0.4062960000000  0.5504940000000  0.5237460000000 1.0
C      1  0.5318880000000  0.5651180000000  0.5587760000000 1.0
C      1  0.4250160000000  0.4322040000000  0.4810740000000 1.0
C      1  0.5052740000000  0.4338930000000  0.5263450000000 1.0
C      1  0.6003250000000  0.4969100000000  0.5074170000000 1.0
C      1  0.5580540000000  0.5949330000000  0.4769470000000 1.0
C      1  0.4888910000000  0.5542430000000  0.5987780000000 1.0
C      1  0.5470760000000  0.4819030000000  0.4255740000000 1.0
C      1  0.5987660000000  0.4591070000000  0.5603860000000 1.0
C      1  0.5934790000000  0.4587840000000  0.4571460000000 1.0
C      1  0.4770340000000  0.5382240000000  0.5077450000000 1.0
C      1  0.5238580000000  0.5538040000000  0.4703380000000 1.0
C      1  0.4829800000000  0.4508220000000  0.4588200000000 1.0
C      1  0.4554450000000  0.5867620000000  0.5293910000000 1.0
C      1  0.4375930000000  0.5596510000000  0.5743800000000 1.0
C      1  0.5398850000000  0.4475770000000  0.5125700000000 1.0
C      1  0.5366710000000  0.6054810000000  0.4904300000000 1.0
C      1  0.4212590000000  0.5554820000000  0.5490200000000 1.0
C      1  0.5282610000000  0.5186500000000  0.4519480000000 1.0
C      1  0.5621020000000  0.5163690000000  0.5346790000000 1.0
C      1  0.4669820000000  0.4864300000000  0.5901490000000 1.0
C      1  0.4748010000000  0.4219320000000  0.4987060000000 1.0
C      1  0.4534310000000  0.4779890000000  0.4615280000000 1.0
C      1  0.5103140000000  0.4917070000000  0.5744800000000 1.0
C      1  0.4217790000000  0.4837340000000  0.4725420000000 1.0
C      1  0.5537310000000  0.4476440000000  0.4263970000000 1.0
C      1  0.5687150000000  0.4390280000000  0.4501650000000 1.0
C      1  0.4565860000000  0.4661360000000  0.5251710000000 1.0
C      1  0.4889650000000  0.6088570000000  0.5027850000000 1.0
C      1  0.5616560000000  0.4522630000000  0.4798840000000 1.0
C      1  0.3955940000000  0.4996240000000  0.4877400000000 1.0
C      1  0.5411100000000  0.4938320000000  0.5996350000000 1.0
C      1  0.4944580000000  0.5011450000000  0.5390140000000 1.0
C      1  0.4924430000000  0.4254510000000  0.5559350000000 1.0
C      1  0.4312270000000  0.5856900000000  0.5076860000000 1.0
C      1  0.5502790000000  0.5411330000000  0.4570890000000 1.0
C      1  0.5418960000000  0.4900920000000  0.4583850000000 1.0
C      1  0.5116070000000  0.3846860000000  0.5327340000000 1.0
C      1  0.4782860000000  0.4090270000000  0.4673990000000 1.0
C      1  0.3995280000000  0.5211620000000  0.5275880000000 1.0
C      1  0.5140670000000  0.5716270000000  0.5839410000000 1.0
C      1  0.4934600000000  0.4358110000000  0.3957870000000 1.0
C      1  0.4668650000000  0.4188880000000  0.4417080000000 1.0
C      1  0.4744500000000  0.5306150000000  0.4102010000000 1.0
C      1  0.5054540000000  0.3965560000000  0.4671540000000 1.0
C      1  0.3956150000000  0.4975550000000  0.5148860000000 1.0
C      1  0.5093390000000  0.6156780000000  0.4765950000000 1.0
C      1  0.5076610000000  0.5382560000000  0.5753620000000 1.0
C      1  0.4265340000000  0.4244110000000  0.5141420000000 1.0
C      1  0.4561200000000  0.5314720000000  0.5337020000000 1.0
C      1  0.4639970000000  0.5173450000000  0.5626070000000 1.0
C      1  0.5370890000000  0.6051680000000  0.5342420000000 1.0
C      1  0.4463610000000  0.4355860000000  0.5360950000000 1.0
C      1  0.4068040000000  0.5530570000000  0.4730240000000 1.0
C      1  0.5202000000000  0.4375010000000  0.4757330000000 1.0
C      1  0.5141460000000  0.4680430000000  0.5079880000000 1.0
C      1  0.5147380000000  0.5723560000000  0.5301920000000 1.0
C      1  0.4599100000000  0.4901230000000  0.4140850000000 1.0
C      1  0.5130610000000  0.4016720000000  0.5600500000000 1.0
C      1  0.4836060000000  0.5202560000000  0.4796380000000 1.0
C      1  0.4417050000000  0.5376780000000  0.4082070000000 1.0
C      1  0.4085440000000  0.4503940000000  0.5048690000000 1.0
C      1  0.5117360000000  0.5838520000000  0.4991070000000 1.0
C      1  0.5294840000000  0.4074640000000  0.4515320000000 1.0
C      1  0.4534820000000  0.4501710000000  0.4419210000000 1.0
C      1  0.4828700000000  0.5733420000000  0.5712780000000 1.0
C      1  0.5463690000000  0.4869300000000  0.5281540000000 1.0
C      1  0.5231680000000  0.4225880000000  0.5023760000000 1.0
C      1  0.5082260000000  0.4330740000000  0.4445210000000 1.0
C      1  0.3945090000000  0.5271350000000  0.4719570000000 1.0
C      1  0.5393180000000  0.4035780000000  0.5383470000000 1.0
C      1  0.4440560000000  0.5304560000000  0.5859260000000 1.0
C      1  0.5125020000000  0.4758450000000  0.6047500000000 1.0
C      1  0.4138160000000  0.5114740000000  0.4545650000000 1.0
C      1  0.4603900000000  0.5615730000000  0.5492180000000 1.0
C      1  0.4826400000000  0.4628710000000  0.5946900000000 1.0
C      1  0.5334150000000  0.4585430000000  0.5417000000000 1.0
C      1  0.5309000000000  0.4663010000000  0.4784470000000 1.0
C      1  0.4781690000000  0.5969740000000  0.5500080000000 1.0
C      1  0.5802160000000  0.5358390000000  0.4431860000000 1.0
C      1  0.5028730000000  0.4829630000000  0.4714320000000 1.0
C      1  0.5099190000000  0.4539510000000  0.5613290000000 1.0
C      1  0.4724090000000  0.4398640000000  0.5793350000000 1.0
C      1  0.4586550000000  0.4998770000000  0.5213670000000 1.0
C      1  0.5521270000000  0.4743850000000  0.5760680000000 1.0
C      1  0.5233200000000  0.5340540000000  0.4928320000000 1.0
C      1  0.4867320000000  0.5047580000000  0.4285640000000 1.0
C      1  0.5772960000000  0.5219060000000  0.5645880000000 1.0
C      1  0.5336810000000  0.4517140000000  0.5808940000000 1.0
C      1  0.4971240000000  0.4768490000000  0.4418600000000 1.0
C      1  0.4239060000000  0.4530150000000  0.5797090000000 1.0
C      1  0.4628040000000  0.5509970000000  0.4557620000000 1.0
C      1  0.4376340000000  0.4661110000000  0.4969300000000 1.0
C      1  0.5737900000000  0.5518420000000  0.5486910000000 1.0
C      1  0.4927870000000  0.5298400000000  0.5507790000000 1.0
C      1  0.4471870000000  0.5778940000000  0.4426010000000 1.0
C      1  0.4700750000000  0.4164160000000  0.5319510000000 1.0
C      1  0.5401000000000  0.3946770000000  0.5066240000000 1.0
C      1  0.5565940000000  0.5213720000000  0.5899250000000 1.0
C      1  0.5408520000000  0.5390540000000  0.5298100000000 1.0
C      1  0.4571560000000  0.4433440000000  0.4807600000000 1.0
C      1  0.5647880000000  0.4768140000000  0.5014130000000 1.0
C      1  0.5445520000000  0.5081910000000  0.4867320000000 1.0
C      1  0.5935610000000  0.5589530000000  0.4644950000000 1.0
C      1  0.4989740000000  0.5235650000000  0.4533000000000 1.0
C      1  0.4891040000000  0.5002130000000  0.5062410000000 1.0
C      1  0.4881430000000  0.4220560000000  0.4202390000000 1.0
C      1  0.5077340000000  0.5409070000000  0.5222700000000 1.0
C      1  0.5356620000000  0.4985040000000  0.5586430000000 1.0
C      1  0.5908430000000  0.4685890000000  0.5198430000000 1.0
C      1  0.5893270000000  0.5069950000000  0.4480200000000 1.0
C      1  0.4762730000000  0.4776960000000  0.4867220000000 1.0
C      1  0.5936920000000  0.4931400000000  0.5613270000000 1.0
C      1  0.5225370000000  0.4989820000000  0.5079950000000 1.0
C      1  0.5217720000000  0.4592320000000  0.4275100000000 1.0
C      1  0.5584870000000  0.5375910000000  0.4181160000000 1.0
C      1  0.4572610000000  0.4628740000000  0.4136420000000 1.0
END
