TITL C-2848508-1660-680 -5.84410758628846e-05 125000 -460.532862795029 0 0 83 (C1) n - 1
REM
REM in /home/bkarasulu/work/CARBON/AIRSS/Generating-Clusters/AIREBO/with-SteepDescent/Only-C1/SD-CG-opt/Try1-1.4A-POS3A/HFTN-CG
REM
REM
REM
REM
REM
REM ./C.cell (11c1c37f851c82e70ff6c80c92926a4b)
REM
REM compiler GCC version 9.2.1 20190827 (Red Hat 9.2.1-1)
REM options -cpp -mtune=generic -march=x86-64 -g -O0 -fpre-include=/usr/include/finclude/math-vector-fortran.h
REM seed -1472144702 244441278 -1237363989 585939027 53995735 1929247456 1015826711 162007615 1981676755 -208969164 -973535036 1986537272 1578450401 -689289846 -1091773352 -618196109 -687605797 471800073 92162140 -1705380692 1302037709 329563045 1760103705 42062913 1196786960 -818119591 560693331 -1690199216 1458608502 1653780658 -5372596 -1377166515 111354471
REM
CELL 1.54180   50.00000   50.00000   50.00000   90.00000   90.00000   90.00000
LATT -1
SFAC C  
C      1  0.4308050000000  0.5621980000000  0.5154120000000 1.0
C      1  0.4492990000000  0.5322690000000  0.4972080000000 1.0
C      1  0.4383580000000  0.4600170000000  0.4648530000000 1.0
C      1  0.4606140000000  0.4836010000000  0.4681800000000 1.0
C      1  0.4733020000000  0.5072340000000  0.5428280000000 1.0
C      1  0.4976570000000  0.5038710000000  0.5116330000000 1.0
C      1  0.5585480000000  0.4480780000000  0.5195420000000 1.0
C      1  0.5377660000000  0.4903250000000  0.5751100000000 1.0
C      1  0.5415900000000  0.5344680000000  0.4580270000000 1.0
C      1  0.4953980000000  0.5543590000000  0.4529570000000 1.0
C      1  0.5835680000000  0.4683340000000  0.4813390000000 1.0
C      1  0.4969350000000  0.5788590000000  0.4647140000000 1.0
C      1  0.5663870000000  0.5115360000000  0.4646100000000 1.0
C      1  0.5283880000000  0.4780260000000  0.4743330000000 1.0
C      1  0.4284380000000  0.4895840000000  0.5084520000000 1.0
C      1  0.4928450000000  0.4435500000000  0.5537380000000 1.0
C      1  0.4625020000000  0.5556300000000  0.5164420000000 1.0
C      1  0.5473680000000  0.4487040000000  0.5444270000000 1.0
C      1  0.5227360000000  0.4723740000000  0.5237120000000 1.0
C      1  0.5440370000000  0.4323400000000  0.4998700000000 1.0
C      1  0.5426020000000  0.4864240000000  0.4445530000000 1.0
C      1  0.5081560000000  0.5345050000000  0.5012680000000 1.0
C      1  0.4485250000000  0.5270290000000  0.4335260000000 1.0
C      1  0.4885210000000  0.5103610000000  0.4582350000000 1.0
C      1  0.4799890000000  0.4382780000000  0.5241330000000 1.0
C      1  0.4389580000000  0.5284460000000  0.4652230000000 1.0
C      1  0.5326430000000  0.5173390000000  0.5659370000000 1.0
C      1  0.5201460000000  0.4215620000000  0.5115600000000 1.0
C      1  0.5713030000000  0.5358400000000  0.4846900000000 1.0
C      1  0.4919870000000  0.4759400000000  0.5640700000000 1.0
C      1  0.4170180000000  0.5123950000000  0.4858770000000 1.0
C      1  0.5191960000000  0.5906690000000  0.4835050000000 1.0
C      1  0.4440050000000  0.4705760000000  0.5567320000000 1.0
C      1  0.4719940000000  0.5357150000000  0.4646570000000 1.0
C      1  0.4634940000000  0.4831550000000  0.5731030000000 1.0
C      1  0.5366800000000  0.5006560000000  0.5365690000000 1.0
C      1  0.5037090000000  0.4999250000000  0.5449290000000 1.0
C      1  0.5032910000000  0.5121160000000  0.4276190000000 1.0
C      1  0.5146530000000  0.5675250000000  0.5512310000000 1.0
C      1  0.5775640000000  0.5293820000000  0.5108630000000 1.0
C      1  0.5134130000000  0.4493990000000  0.4473500000000 1.0
C      1  0.4898340000000  0.5826590000000  0.4979610000000 1.0
C      1  0.4910800000000  0.5773070000000  0.5296220000000 1.0
C      1  0.5318500000000  0.5176980000000  0.4834410000000 1.0
C      1  0.4956280000000  0.4356050000000  0.4957250000000 1.0
C      1  0.5568510000000  0.5596550000000  0.4735400000000 1.0
C      1  0.4839250000000  0.4552810000000  0.4522970000000 1.0
C      1  0.4551160000000  0.5019220000000  0.4913570000000 1.0
C      1  0.4766270000000  0.4850810000000  0.4399480000000 1.0
C      1  0.5755560000000  0.4930530000000  0.4396870000000 1.0
C      1  0.5050180000000  0.5010580000000  0.4799370000000 1.0
C      1  0.5160190000000  0.5385380000000  0.4409770000000 1.0
C      1  0.4545610000000  0.5126050000000  0.5706880000000 1.0
C      1  0.4314840000000  0.4887090000000  0.5386690000000 1.0
C      1  0.4660750000000  0.5390860000000  0.5433970000000 1.0
C      1  0.4673830000000  0.4894330000000  0.5174390000000 1.0
C      1  0.5222540000000  0.4898440000000  0.4219840000000 1.0
C      1  0.4508590000000  0.4403050000000  0.4970470000000 1.0
C      1  0.5296620000000  0.5543230000000  0.5102830000000 1.0
C      1  0.4695690000000  0.5124170000000  0.4232470000000 1.0
C      1  0.5205950000000  0.4608560000000  0.4231340000000 1.0
C      1  0.4865680000000  0.5513460000000  0.5616960000000 1.0
C      1  0.4734670000000  0.4584610000000  0.4838900000000 1.0
C      1  0.5671550000000  0.5015310000000  0.5273580000000 1.0
C      1  0.4556860000000  0.4366660000000  0.4558280000000 1.0
C      1  0.4185220000000  0.4794600000000  0.4775430000000 1.0
C      1  0.5540470000000  0.4936760000000  0.4904220000000 1.0
C      1  0.5163350000000  0.5382500000000  0.5671710000000 1.0
C      1  0.5126730000000  0.4206380000000  0.5388480000000 1.0
C      1  0.5383650000000  0.4457820000000  0.4702050000000 1.0
C      1  0.5711460000000  0.4742360000000  0.5101900000000 1.0
C      1  0.5597790000000  0.5333020000000  0.5373610000000 1.0
C      1  0.4765510000000  0.4204780000000  0.4719690000000 1.0
C      1  0.5241930000000  0.4679240000000  0.5573960000000 1.0
C      1  0.4366340000000  0.5220540000000  0.5429100000000 1.0
C      1  0.4576450000000  0.4618850000000  0.5203400000000 1.0
C      1  0.5636590000000  0.4651060000000  0.4606210000000 1.0
C      1  0.4565400000000  0.4428050000000  0.5484610000000 1.0
C      1  0.4843170000000  0.5503030000000  0.4911350000000 1.0
C      1  0.5144990000000  0.4634410000000  0.5007640000000 1.0
C      1  0.5388050000000  0.5507450000000  0.5365900000000 1.0
C      1  0.4197950000000  0.5313060000000  0.5148400000000 1.0
C      1  0.5392840000000  0.5725750000000  0.4910670000000 1.0
END
