TITL C-2847949-8115-108 -0.00200301431783145 125000 -917.118063459724 0 0 170 (C1) n - 1
REM
REM in /home/bkarasulu/work/CARBON/AIRSS/Generating-Clusters/AIREBO/with-SteepDescent/Only-C1/SD-CG-opt/Try1-1.4A-POS3A/HFTN-CG
REM
REM
REM
REM
REM
REM ./C.cell (11c1c37f851c82e70ff6c80c92926a4b)
REM
REM compiler GCC version 9.2.1 20190827 (Red Hat 9.2.1-1)
REM options -cpp -mtune=generic -march=x86-64 -g -O0 -fpre-include=/usr/include/finclude/math-vector-fortran.h
REM seed 881413967 -1768380019 -1089359729 -1527676632 -1318427252 830606358 -2047518111 -1612830838 548924879 -877837890 165777775 1244356844 -1809381549 1234418390 -476218250 1371508152 -559837804 578257504 -1942702146 -464704995 1877471230 -1411935902 -436763434 -1797033038 -366364230 396311285 -2072073479 -144673669 -476053025 -89369860 -824774427 543148074 -1574091827
REM
CELL 1.54180   50.00000   50.00000   50.00000   90.00000   90.00000   90.00000
LATT -1
SFAC C  
C      1  0.4902030000000  0.4425240000000  0.5665600000000 1.0
C      1  0.5524110000000  0.5939670000000  0.4914980000000 1.0
C      1  0.5756890000000  0.4452310000000  0.5013960000000 1.0
C      1  0.5936320000000  0.4783980000000  0.5146600000000 1.0
C      1  0.4382170000000  0.4066130000000  0.5039300000000 1.0
C      1  0.5683130000000  0.4948710000000  0.4651640000000 1.0
C      1  0.5201410000000  0.4725460000000  0.4272360000000 1.0
C      1  0.4370490000000  0.4437800000000  0.5426280000000 1.0
C      1  0.4734410000000  0.5395370000000  0.5142040000000 1.0
C      1  0.4436760000000  0.4849420000000  0.4933610000000 1.0
C      1  0.5181850000000  0.4583940000000  0.4896970000000 1.0
C      1  0.5816650000000  0.3979040000000  0.5278450000000 1.0
C      1  0.4802630000000  0.4231040000000  0.4196280000000 1.0
C      1  0.5672210000000  0.4263300000000  0.5352250000000 1.0
C      1  0.4658570000000  0.5832590000000  0.5751640000000 1.0
C      1  0.5509940000000  0.4810140000000  0.5870800000000 1.0
C      1  0.4485880000000  0.4760710000000  0.5782590000000 1.0
C      1  0.5606760000000  0.5332860000000  0.5789990000000 1.0
C      1  0.4947990000000  0.4622120000000  0.4474240000000 1.0
C      1  0.5147310000000  0.4150950000000  0.5482520000000 1.0
C      1  0.4646020000000  0.4621110000000  0.4846390000000 1.0
C      1  0.5837020000000  0.4548120000000  0.4387210000000 1.0
C      1  0.5231700000000  0.5340500000000  0.5246150000000 1.0
C      1  0.4209460000000  0.4605900000000  0.4864610000000 1.0
C      1  0.4956870000000  0.4314110000000  0.4487700000000 1.0
C      1  0.3988030000000  0.4544270000000  0.5392570000000 1.0
C      1  0.5326500000000  0.4338200000000  0.4259870000000 1.0
C      1  0.5648840000000  0.4379830000000  0.4484410000000 1.0
C      1  0.4315880000000  0.5731930000000  0.4847930000000 1.0
C      1  0.5884460000000  0.4509990000000  0.5322890000000 1.0
C      1  0.5537050000000  0.5628660000000  0.4819080000000 1.0
C      1  0.4404660000000  0.4856840000000  0.4326200000000 1.0
C      1  0.4536700000000  0.5940520000000  0.4844570000000 1.0
C      1  0.4486690000000  0.5684740000000  0.5529680000000 1.0
C      1  0.5591630000000  0.5787710000000  0.5180370000000 1.0
C      1  0.4779180000000  0.4464990000000  0.4025930000000 1.0
C      1  0.6082820000000  0.4888360000000  0.4943090000000 1.0
C      1  0.4860030000000  0.5161540000000  0.4845220000000 1.0
C      1  0.4945360000000  0.5735620000000  0.4174760000000 1.0
C      1  0.4108920000000  0.5749420000000  0.5094890000000 1.0
C      1  0.4639990000000  0.5932340000000  0.5106600000000 1.0
C      1  0.5027240000000  0.6359820000000  0.5212860000000 1.0
C      1  0.5317240000000  0.5005610000000  0.4107170000000 1.0
C      1  0.4633240000000  0.4374700000000  0.5037140000000 1.0
C      1  0.4241200000000  0.5041170000000  0.5237070000000 1.0
C      1  0.4236710000000  0.5515510000000  0.4633900000000 1.0
C      1  0.5223280000000  0.5289450000000  0.4197450000000 1.0
C      1  0.4505380000000  0.5177980000000  0.5401800000000 1.0
C      1  0.5176110000000  0.4773340000000  0.5910210000000 1.0
C      1  0.5410990000000  0.4354100000000  0.5445990000000 1.0
C      1  0.5356980000000  0.4549770000000  0.4524300000000 1.0
C      1  0.4627890000000  0.4973340000000  0.5612130000000 1.0
C      1  0.4667960000000  0.5447780000000  0.5437640000000 1.0
C      1  0.4662870000000  0.4635050000000  0.5244060000000 1.0
C      1  0.4913650000000  0.4752590000000  0.4946190000000 1.0
C      1  0.5088830000000  0.5258630000000  0.5933980000000 1.0
C      1  0.4871790000000  0.3970690000000  0.4725270000000 1.0
C      1  0.5269160000000  0.5453180000000  0.4828320000000 1.0
C      1  0.4883000000000  0.5327830000000  0.5672250000000 1.0
C      1  0.4666790000000  0.5066150000000  0.5063340000000 1.0
C      1  0.5038410000000  0.5097750000000  0.5497040000000 1.0
C      1  0.5819570000000  0.4824750000000  0.5857940000000 1.0
C      1  0.5635310000000  0.4752600000000  0.4886820000000 1.0
C      1  0.4918970000000  0.5410470000000  0.4105250000000 1.0
C      1  0.5032830000000  0.5536830000000  0.5060100000000 1.0
C      1  0.4722900000000  0.5384760000000  0.6034270000000 1.0
C      1  0.5797590000000  0.5263180000000  0.5569720000000 1.0
C      1  0.4869000000000  0.5789850000000  0.5487560000000 1.0
C      1  0.4475170000000  0.5294150000000  0.4535220000000 1.0
C      1  0.5142590000000  0.5015960000000  0.4542160000000 1.0
C      1  0.5253810000000  0.5942900000000  0.4551280000000 1.0
C      1  0.5697160000000  0.5341400000000  0.4593650000000 1.0
C      1  0.4479380000000  0.5462730000000  0.4946250000000 1.0
C      1  0.4708090000000  0.5469100000000  0.4353400000000 1.0
C      1  0.4660950000000  0.5067410000000  0.4251100000000 1.0
C      1  0.4803050000000  0.4922670000000  0.5325100000000 1.0
C      1  0.5487610000000  0.4746070000000  0.5461530000000 1.0
C      1  0.5046330000000  0.4221690000000  0.4769820000000 1.0
C      1  0.4954150000000  0.4959200000000  0.4264750000000 1.0
C      1  0.5731260000000  0.5154060000000  0.4311970000000 1.0
C      1  0.4992980000000  0.6112980000000  0.4662270000000 1.0
C      1  0.5689900000000  0.5708960000000  0.5468110000000 1.0
C      1  0.5199110000000  0.4301610000000  0.5775720000000 1.0
C      1  0.3992750000000  0.4599400000000  0.5129060000000 1.0
C      1  0.4852090000000  0.4899110000000  0.4646750000000 1.0
C      1  0.5116470000000  0.6077150000000  0.5147160000000 1.0
C      1  0.5129150000000  0.5646390000000  0.4440750000000 1.0
C      1  0.4572320000000  0.5250440000000  0.5787570000000 1.0
C      1  0.4003680000000  0.4889910000000  0.5050260000000 1.0
C      1  0.5947840000000  0.5017050000000  0.5629740000000 1.0
C      1  0.5950320000000  0.5061800000000  0.4777220000000 1.0
C      1  0.5071370000000  0.4761730000000  0.5233370000000 1.0
C      1  0.5238330000000  0.5928620000000  0.5399430000000 1.0
C      1  0.5202420000000  0.4838930000000  0.5601920000000 1.0
C      1  0.4726960000000  0.4832190000000  0.5972840000000 1.0
C      1  0.4842120000000  0.3933330000000  0.4451190000000 1.0
C      1  0.5242140000000  0.6050110000000  0.4876750000000 1.0
C      1  0.4875120000000  0.4275590000000  0.5352580000000 1.0
C      1  0.4207650000000  0.4678180000000  0.5605430000000 1.0
C      1  0.5186140000000  0.5322670000000  0.4527720000000 1.0
C      1  0.5086270000000  0.3973630000000  0.5206950000000 1.0
C      1  0.4608550000000  0.5015530000000  0.3858980000000 1.0
C      1  0.4417790000000  0.4524240000000  0.4356470000000 1.0
C      1  0.5365710000000  0.5189770000000  0.5504880000000 1.0
C      1  0.4528040000000  0.4580360000000  0.4065580000000 1.0
C      1  0.5639260000000  0.4129350000000  0.5046150000000 1.0
C      1  0.5800530000000  0.4738290000000  0.5522370000000 1.0
C      1  0.4878220000000  0.4965180000000  0.3932600000000 1.0
C      1  0.4407020000000  0.4254280000000  0.4517480000000 1.0
C      1  0.4720070000000  0.5400640000000  0.4743680000000 1.0
C      1  0.5137030000000  0.4555250000000  0.5456890000000 1.0
C      1  0.5019140000000  0.4600500000000  0.4013820000000 1.0
C      1  0.4746880000000  0.4023880000000  0.5191510000000 1.0
C      1  0.4928100000000  0.4645010000000  0.5924170000000 1.0
C      1  0.4373540000000  0.4327990000000  0.4822510000000 1.0
C      1  0.5161100000000  0.4857640000000  0.3897720000000 1.0
C      1  0.5111050000000  0.5146740000000  0.5027180000000 1.0
C      1  0.4734720000000  0.5948570000000  0.4615870000000 1.0
C      1  0.5503970000000  0.4107900000000  0.4441970000000 1.0
C      1  0.4644840000000  0.4010020000000  0.4876100000000 1.0
C      1  0.5169820000000  0.5990830000000  0.5657920000000 1.0
C      1  0.6023160000000  0.5507380000000  0.5146330000000 1.0
C      1  0.4137820000000  0.5223440000000  0.4737830000000 1.0
C      1  0.4359100000000  0.4722240000000  0.5239440000000 1.0
C      1  0.4464740000000  0.5915700000000  0.5315070000000 1.0
C      1  0.4228670000000  0.5505710000000  0.5518970000000 1.0
C      1  0.5506800000000  0.4613370000000  0.4173110000000 1.0
C      1  0.5702100000000  0.4836610000000  0.4340720000000 1.0
C      1  0.4459200000000  0.4157180000000  0.5320280000000 1.0
C      1  0.5465160000000  0.3913750000000  0.4683730000000 1.0
C      1  0.5470860000000  0.4460040000000  0.4831900000000 1.0
C      1  0.5363120000000  0.4845660000000  0.5160380000000 1.0
C      1  0.4168640000000  0.5014180000000  0.5568200000000 1.0
C      1  0.5094390000000  0.4089480000000  0.4269400000000 1.0
C      1  0.4916200000000  0.5831310000000  0.5185260000000 1.0
C      1  0.5378060000000  0.5106900000000  0.5835100000000 1.0
C      1  0.5460910000000  0.5670420000000  0.4511710000000 1.0
C      1  0.5416990000000  0.5652130000000  0.5643580000000 1.0
C      1  0.4117090000000  0.5517540000000  0.5255570000000 1.0
C      1  0.5512670000000  0.5413470000000  0.4316740000000 1.0
C      1  0.5352180000000  0.3950670000000  0.5010310000000 1.0
C      1  0.5266120000000  0.4908680000000  0.4840410000000 1.0
C      1  0.4093450000000  0.4898270000000  0.4734740000000 1.0
C      1  0.4572520000000  0.4067700000000  0.4371240000000 1.0
C      1  0.4834670000000  0.5655090000000  0.4586160000000 1.0
C      1  0.4427020000000  0.4835460000000  0.3969450000000 1.0
C      1  0.4357620000000  0.5239040000000  0.4225940000000 1.0
C      1  0.5462800000000  0.5177950000000  0.4773530000000 1.0
C      1  0.4253540000000  0.5271630000000  0.5693570000000 1.0
C      1  0.5912660000000  0.5364630000000  0.4852420000000 1.0
C      1  0.4156760000000  0.5059800000000  0.4440260000000 1.0
C      1  0.4957140000000  0.4366610000000  0.5035320000000 1.0
C      1  0.4611780000000  0.5300560000000  0.4008560000000 1.0
C      1  0.4221460000000  0.5302250000000  0.5048770000000 1.0
C      1  0.5666950000000  0.4945410000000  0.5165540000000 1.0
C      1  0.4746100000000  0.5658420000000  0.6029420000000 1.0
C      1  0.4565580000000  0.4476370000000  0.5673190000000 1.0
C      1  0.4519860000000  0.4968490000000  0.4626040000000 1.0
C      1  0.5329860000000  0.5630870000000  0.5316900000000 1.0
C      1  0.5896550000000  0.5517230000000  0.5430930000000 1.0
C      1  0.4821870000000  0.5083230000000  0.6050700000000 1.0
C      1  0.5339980000000  0.5488190000000  0.5921330000000 1.0
C      1  0.5333120000000  0.4187740000000  0.4793270000000 1.0
C      1  0.5082080000000  0.5601390000000  0.5638150000000 1.0
C      1  0.5690180000000  0.5476770000000  0.5084080000000 1.0
C      1  0.5627140000000  0.5225590000000  0.5290390000000 1.0
C      1  0.4980880000000  0.5832730000000  0.5865840000000 1.0
C      1  0.4739770000000  0.5901350000000  0.4280500000000 1.0
C      1  0.5432220000000  0.4535120000000  0.5722650000000 1.0
C      1  0.4652160000000  0.4564800000000  0.4562200000000 1.0
END
