TITL C-2848499-1157-134 -4.05383776395826e-05 125000 -115.416768309387 0 0 22 (C1) n - 1
REM
REM in /home/bkarasulu/work/CARBON/AIRSS/Generating-Clusters/AIREBO/with-SteepDescent/Only-C1/SD-CG-opt/Try1-1.4A-POS3A/HFTN-CG
REM
REM
REM
REM
REM
REM ./C.cell (11c1c37f851c82e70ff6c80c92926a4b)
REM
REM compiler GCC version 9.2.1 20190827 (Red Hat 9.2.1-1)
REM options -cpp -mtune=generic -march=x86-64 -g -O0 -fpre-include=/usr/include/finclude/math-vector-fortran.h
REM seed -1649563651 941631388 1578357994 -611767460 -1065283912 -1901631552 -1431749170 -1013123457 -1332560507 436473812 1822009899 219469951 2133111823 900502391 -961278745 -1438774253 -262242502 1692500146 1058954666 -1915470646 -1259736309 -1039146467 449831985 1999193224 -1264641221 2016188986 1739582088 -1732145205 -1906560195 -1487422673 -2141787469 9699891 1027859400
REM
CELL 1.54180   50.00000   50.00000   50.00000   90.00000   90.00000   90.00000
LATT -1
SFAC C  
C      1  0.4896640000000  0.5059510000000  0.4509640000000 1.0
C      1  0.5177460000000  0.4525400000000  0.4932850000000 1.0
C      1  0.5096850000000  0.4735780000000  0.5089560000000 1.0
C      1  0.5707580000000  0.5224040000000  0.5816350000000 1.0
C      1  0.5005780000000  0.5346340000000  0.4957110000000 1.0
C      1  0.5428670000000  0.5924720000000  0.5292880000000 1.0
C      1  0.4644580000000  0.4509230000000  0.4704000000000 1.0
C      1  0.4684870000000  0.4346320000000  0.4502660000000 1.0
C      1  0.4618700000000  0.5161710000000  0.4615490000000 1.0
C      1  0.4679180000000  0.4958590000000  0.5298570000000 1.0
C      1  0.5416070000000  0.4961210000000  0.5463400000000 1.0
C      1  0.5148970000000  0.5544600000000  0.5056440000000 1.0
C      1  0.5253650000000  0.4842360000000  0.5288910000000 1.0
C      1  0.4393110000000  0.4657540000000  0.5109610000000 1.0
C      1  0.5556850000000  0.5087630000000  0.5650890000000 1.0
C      1  0.4867440000000  0.5103860000000  0.4840300000000 1.0
C      1  0.5209400000000  0.4926230000000  0.4105700000000 1.0
C      1  0.4614440000000  0.4660750000000  0.4929760000000 1.0
C      1  0.4836600000000  0.4871430000000  0.5025600000000 1.0
C      1  0.5050460000000  0.4979930000000  0.4307070000000 1.0
C      1  0.4433670000000  0.4830440000000  0.5324600000000 1.0
C      1  0.5279030000000  0.5742370000000  0.5178600000000 1.0
END
