TITL C-2847957-7266-308 0.00164211767622338 125000 -945.815492759363 0 0 171 (C1) n - 1
REM
REM in /home/bkarasulu/work/CARBON/AIRSS/Generating-Clusters/AIREBO/with-SteepDescent/Only-C1/SD-CG-opt/Try1-1.4A-POS3A/HFTN-CG
REM
REM
REM
REM
REM
REM ./C.cell (11c1c37f851c82e70ff6c80c92926a4b)
REM
REM compiler GCC version 9.2.1 20190827 (Red Hat 9.2.1-1)
REM options -cpp -mtune=generic -march=x86-64 -g -O0 -fpre-include=/usr/include/finclude/math-vector-fortran.h
REM seed -1913351942 1031797403 1502089142 1111917723 -753856550 -2106734360 1212693502 401444965 275905912 -1259449709 992217802 -609178883 196565959 -69467274 1924054706 437350438 270351381 -1621188378 -1579997043 1777456456 -626354885 479553168 1566764412 1081126981 389629825 1885394989 -1285769607 -458367479 -2009242881 -69837123 1422557283 -1104412290 108485890
REM
CELL 1.54180   50.00000   50.00000   50.00000   90.00000   90.00000   90.00000
LATT -1
SFAC C  
C      1  0.4529890000000  0.4091140000000  0.5124750000000 1.0
C      1  0.4902930000000  0.5051430000000  0.5496480000000 1.0
C      1  0.4324220000000  0.5749360000000  0.4680900000000 1.0
C      1  0.3855320000000  0.4314000000000  0.5264250000000 1.0
C      1  0.5392400000000  0.4217880000000  0.4432920000000 1.0
C      1  0.5659360000000  0.4184420000000  0.4493130000000 1.0
C      1  0.5739740000000  0.4205650000000  0.5205400000000 1.0
C      1  0.4807990000000  0.5400600000000  0.4609930000000 1.0
C      1  0.5797700000000  0.4754530000000  0.4346920000000 1.0
C      1  0.4486590000000  0.4683910000000  0.5014150000000 1.0
C      1  0.5270610000000  0.5800990000000  0.5180480000000 1.0
C      1  0.5162480000000  0.4636690000000  0.5711410000000 1.0
C      1  0.5373250000000  0.5213300000000  0.4759980000000 1.0
C      1  0.4441020000000  0.4084220000000  0.5396220000000 1.0
C      1  0.5701740000000  0.4373640000000  0.5498760000000 1.0
C      1  0.5600850000000  0.4521310000000  0.4829960000000 1.0
C      1  0.4063830000000  0.5676370000000  0.4750350000000 1.0
C      1  0.4120810000000  0.5015880000000  0.5254750000000 1.0
C      1  0.4714570000000  0.4293000000000  0.4198960000000 1.0
C      1  0.4504640000000  0.5744980000000  0.5505230000000 1.0
C      1  0.5507820000000  0.5207220000000  0.4164640000000 1.0
C      1  0.3894470000000  0.5242050000000  0.5344120000000 1.0
C      1  0.5149950000000  0.5299070000000  0.6067330000000 1.0
C      1  0.5947710000000  0.5634290000000  0.5842390000000 1.0
C      1  0.4688360000000  0.4957010000000  0.4996650000000 1.0
C      1  0.4147360000000  0.5330250000000  0.5500250000000 1.0
C      1  0.4363870000000  0.4874160000000  0.4780420000000 1.0
C      1  0.4558040000000  0.5907590000000  0.4799950000000 1.0
C      1  0.4469000000000  0.4826570000000  0.5302470000000 1.0
C      1  0.4070160000000  0.4733790000000  0.4793050000000 1.0
C      1  0.5993410000000  0.4666970000000  0.4976990000000 1.0
C      1  0.5062720000000  0.5972040000000  0.4772910000000 1.0
C      1  0.4043640000000  0.4505580000000  0.5260660000000 1.0
C      1  0.5139520000000  0.6071340000000  0.5339650000000 1.0
C      1  0.5262710000000  0.4527570000000  0.5200420000000 1.0
C      1  0.5396270000000  0.5477320000000  0.4162040000000 1.0
C      1  0.5721570000000  0.4871480000000  0.4979310000000 1.0
C      1  0.5364350000000  0.4038740000000  0.4946360000000 1.0
C      1  0.4727490000000  0.4648460000000  0.5722430000000 1.0
C      1  0.4767610000000  0.5445770000000  0.5538150000000 1.0
C      1  0.4355470000000  0.5028610000000  0.5800840000000 1.0
C      1  0.5778170000000  0.5562060000000  0.5239640000000 1.0
C      1  0.4701610000000  0.5751960000000  0.5153140000000 1.0
C      1  0.4998260000000  0.5992360000000  0.4468680000000 1.0
C      1  0.4200100000000  0.4620290000000  0.4327840000000 1.0
C      1  0.6012480000000  0.4343050000000  0.5541590000000 1.0
C      1  0.4348850000000  0.5152560000000  0.5553530000000 1.0
C      1  0.5459410000000  0.5290200000000  0.5437060000000 1.0
C      1  0.4949660000000  0.4764140000000  0.5915810000000 1.0
C      1  0.5337890000000  0.6110340000000  0.5545750000000 1.0
C      1  0.4011620000000  0.4705460000000  0.5980830000000 1.0
C      1  0.4758660000000  0.5245200000000  0.5812870000000 1.0
C      1  0.6196320000000  0.4458350000000  0.5152790000000 1.0
C      1  0.5892970000000  0.5613610000000  0.5529840000000 1.0
C      1  0.5391710000000  0.4235080000000  0.5480690000000 1.0
C      1  0.5976910000000  0.4859160000000  0.4516110000000 1.0
C      1  0.5525820000000  0.5404160000000  0.4964240000000 1.0
C      1  0.5437120000000  0.5469450000000  0.5729010000000 1.0
C      1  0.4301580000000  0.4486040000000  0.5427160000000 1.0
C      1  0.6011570000000  0.5748310000000  0.4838130000000 1.0
C      1  0.5487810000000  0.4717280000000  0.4327980000000 1.0
C      1  0.4781520000000  0.5715430000000  0.5700680000000 1.0
C      1  0.4302830000000  0.5278660000000  0.5137500000000 1.0
C      1  0.4709660000000  0.5699760000000  0.4592610000000 1.0
C      1  0.6083470000000  0.5321690000000  0.5147620000000 1.0
C      1  0.5659150000000  0.4366330000000  0.5813130000000 1.0
C      1  0.4597750000000  0.4090940000000  0.5659030000000 1.0
C      1  0.4608860000000  0.4934870000000  0.4576880000000 1.0
C      1  0.6145730000000  0.4731180000000  0.4711920000000 1.0
C      1  0.5731220000000  0.5014070000000  0.5575950000000 1.0
C      1  0.6153630000000  0.5159090000000  0.4958850000000 1.0
C      1  0.4211150000000  0.4516980000000  0.4590570000000 1.0
C      1  0.5063360000000  0.4807670000000  0.4617130000000 1.0
C      1  0.5154350000000  0.4467190000000  0.4816070000000 1.0
C      1  0.4633220000000  0.5560260000000  0.4226560000000 1.0
C      1  0.4831260000000  0.3864650000000  0.4841860000000 1.0
C      1  0.5634200000000  0.5694160000000  0.5721460000000 1.0
C      1  0.5058100000000  0.5410820000000  0.5417680000000 1.0
C      1  0.5207120000000  0.5527020000000  0.5924950000000 1.0
C      1  0.5102480000000  0.5133480000000  0.5270190000000 1.0
C      1  0.5091750000000  0.4670960000000  0.4306920000000 1.0
C      1  0.5162280000000  0.4821930000000  0.3943780000000 1.0
C      1  0.5582540000000  0.4008960000000  0.5100450000000 1.0
C      1  0.4409930000000  0.5911580000000  0.5224360000000 1.0
C      1  0.4466960000000  0.4526860000000  0.5873330000000 1.0
C      1  0.5166340000000  0.4844080000000  0.5121740000000 1.0
C      1  0.4077870000000  0.4935730000000  0.4293780000000 1.0
C      1  0.4991280000000  0.5709120000000  0.5873980000000 1.0
C      1  0.5365960000000  0.6056110000000  0.4839480000000 1.0
C      1  0.5198260000000  0.4967820000000  0.5643010000000 1.0
C      1  0.5605880000000  0.5085920000000  0.5207820000000 1.0
C      1  0.5353860000000  0.4951340000000  0.4171520000000 1.0
C      1  0.4535520000000  0.5174760000000  0.5952810000000 1.0
C      1  0.5311270000000  0.5463830000000  0.5196930000000 1.0
C      1  0.4832400000000  0.4202070000000  0.3971550000000 1.0
C      1  0.4863020000000  0.5208380000000  0.4879110000000 1.0
C      1  0.4447580000000  0.5530630000000  0.4500760000000 1.0
C      1  0.4911370000000  0.4949950000000  0.3908550000000 1.0
C      1  0.4383210000000  0.4854260000000  0.4162530000000 1.0
C      1  0.4795090000000  0.4398690000000  0.4659530000000 1.0
C      1  0.5180950000000  0.4537570000000  0.3941890000000 1.0
C      1  0.5912750000000  0.4342740000000  0.5004600000000 1.0
C      1  0.5478060000000  0.5136310000000  0.5737520000000 1.0
C      1  0.4317960000000  0.5161530000000  0.4300980000000 1.0
C      1  0.5116120000000  0.5015770000000  0.4832480000000 1.0
C      1  0.5601880000000  0.5830250000000  0.5251290000000 1.0
C      1  0.5190030000000  0.5689350000000  0.4865280000000 1.0
C      1  0.5148190000000  0.5517960000000  0.4339000000000 1.0
C      1  0.3903940000000  0.4887020000000  0.4562100000000 1.0
C      1  0.4771860000000  0.4679280000000  0.4539770000000 1.0
C      1  0.4605500000000  0.5133930000000  0.5352650000000 1.0
C      1  0.5159650000000  0.4247330000000  0.5066930000000 1.0
C      1  0.4438630000000  0.5227150000000  0.4612150000000 1.0
C      1  0.4776520000000  0.4590000000000  0.4229510000000 1.0
C      1  0.4721690000000  0.5416000000000  0.5202190000000 1.0
C      1  0.5545100000000  0.6035180000000  0.5008690000000 1.0
C      1  0.5145190000000  0.4426960000000  0.5503460000000 1.0
C      1  0.5048260000000  0.5006970000000  0.4278400000000 1.0
C      1  0.5706320000000  0.5285990000000  0.4361390000000 1.0
C      1  0.4862130000000  0.4730580000000  0.5141480000000 1.0
C      1  0.4198660000000  0.4788440000000  0.5495390000000 1.0
C      1  0.4489020000000  0.4249100000000  0.5879620000000 1.0
C      1  0.4942380000000  0.4653770000000  0.6198060000000 1.0
C      1  0.5312160000000  0.5516410000000  0.4636870000000 1.0
C      1  0.4820350000000  0.6002760000000  0.4956490000000 1.0
C      1  0.5005480000000  0.5084560000000  0.5898320000000 1.0
C      1  0.4884800000000  0.5364090000000  0.4219470000000 1.0
C      1  0.5672010000000  0.4707650000000  0.5439610000000 1.0
C      1  0.5369350000000  0.4665190000000  0.4642170000000 1.0
C      1  0.4039310000000  0.4740400000000  0.5100770000000 1.0
C      1  0.5603770000000  0.5549370000000  0.4536420000000 1.0
C      1  0.5206030000000  0.4173030000000  0.4676710000000 1.0
C      1  0.4763710000000  0.4781490000000  0.5439270000000 1.0
C      1  0.4905430000000  0.5742870000000  0.4337680000000 1.0
C      1  0.5390190000000  0.4886410000000  0.5374290000000 1.0
C      1  0.4973130000000  0.5705570000000  0.5315380000000 1.0
C      1  0.5564380000000  0.4614880000000  0.5137910000000 1.0
C      1  0.5278910000000  0.4006120000000  0.5362630000000 1.0
C      1  0.4630390000000  0.4184730000000  0.4469440000000 1.0
C      1  0.4905060000000  0.5220020000000  0.3943820000000 1.0
C      1  0.4754500000000  0.4615810000000  0.3755500000000 1.0
C      1  0.4767280000000  0.3949390000000  0.5090670000000 1.0
C      1  0.5316940000000  0.4442010000000  0.4237250000000 1.0
C      1  0.4848310000000  0.4488170000000  0.4964640000000 1.0
C      1  0.4279670000000  0.5562820000000  0.5326420000000 1.0
C      1  0.5802210000000  0.5316570000000  0.4681660000000 1.0
C      1  0.5922830000000  0.5055880000000  0.4776500000000 1.0
C      1  0.4403930000000  0.4330490000000  0.4667310000000 1.0
C      1  0.5544470000000  0.5930380000000  0.5543050000000 1.0
C      1  0.3971600000000  0.5492480000000  0.5182450000000 1.0
C      1  0.4240690000000  0.4738230000000  0.5824420000000 1.0
C      1  0.5848510000000  0.5252980000000  0.5362980000000 1.0
C      1  0.4813340000000  0.5133810000000  0.4447070000000 1.0
C      1  0.4389880000000  0.5390300000000  0.4132220000000 1.0
C      1  0.4529770000000  0.4358550000000  0.4953450000000 1.0
C      1  0.4977590000000  0.4079290000000  0.5256830000000 1.0
C      1  0.4645160000000  0.6046960000000  0.5414490000000 1.0
C      1  0.4191970000000  0.5163340000000  0.4837450000000 1.0
C      1  0.5599780000000  0.5681430000000  0.4224410000000 1.0
C      1  0.4907700000000  0.4078630000000  0.4634950000000 1.0
C      1  0.4568480000000  0.4448810000000  0.5497570000000 1.0
C      1  0.4952210000000  0.4416830000000  0.3826070000000 1.0
C      1  0.5498290000000  0.4931710000000  0.4760380000000 1.0
C      1  0.4546310000000  0.5322910000000  0.4926040000000 1.0
C      1  0.4016550000000  0.5446460000000  0.4906040000000 1.0
C      1  0.5767680000000  0.4306730000000  0.4719010000000 1.0
C      1  0.5019890000000  0.5440800000000  0.5023160000000 1.0
C      1  0.4642420000000  0.4787900000000  0.4020430000000 1.0
C      1  0.4849200000000  0.4256790000000  0.5501040000000 1.0
C      1  0.5842400000000  0.5524140000000  0.4931740000000 1.0
C      1  0.4873820000000  0.6099200000000  0.5261500000000 1.0
END
