TITL C-2847949-8115-229 -0.00197959196886005 125000 -603.689881388361 0 0 111 (C1) n - 1
REM
REM in /home/bkarasulu/work/CARBON/AIRSS/Generating-Clusters/AIREBO/with-SteepDescent/Only-C1/SD-CG-opt/Try1-1.4A-POS3A/HFTN-CG
REM
REM
REM
REM
REM
REM ./C.cell (11c1c37f851c82e70ff6c80c92926a4b)
REM
REM compiler GCC version 9.2.1 20190827 (Red Hat 9.2.1-1)
REM options -cpp -mtune=generic -march=x86-64 -g -O0 -fpre-include=/usr/include/finclude/math-vector-fortran.h
REM seed 1228220551 721547823 1761103537 1377557355 1296161117 42371551 -1815006279 -1509582933 -1522642223 -2034009109 234375243 914721254 1377387392 1419668112 -561080197 -996312983 -1764856722 676937859 -1532168028 -106527400 869598829 1235443850 1775368207 -450489387 -840732343 479781605 980838251 -228503114 1033651471 1260964406 1497546024 996817095 1401156030
REM
CELL 1.54180   50.00000   50.00000   50.00000   90.00000   90.00000   90.00000
LATT -1
SFAC C  
C      1  0.4473840000000  0.4843620000000  0.4272500000000 1.0
C      1  0.5351610000000  0.5493620000000  0.4719670000000 1.0
C      1  0.4745360000000  0.5873090000000  0.4916270000000 1.0
C      1  0.4210130000000  0.5194240000000  0.5026480000000 1.0
C      1  0.4410310000000  0.4531850000000  0.4940480000000 1.0
C      1  0.4362120000000  0.4979100000000  0.5742810000000 1.0
C      1  0.4472360000000  0.5489990000000  0.4600380000000 1.0
C      1  0.5341030000000  0.5312080000000  0.5822290000000 1.0
C      1  0.5254500000000  0.4352470000000  0.4378360000000 1.0
C      1  0.4301050000000  0.5021080000000  0.3963320000000 1.0
C      1  0.4262200000000  0.5303780000000  0.4674750000000 1.0
C      1  0.4492410000000  0.4411740000000  0.4205690000000 1.0
C      1  0.4672200000000  0.4540630000000  0.3968870000000 1.0
C      1  0.4332470000000  0.4640410000000  0.4704360000000 1.0
C      1  0.5431060000000  0.5104480000000  0.4686580000000 1.0
C      1  0.5606130000000  0.5724430000000  0.4348540000000 1.0
C      1  0.4151520000000  0.4846090000000  0.4739460000000 1.0
C      1  0.4692860000000  0.4023510000000  0.5395170000000 1.0
C      1  0.4957790000000  0.5502950000000  0.4662200000000 1.0
C      1  0.5980800000000  0.5400240000000  0.4968610000000 1.0
C      1  0.5134560000000  0.5595240000000  0.4266070000000 1.0
C      1  0.4705090000000  0.5221480000000  0.4783180000000 1.0
C      1  0.5390520000000  0.4819140000000  0.4529280000000 1.0
C      1  0.5467910000000  0.5921610000000  0.4844260000000 1.0
C      1  0.4971510000000  0.4025080000000  0.5407650000000 1.0
C      1  0.4347870000000  0.4418710000000  0.5218220000000 1.0
C      1  0.5193080000000  0.5038010000000  0.5574170000000 1.0
C      1  0.5363260000000  0.5626080000000  0.4428670000000 1.0
C      1  0.5880150000000  0.5620320000000  0.4759690000000 1.0
C      1  0.4704860000000  0.5492970000000  0.5609750000000 1.0
C      1  0.4809840000000  0.4392220000000  0.4243030000000 1.0
C      1  0.5435060000000  0.4237400000000  0.4573500000000 1.0
C      1  0.4551140000000  0.4280180000000  0.4575620000000 1.0
C      1  0.5506080000000  0.5237340000000  0.4980930000000 1.0
C      1  0.4762570000000  0.5102400000000  0.5664900000000 1.0
C      1  0.5423910000000  0.5559100000000  0.5357060000000 1.0
C      1  0.5225270000000  0.5813540000000  0.4944110000000 1.0
C      1  0.5606560000000  0.4544620000000  0.5019830000000 1.0
C      1  0.4335400000000  0.5374460000000  0.5269500000000 1.0
C      1  0.4858290000000  0.4558930000000  0.5718230000000 1.0
C      1  0.5127520000000  0.4971550000000  0.4994470000000 1.0
C      1  0.4593330000000  0.4711830000000  0.5373020000000 1.0
C      1  0.5053620000000  0.5330160000000  0.5976060000000 1.0
C      1  0.5217480000000  0.4785410000000  0.5908120000000 1.0
C      1  0.5344880000000  0.4734730000000  0.5599920000000 1.0
C      1  0.4655650000000  0.4658610000000  0.5068300000000 1.0
C      1  0.4943050000000  0.5169230000000  0.5384600000000 1.0
C      1  0.6434290000000  0.5567710000000  0.4687980000000 1.0
C      1  0.4971340000000  0.4047140000000  0.4876770000000 1.0
C      1  0.4556120000000  0.4809830000000  0.3983720000000 1.0
C      1  0.4899800000000  0.5109420000000  0.4576410000000 1.0
C      1  0.5164320000000  0.4210010000000  0.5011790000000 1.0
C      1  0.5801580000000  0.4439000000000  0.5810250000000 1.0
C      1  0.4532760000000  0.5653130000000  0.4870310000000 1.0
C      1  0.4804960000000  0.5478270000000  0.4964930000000 1.0
C      1  0.4461410000000  0.5181240000000  0.5907820000000 1.0
C      1  0.5017500000000  0.4582620000000  0.5934630000000 1.0
C      1  0.5811950000000  0.4940410000000  0.5262750000000 1.0
C      1  0.4748130000000  0.4176650000000  0.4730370000000 1.0
C      1  0.4626650000000  0.5277610000000  0.5322230000000 1.0
C      1  0.4928410000000  0.4431740000000  0.4777170000000 1.0
C      1  0.4252250000000  0.5553200000000  0.5508390000000 1.0
C      1  0.5293320000000  0.4669740000000  0.5014870000000 1.0
C      1  0.4565160000000  0.4275880000000  0.5341410000000 1.0
C      1  0.5328860000000  0.4602940000000  0.4283770000000 1.0
C      1  0.5641230000000  0.4063540000000  0.4559000000000 1.0
C      1  0.5409640000000  0.5101080000000  0.4348360000000 1.0
C      1  0.4978380000000  0.4345310000000  0.4451470000000 1.0
C      1  0.4980290000000  0.4559550000000  0.5089270000000 1.0
C      1  0.5262650000000  0.4864460000000  0.4154300000000 1.0
C      1  0.5426080000000  0.5272900000000  0.5495300000000 1.0
C      1  0.5623200000000  0.5696410000000  0.4747140000000 1.0
C      1  0.5140950000000  0.4225780000000  0.5291340000000 1.0
C      1  0.4757360000000  0.6002990000000  0.5165090000000 1.0
C      1  0.4702530000000  0.5107670000000  0.5071870000000 1.0
C      1  0.4828310000000  0.4859000000000  0.4878290000000 1.0
C      1  0.5134870000000  0.5239540000000  0.4784920000000 1.0
C      1  0.4161380000000  0.5070970000000  0.4554450000000 1.0
C      1  0.5519300000000  0.4896670000000  0.5374840000000 1.0
C      1  0.4847350000000  0.4768460000000  0.4579170000000 1.0
C      1  0.4958190000000  0.5367160000000  0.4270960000000 1.0
C      1  0.4835630000000  0.4473610000000  0.5387490000000 1.0
C      1  0.4769510000000  0.5323280000000  0.5880430000000 1.0
C      1  0.4219510000000  0.4724790000000  0.5234020000000 1.0
C      1  0.5322420000000  0.4398570000000  0.4811770000000 1.0
C      1  0.5748620000000  0.5212470000000  0.5450550000000 1.0
C      1  0.5168960000000  0.4485610000000  0.5454340000000 1.0
C      1  0.6189020000000  0.5537140000000  0.4772190000000 1.0
C      1  0.5523530000000  0.5780770000000  0.5448140000000 1.0
C      1  0.4272530000000  0.5519840000000  0.4980370000000 1.0
C      1  0.4327180000000  0.4840230000000  0.5500760000000 1.0
C      1  0.5225610000000  0.5052220000000  0.5984250000000 1.0
C      1  0.4708990000000  0.5435630000000  0.4446520000000 1.0
C      1  0.4880240000000  0.5891750000000  0.5385670000000 1.0
C      1  0.4446380000000  0.5642590000000  0.5650620000000 1.0
C      1  0.5098800000000  0.5136540000000  0.4213720000000 1.0
C      1  0.5599440000000  0.4573020000000  0.5730870000000 1.0
C      1  0.5924040000000  0.4424440000000  0.4991730000000 1.0
C      1  0.4820440000000  0.4831690000000  0.5559650000000 1.0
C      1  0.5855760000000  0.4697430000000  0.5124870000000 1.0
C      1  0.4985230000000  0.5795240000000  0.4803430000000 1.0
C      1  0.4235450000000  0.5018190000000  0.4290040000000 1.0
C      1  0.4564950000000  0.4605140000000  0.4475960000000 1.0
C      1  0.5157730000000  0.4643800000000  0.4642800000000 1.0
C      1  0.5003850000000  0.5439890000000  0.5187820000000 1.0
C      1  0.4948240000000  0.4853150000000  0.5258030000000 1.0
C      1  0.5791620000000  0.5238170000000  0.5111640000000 1.0
C      1  0.5346420000000  0.5099440000000  0.5213690000000 1.0
C      1  0.4908200000000  0.5626320000000  0.5436980000000 1.0
C      1  0.5308880000000  0.5503930000000  0.5057140000000 1.0
C      1  0.4132110000000  0.4917280000000  0.5024220000000 1.0
END
