TITL C-2847953-8112-396 -1.41761912193674e-06 125000 -72.4838558589946 0 0 13 (C1) n - 1
REM
REM in /home/bkarasulu/work/CARBON/AIRSS/Generating-Clusters/AIREBO/with-SteepDescent/Only-C1/SD-CG-opt/Try1-1.4A-POS3A/HFTN-CG
REM
REM
REM
REM
REM
REM ./C.cell (11c1c37f851c82e70ff6c80c92926a4b)
REM
REM compiler GCC version 9.2.1 20190827 (Red Hat 9.2.1-1)
REM options -cpp -mtune=generic -march=x86-64 -g -O0 -fpre-include=/usr/include/finclude/math-vector-fortran.h
REM seed 488406791 -1649188933 18535810 -1052982067 -6242054 1407633386 1856318081 -1805212792 -1483720927 -1262060077 324523767 1737309398 1556086276 1600653686 487345156 549822163 1422690309 485353554 1952702547 -367841041 -1042245146 -1253322757 -1623294775 615365082 1198072909 1226567220 -493549909 921286787 -1444900131 -760248452 1014125376 -1653136326 38389298
REM
CELL 1.54180   50.00000   50.00000   50.00000   90.00000   90.00000   90.00000
LATT -1
SFAC C  
C      1  0.5022530000000  0.5141460000000  0.5148200000000 1.0
C      1  0.5235350000000  0.5138870000000  0.4988010000000 1.0
C      1  0.5442790000000  0.5152670000000  0.4804320000000 1.0
C      1  0.5455900000000  0.4796650000000  0.4394330000000 1.0
C      1  0.3931960000000  0.5029380000000  0.5892870000000 1.0
C      1  0.4814000000000  0.5118360000000  0.5312350000000 1.0
C      1  0.4592890000000  0.5112260000000  0.5460810000000 1.0
C      1  0.4149650000000  0.5067100000000  0.5751820000000 1.0
C      1  0.4377250000000  0.5080850000000  0.5614040000000 1.0
C      1  0.5451830000000  0.4611050000000  0.4203280000000 1.0
C      1  0.5456860000000  0.4962630000000  0.4602690000000 1.0
C      1  0.5633210000000  0.5343140000000  0.4826670000000 1.0
C      1  0.5435790000000  0.4445580000000  0.4000620000000 1.0
END
