TITL C-2847956-8218-163 -0.000689150837127935 125000 -510.421089922675 0 0 99 (C1) n - 1
REM
REM in /home/bkarasulu/work/CARBON/AIRSS/Generating-Clusters/AIREBO/with-SteepDescent/Only-C1/SD-CG-opt/Try1-1.4A-POS3A/HFTN-CG
REM
REM
REM
REM
REM
REM ./C.cell (11c1c37f851c82e70ff6c80c92926a4b)
REM
REM compiler GCC version 9.2.1 20190827 (Red Hat 9.2.1-1)
REM options -cpp -mtune=generic -march=x86-64 -g -O0 -fpre-include=/usr/include/finclude/math-vector-fortran.h
REM seed 1653859873 -1830047192 -1846114588 752011454 2069080836 1629103335 -1041126832 -576126116 -201809721 -1529646437 -118563500 -928575014 -533757190 509261822 946397632 1489271020 -103602734 -530907348 -150393783 -1302311188 -934845715 -626822900 2128696534 -1858681237 -84838549 1050497061 1717540873 1881093063 -1042192815 890473208 805490131 2103601401 1659083115
REM
CELL 1.54180   50.00000   50.00000   50.00000   90.00000   90.00000   90.00000
LATT -1
SFAC C  
C      1  0.5516540000000  0.4727290000000  0.4983140000000 1.0
C      1  0.4793200000000  0.5024240000000  0.5029680000000 1.0
C      1  0.4252680000000  0.4788890000000  0.5065760000000 1.0
C      1  0.5390690000000  0.4577940000000  0.4704500000000 1.0
C      1  0.5183610000000  0.4424310000000  0.4482660000000 1.0
C      1  0.4466800000000  0.4621490000000  0.4677170000000 1.0
C      1  0.4558670000000  0.4264980000000  0.5005370000000 1.0
C      1  0.5601490000000  0.5323490000000  0.5385500000000 1.0
C      1  0.4435730000000  0.5509190000000  0.4966870000000 1.0
C      1  0.5228540000000  0.5629140000000  0.5502620000000 1.0
C      1  0.5335990000000  0.4756230000000  0.5584370000000 1.0
C      1  0.4960220000000  0.4355360000000  0.5510500000000 1.0
C      1  0.4834290000000  0.4955990000000  0.4705300000000 1.0
C      1  0.5528390000000  0.5571970000000  0.4618550000000 1.0
C      1  0.5370410000000  0.4303430000000  0.4907300000000 1.0
C      1  0.5250900000000  0.5011670000000  0.5792220000000 1.0
C      1  0.4512320000000  0.4478990000000  0.5262260000000 1.0
C      1  0.5862050000000  0.4773050000000  0.4735560000000 1.0
C      1  0.4782160000000  0.5036800000000  0.5444740000000 1.0
C      1  0.4632800000000  0.4434910000000  0.5561230000000 1.0
C      1  0.5121060000000  0.5478900000000  0.4223870000000 1.0
C      1  0.5408390000000  0.5498650000000  0.4346660000000 1.0
C      1  0.5628160000000  0.5319460000000  0.5710170000000 1.0
C      1  0.5139360000000  0.5612730000000  0.4701900000000 1.0
C      1  0.5002560000000  0.4219040000000  0.5221160000000 1.0
C      1  0.5557550000000  0.5037580000000  0.5759900000000 1.0
C      1  0.4101600000000  0.4940530000000  0.4515770000000 1.0
C      1  0.4313300000000  0.5268060000000  0.4440170000000 1.0
C      1  0.5231130000000  0.5311740000000  0.4568690000000 1.0
C      1  0.5624760000000  0.4789460000000  0.4577450000000 1.0
C      1  0.4401260000000  0.4938410000000  0.4676420000000 1.0
C      1  0.4425430000000  0.5402770000000  0.5283560000000 1.0
C      1  0.4508650000000  0.5732440000000  0.5280210000000 1.0
C      1  0.4831350000000  0.5417030000000  0.4053270000000 1.0
C      1  0.5466890000000  0.4898280000000  0.4291570000000 1.0
C      1  0.4357260000000  0.4513700000000  0.4957020000000 1.0
C      1  0.4666090000000  0.5501000000000  0.4479730000000 1.0
C      1  0.4808820000000  0.4070830000000  0.5048980000000 1.0
C      1  0.4348010000000  0.4969090000000  0.4282940000000 1.0
C      1  0.5391760000000  0.4621310000000  0.5281210000000 1.0
C      1  0.5699540000000  0.4455740000000  0.5074870000000 1.0
C      1  0.5286620000000  0.4259600000000  0.5488590000000 1.0
C      1  0.4656690000000  0.5757290000000  0.4962570000000 1.0
C      1  0.5125420000000  0.5795500000000  0.5240120000000 1.0
C      1  0.4780600000000  0.4608970000000  0.4688430000000 1.0
C      1  0.4117910000000  0.4983290000000  0.4853570000000 1.0
C      1  0.5241550000000  0.5433260000000  0.4949460000000 1.0
C      1  0.5023070000000  0.5169230000000  0.4176170000000 1.0
C      1  0.4231530000000  0.5193010000000  0.5098950000000 1.0
C      1  0.5829260000000  0.4849710000000  0.5045650000000 1.0
C      1  0.4137450000000  0.5398840000000  0.4593090000000 1.0
C      1  0.5231660000000  0.4818210000000  0.4523840000000 1.0
C      1  0.4697070000000  0.5156390000000  0.4230610000000 1.0
C      1  0.5503090000000  0.5107440000000  0.4557010000000 1.0
C      1  0.5361080000000  0.5152100000000  0.5295010000000 1.0
C      1  0.4937580000000  0.4545170000000  0.4416470000000 1.0
C      1  0.4679770000000  0.5014790000000  0.5754040000000 1.0
C      1  0.5332970000000  0.4225120000000  0.5169670000000 1.0
C      1  0.4631040000000  0.4697430000000  0.5766400000000 1.0
C      1  0.4941880000000  0.4678900000000  0.5517310000000 1.0
C      1  0.5143080000000  0.4872320000000  0.5111870000000 1.0
C      1  0.4874190000000  0.5649710000000  0.5161790000000 1.0
C      1  0.5144790000000  0.5040040000000  0.4717700000000 1.0
C      1  0.5855800000000  0.5126250000000  0.5444310000000 1.0
C      1  0.4936300000000  0.5331430000000  0.5059610000000 1.0
C      1  0.4746640000000  0.5592920000000  0.5456500000000 1.0
C      1  0.4159010000000  0.5426410000000  0.4859870000000 1.0
C      1  0.5876380000000  0.5125680000000  0.5149740000000 1.0
C      1  0.4991060000000  0.5151520000000  0.5769640000000 1.0
C      1  0.4822000000000  0.5694980000000  0.4698050000000 1.0
C      1  0.5769970000000  0.5346120000000  0.5023480000000 1.0
C      1  0.4828620000000  0.4687370000000  0.4999800000000 1.0
C      1  0.5146140000000  0.4256960000000  0.4717490000000 1.0
C      1  0.4839930000000  0.4295070000000  0.4805110000000 1.0
C      1  0.4674340000000  0.5353740000000  0.4843880000000 1.0
C      1  0.4617230000000  0.5174280000000  0.4560660000000 1.0
C      1  0.5142630000000  0.4908600000000  0.4208430000000 1.0
C      1  0.5072310000000  0.5292470000000  0.5355970000000 1.0
C      1  0.4352160000000  0.4654070000000  0.4400180000000 1.0
C      1  0.5145290000000  0.4451530000000  0.5915310000000 1.0
C      1  0.5088210000000  0.4540670000000  0.5163250000000 1.0
C      1  0.4898550000000  0.4717820000000  0.4207700000000 1.0
C      1  0.4692310000000  0.4744990000000  0.5296020000000 1.0
C      1  0.4984090000000  0.5449630000000  0.5625740000000 1.0
C      1  0.5383740000000  0.5603350000000  0.5200500000000 1.0
C      1  0.4483890000000  0.5178020000000  0.5526800000000 1.0
C      1  0.4178410000000  0.5128170000000  0.5431090000000 1.0
C      1  0.5375980000000  0.5036640000000  0.4967110000000 1.0
C      1  0.4641390000000  0.4847070000000  0.4160210000000 1.0
C      1  0.5532970000000  0.5305280000000  0.4829610000000 1.0
C      1  0.5691060000000  0.5574510000000  0.5202060000000 1.0
C      1  0.5113650000000  0.4956950000000  0.5423190000000 1.0
C      1  0.4905530000000  0.4574160000000  0.5838940000000 1.0
C      1  0.4491330000000  0.4980370000000  0.5153220000000 1.0
C      1  0.5719010000000  0.4690910000000  0.5325380000000 1.0
C      1  0.4920930000000  0.5663890000000  0.4371810000000 1.0
C      1  0.5332350000000  0.4462490000000  0.5699460000000 1.0
C      1  0.5745000000000  0.4881640000000  0.5571670000000 1.0
C      1  0.5407090000000  0.5821610000000  0.4719080000000 1.0
END
