TITL C-2847950-6905-264 0.000688481481472822 125000 -176.806002409243 0 0 35 (C1) n - 1
REM
REM in /home/bkarasulu/work/CARBON/AIRSS/Generating-Clusters/AIREBO/with-SteepDescent/Only-C1/SD-CG-opt/Try1-1.4A-POS3A/HFTN-CG
REM
REM
REM
REM
REM
REM ./C.cell (11c1c37f851c82e70ff6c80c92926a4b)
REM
REM compiler GCC version 9.2.1 20190827 (Red Hat 9.2.1-1)
REM options -cpp -mtune=generic -march=x86-64 -g -O0 -fpre-include=/usr/include/finclude/math-vector-fortran.h
REM seed -1818633213 1873535730 803517676 -609723373 -418063830 -1149419308 747248107 -356668681 -7096375 -70193710 -1244473910 -706566255 -440799237 2135523792 1628696213 800807200 -1984945948 -2028269779 413142208 -777585214 1171299997 -1141152741 -378536114 1368258366 -932085283 228664642 1670611642 -864829983 968133049 -87772737 -1373891214 1065653405 -653561548
REM
CELL 1.54180   50.00000   50.00000   50.00000   90.00000   90.00000   90.00000
LATT -1
SFAC C  
C      1  0.5240190000000  0.5553330000000  0.4976050000000 1.0
C      1  0.4679200000000  0.4734880000000  0.4967570000000 1.0
C      1  0.5249450000000  0.4599340000000  0.5186220000000 1.0
C      1  0.4773290000000  0.5229310000000  0.5183790000000 1.0
C      1  0.4810160000000  0.4765100000000  0.5252960000000 1.0
C      1  0.4729870000000  0.5483150000000  0.4803330000000 1.0
C      1  0.4776170000000  0.4942120000000  0.4500320000000 1.0
C      1  0.5388660000000  0.5530050000000  0.5282930000000 1.0
C      1  0.4835350000000  0.5021810000000  0.5375020000000 1.0
C      1  0.4936050000000  0.4335720000000  0.5461030000000 1.0
C      1  0.4558760000000  0.5262220000000  0.4826940000000 1.0
C      1  0.4411590000000  0.4646750000000  0.4978030000000 1.0
C      1  0.4922870000000  0.5675160000000  0.4962740000000 1.0
C      1  0.5034900000000  0.5054100000000  0.4348670000000 1.0
C      1  0.5085240000000  0.5137630000000  0.5506550000000 1.0
C      1  0.5155080000000  0.5454140000000  0.5506530000000 1.0
C      1  0.5125100000000  0.4499790000000  0.4601500000000 1.0
C      1  0.4887840000000  0.4139890000000  0.5628400000000 1.0
C      1  0.4807460000000  0.4885910000000  0.4185840000000 1.0
C      1  0.5237480000000  0.5189320000000  0.5140920000000 1.0
C      1  0.5005660000000  0.5400360000000  0.4690760000000 1.0
C      1  0.4867630000000  0.4546860000000  0.4816790000000 1.0
C      1  0.5425460000000  0.4749550000000  0.5343960000000 1.0
C      1  0.5554880000000  0.5283610000000  0.5218500000000 1.0
C      1  0.4995440000000  0.4556220000000  0.5306280000000 1.0
C      1  0.4719420000000  0.4987910000000  0.4784950000000 1.0
C      1  0.4979080000000  0.5150320000000  0.4923240000000 1.0
C      1  0.5244530000000  0.4967530000000  0.4814770000000 1.0
C      1  0.5011720000000  0.5436770000000  0.5199420000000 1.0
C      1  0.4285370000000  0.5263410000000  0.4836430000000 1.0
C      1  0.5248910000000  0.5186100000000  0.4457190000000 1.0
C      1  0.5127300000000  0.4355860000000  0.4897770000000 1.0
C      1  0.5314550000000  0.5296500000000  0.4764300000000 1.0
C      1  0.5333970000000  0.5004040000000  0.5397770000000 1.0
C      1  0.5241370000000  0.4675250000000  0.4872540000000 1.0
END
