TITL C-2847946-5639-480 0.00070691539213204 125000 -170.683871196405 0 0 32 (C1) n - 1
REM
REM in /home/bkarasulu/work/CARBON/AIRSS/Generating-Clusters/AIREBO/with-SteepDescent/Only-C1/SD-CG-opt/Try1-1.4A-POS3A/HFTN-CG
REM
REM
REM
REM
REM
REM ./C.cell (11c1c37f851c82e70ff6c80c92926a4b)
REM
REM compiler GCC version 9.2.1 20190827 (Red Hat 9.2.1-1)
REM options -cpp -mtune=generic -march=x86-64 -g -O0 -fpre-include=/usr/include/finclude/math-vector-fortran.h
REM seed 72363940 -438217373 -2142060592 -1527598132 1213559379 1975959948 871691359 862745169 -700330376 -1719238334 -1092153111 -241740224 -100224294 438364623 700699862 -548724819 -1744490111 -403304832 1034605182 -2077135963 -1128587544 1896698908 -622058289 -1167273252 -800919429 -1449615901 2039569650 1834940654 -910679217 509345074 -241655569 -1198905385 -824019188
REM
CELL 1.54180   50.00000   50.00000   50.00000   90.00000   90.00000   90.00000
LATT -1
SFAC C  
C      1  0.4568550000000  0.5409040000000  0.5311320000000 1.0
C      1  0.4989970000000  0.5009210000000  0.4836210000000 1.0
C      1  0.4988800000000  0.4669180000000  0.4839660000000 1.0
C      1  0.4965360000000  0.5430840000000  0.5748470000000 1.0
C      1  0.5308000000000  0.4796310000000  0.5359260000000 1.0
C      1  0.5599690000000  0.5122450000000  0.5604280000000 1.0
C      1  0.5464170000000  0.4889020000000  0.5558550000000 1.0
C      1  0.4542010000000  0.4510120000000  0.5217080000000 1.0
C      1  0.4881010000000  0.5143520000000  0.4570990000000 1.0
C      1  0.5029680000000  0.5386930000000  0.5486560000000 1.0
C      1  0.4567470000000  0.5209860000000  0.4648830000000 1.0
C      1  0.4826220000000  0.4953620000000  0.5195560000000 1.0
C      1  0.5217160000000  0.4546940000000  0.4925610000000 1.0
C      1  0.4815750000000  0.4524810000000  0.4612910000000 1.0
C      1  0.5273300000000  0.5345540000000  0.5093210000000 1.0
C      1  0.4659480000000  0.4739740000000  0.4415160000000 1.0
C      1  0.5055710000000  0.4700690000000  0.4447800000000 1.0
C      1  0.5497080000000  0.4601810000000  0.4795080000000 1.0
C      1  0.4643030000000  0.4699350000000  0.5067500000000 1.0
C      1  0.5514780000000  0.5371440000000  0.5523220000000 1.0
C      1  0.4814370000000  0.5281620000000  0.5284630000000 1.0
C      1  0.5287790000000  0.4742760000000  0.4584610000000 1.0
C      1  0.4528800000000  0.5079630000000  0.5091570000000 1.0
C      1  0.4889640000000  0.4936170000000  0.4352880000000 1.0
C      1  0.5464420000000  0.5204140000000  0.4937950000000 1.0
C      1  0.5010770000000  0.5266600000000  0.5029860000000 1.0
C      1  0.5374220000000  0.4910240000000  0.4868530000000 1.0
C      1  0.4731770000000  0.5447330000000  0.4528190000000 1.0
C      1  0.4480230000000  0.5021340000000  0.4828520000000 1.0
C      1  0.5284010000000  0.5415780000000  0.5368260000000 1.0
C      1  0.5145000000000  0.4902670000000  0.5119700000000 1.0
C      1  0.4581800000000  0.4731300000000  0.4748020000000 1.0
END
