TITL C-2847953-8112-487 -0.00398812880991966 125000 -385.539752577312 0 0 69 (C1) n - 1
REM
REM in /home/bkarasulu/work/CARBON/AIRSS/Generating-Clusters/AIREBO/with-SteepDescent/Only-C1/SD-CG-opt/Try1-1.4A-POS3A/HFTN-CG
REM
REM
REM
REM
REM
REM ./C.cell (11c1c37f851c82e70ff6c80c92926a4b)
REM
REM compiler GCC version 9.2.1 20190827 (Red Hat 9.2.1-1)
REM options -cpp -mtune=generic -march=x86-64 -g -O0 -fpre-include=/usr/include/finclude/math-vector-fortran.h
REM seed -553494783 -350911390 2127128109 -1630816777 -1397003462 -987157916 -2142738002 1179419791 2022066615 167116177 -1720445063 -1108653685 1810666804 -1796735200 1778205270 -1670459996 808080842 -1395413383 -1631412959 -1179611572 -1891370576 485405462 254693131 756998084 414450831 -268017770 -2138910006 1240690877 732483073 1201205450 -2028724979 -893475294 -1227649534
REM
CELL 1.54180   50.00000   50.00000   50.00000   90.00000   90.00000   90.00000
LATT -1
SFAC C  
C      1  0.4933290000000  0.4633970000000  0.4831970000000 1.0
C      1  0.4885060000000  0.4514900000000  0.5120010000000 1.0
C      1  0.4893100000000  0.5189100000000  0.5021660000000 1.0
C      1  0.4643580000000  0.4749480000000  0.4886560000000 1.0
C      1  0.4695700000000  0.4687040000000  0.5277580000000 1.0
C      1  0.4953410000000  0.5779800000000  0.4725670000000 1.0
C      1  0.4255000000000  0.4669670000000  0.4936190000000 1.0
C      1  0.5691150000000  0.4961430000000  0.5117040000000 1.0
C      1  0.4620520000000  0.5464800000000  0.5265980000000 1.0
C      1  0.5485030000000  0.4845670000000  0.5439090000000 1.0
C      1  0.4549390000000  0.4889480000000  0.5664300000000 1.0
C      1  0.5594460000000  0.4648970000000  0.5184220000000 1.0
C      1  0.5079540000000  0.5289650000000  0.4339420000000 1.0
C      1  0.4628040000000  0.5341470000000  0.5521200000000 1.0
C      1  0.4372870000000  0.5051280000000  0.5232290000000 1.0
C      1  0.5139300000000  0.4877400000000  0.4741610000000 1.0
C      1  0.4819680000000  0.5203490000000  0.4711370000000 1.0
C      1  0.5750170000000  0.5674390000000  0.4954130000000 1.0
C      1  0.4901070000000  0.5483880000000  0.5157210000000 1.0
C      1  0.5297520000000  0.4579160000000  0.5342000000000 1.0
C      1  0.4466820000000  0.5110110000000  0.5521830000000 1.0
C      1  0.5521250000000  0.5462250000000  0.5048300000000 1.0
C      1  0.4755040000000  0.4217550000000  0.5029530000000 1.0
C      1  0.5351970000000  0.4621010000000  0.4809960000000 1.0
C      1  0.4278670000000  0.5152820000000  0.4921670000000 1.0
C      1  0.5194800000000  0.4964730000000  0.5331450000000 1.0
C      1  0.4800840000000  0.5354170000000  0.4340260000000 1.0
C      1  0.5186060000000  0.4859480000000  0.4201420000000 1.0
C      1  0.5156850000000  0.5634800000000  0.5600250000000 1.0
C      1  0.5091930000000  0.5686240000000  0.4987060000000 1.0
C      1  0.4867360000000  0.5350930000000  0.5671120000000 1.0
C      1  0.4797720000000  0.4710010000000  0.5567500000000 1.0
C      1  0.4925410000000  0.4247230000000  0.5325780000000 1.0
C      1  0.5707720000000  0.4872820000000  0.4605230000000 1.0
C      1  0.5782990000000  0.5470740000000  0.4746160000000 1.0
C      1  0.5175430000000  0.4345630000000  0.4700480000000 1.0
C      1  0.5477220000000  0.5134540000000  0.4973050000000 1.0
C      1  0.5275870000000  0.4438320000000  0.5067520000000 1.0
C      1  0.4923030000000  0.4433760000000  0.4575960000000 1.0
C      1  0.5277100000000  0.5446830000000  0.4827440000000 1.0
C      1  0.4976250000000  0.5475880000000  0.4674900000000 1.0
C      1  0.5614420000000  0.5264690000000  0.4713680000000 1.0
C      1  0.5607400000000  0.5302580000000  0.5312980000000 1.0
C      1  0.5217910000000  0.5341200000000  0.5686870000000 1.0
C      1  0.5006170000000  0.4798250000000  0.4438680000000 1.0
C      1  0.5036170000000  0.4891980000000  0.5590100000000 1.0
C      1  0.5065100000000  0.5674490000000  0.5371670000000 1.0
C      1  0.5049210000000  0.4499060000000  0.5500210000000 1.0
C      1  0.4401800000000  0.4553950000000  0.5284480000000 1.0
C      1  0.4665880000000  0.4975310000000  0.5119510000000 1.0
C      1  0.5297800000000  0.5107390000000  0.4234140000000 1.0
C      1  0.4599280000000  0.5391810000000  0.4576120000000 1.0
C      1  0.4778780000000  0.4561860000000  0.4359480000000 1.0
C      1  0.4203220000000  0.4778740000000  0.5221830000000 1.0
C      1  0.5864320000000  0.5150560000000  0.5306250000000 1.0
C      1  0.4512360000000  0.4653030000000  0.4346970000000 1.0
C      1  0.4516140000000  0.4455900000000  0.4981400000000 1.0
C      1  0.4760810000000  0.4925270000000  0.4620160000000 1.0
C      1  0.4283270000000  0.4886930000000  0.4760360000000 1.0
C      1  0.5236930000000  0.5180060000000  0.4620280000000 1.0
C      1  0.4429990000000  0.5416060000000  0.5077200000000 1.0
C      1  0.5394760000000  0.5174390000000  0.5487970000000 1.0
C      1  0.5089030000000  0.4209180000000  0.4965510000000 1.0
C      1  0.4456090000000  0.4852180000000  0.4549030000000 1.0
C      1  0.4391370000000  0.5424140000000  0.4753200000000 1.0
C      1  0.5525330000000  0.5105410000000  0.4455170000000 1.0
C      1  0.5173110000000  0.5041000000000  0.5037860000000 1.0
C      1  0.5624420000000  0.4759790000000  0.4858050000000 1.0
C      1  0.5020690000000  0.5099900000000  0.5774470000000 1.0
END
