TITL C-2847952-8118-448 -0.00101071228118221 125000 -827.395469995978 0 0 155 (C1) n - 1
REM
REM in /home/bkarasulu/work/CARBON/AIRSS/Generating-Clusters/AIREBO/with-SteepDescent/Only-C1/SD-CG-opt/Try1-1.4A-POS3A/HFTN-CG
REM
REM
REM
REM
REM
REM ./C.cell (11c1c37f851c82e70ff6c80c92926a4b)
REM
REM compiler GCC version 9.2.1 20190827 (Red Hat 9.2.1-1)
REM options -cpp -mtune=generic -march=x86-64 -g -O0 -fpre-include=/usr/include/finclude/math-vector-fortran.h
REM seed 1078667845 748998802 60887056 -92469607 -2032528418 378895872 1891225390 1571423244 -306460518 399641519 -788947606 -2113501374 1784221559 -876937041 1654791565 -464672211 196068456 -528581842 -2074770982 -1176945259 384452519 1737187780 -351393531 1553993661 -71452410 -866947599 1015176444 1544818644 686528004 161708429 259670709 929616936 -1119803024
REM
CELL 1.54180   50.00000   50.00000   50.00000   90.00000   90.00000   90.00000
LATT -1
SFAC C  
C      1  0.4757400000000  0.5232930000000  0.3799210000000 1.0
C      1  0.3924240000000  0.4952050000000  0.5281120000000 1.0
C      1  0.5183120000000  0.4944270000000  0.4907430000000 1.0
C      1  0.5432410000000  0.5027010000000  0.5442980000000 1.0
C      1  0.4790400000000  0.5279610000000  0.4539220000000 1.0
C      1  0.4322490000000  0.5054500000000  0.5583580000000 1.0
C      1  0.5085320000000  0.5595710000000  0.4786960000000 1.0
C      1  0.4420300000000  0.4910280000000  0.5939880000000 1.0
C      1  0.4860290000000  0.5187280000000  0.5705560000000 1.0
C      1  0.5794920000000  0.5173450000000  0.5523340000000 1.0
C      1  0.5128920000000  0.4396790000000  0.5370400000000 1.0
C      1  0.4912940000000  0.4592600000000  0.5237560000000 1.0
C      1  0.5355190000000  0.5570710000000  0.4992760000000 1.0
C      1  0.4415510000000  0.5565730000000  0.4821240000000 1.0
C      1  0.4177810000000  0.4642400000000  0.5076190000000 1.0
C      1  0.4898160000000  0.5506740000000  0.5595330000000 1.0
C      1  0.4612610000000  0.4435010000000  0.4904500000000 1.0
C      1  0.4980430000000  0.4627820000000  0.5833870000000 1.0
C      1  0.5282710000000  0.5311350000000  0.3895830000000 1.0
C      1  0.5145520000000  0.5193290000000  0.5367380000000 1.0
C      1  0.5765920000000  0.4175430000000  0.4905340000000 1.0
C      1  0.5302100000000  0.4600510000000  0.4109830000000 1.0
C      1  0.4329440000000  0.4285070000000  0.5198390000000 1.0
C      1  0.4629300000000  0.4968980000000  0.5587440000000 1.0
C      1  0.4751510000000  0.5536730000000  0.4758760000000 1.0
C      1  0.4989470000000  0.4597250000000  0.4952410000000 1.0
C      1  0.5305680000000  0.4010420000000  0.5090490000000 1.0
C      1  0.4141520000000  0.5178930000000  0.5035310000000 1.0
C      1  0.4457820000000  0.4903010000000  0.4596200000000 1.0
C      1  0.5412350000000  0.4320450000000  0.5020190000000 1.0
C      1  0.5907620000000  0.4440010000000  0.4907620000000 1.0
C      1  0.5885870000000  0.5079490000000  0.4478730000000 1.0
C      1  0.4310890000000  0.5016120000000  0.4113680000000 1.0
C      1  0.5976020000000  0.4844220000000  0.4639760000000 1.0
C      1  0.4163080000000  0.5077610000000  0.4603690000000 1.0
C      1  0.5637070000000  0.4369570000000  0.5518450000000 1.0
C      1  0.4441780000000  0.4396860000000  0.4499210000000 1.0
C      1  0.5595470000000  0.4832330000000  0.5870680000000 1.0
C      1  0.5614610000000  0.4453980000000  0.4570750000000 1.0
C      1  0.5084750000000  0.4341050000000  0.5683000000000 1.0
C      1  0.4858390000000  0.5989410000000  0.5227780000000 1.0
C      1  0.4119470000000  0.4900340000000  0.4887610000000 1.0
C      1  0.5238750000000  0.5868210000000  0.4487450000000 1.0
C      1  0.4379490000000  0.4661630000000  0.5537950000000 1.0
C      1  0.4831380000000  0.5318650000000  0.5330010000000 1.0
C      1  0.4466210000000  0.4799050000000  0.5165070000000 1.0
C      1  0.5167270000000  0.5976220000000  0.5135510000000 1.0
C      1  0.4852800000000  0.4150950000000  0.5515280000000 1.0
C      1  0.5831240000000  0.5500700000000  0.4650180000000 1.0
C      1  0.4706770000000  0.5803950000000  0.5052780000000 1.0
C      1  0.4600560000000  0.4858430000000  0.4873070000000 1.0
C      1  0.5273600000000  0.4120770000000  0.4781530000000 1.0
C      1  0.5392560000000  0.5862900000000  0.5363770000000 1.0
C      1  0.5300440000000  0.4678330000000  0.5285770000000 1.0
C      1  0.4265930000000  0.4215100000000  0.4933380000000 1.0
C      1  0.5778240000000  0.4692180000000  0.5624710000000 1.0
C      1  0.6268330000000  0.5142660000000  0.4937110000000 1.0
C      1  0.5234290000000  0.5552770000000  0.5792470000000 1.0
C      1  0.4641130000000  0.5010550000000  0.6096030000000 1.0
C      1  0.5051250000000  0.4866680000000  0.5359790000000 1.0
C      1  0.4805640000000  0.4024680000000  0.5203020000000 1.0
C      1  0.5342340000000  0.5408010000000  0.5542930000000 1.0
C      1  0.5318700000000  0.4659940000000  0.5847100000000 1.0
C      1  0.4706420000000  0.5387900000000  0.4234960000000 1.0
C      1  0.5206460000000  0.4933070000000  0.4303720000000 1.0
C      1  0.5544410000000  0.5122770000000  0.5735840000000 1.0
C      1  0.4514730000000  0.4611100000000  0.4284120000000 1.0
C      1  0.4891080000000  0.4865550000000  0.4806420000000 1.0
C      1  0.5682030000000  0.4315250000000  0.5211600000000 1.0
C      1  0.6049410000000  0.4975200000000  0.4930930000000 1.0
C      1  0.4386570000000  0.5478650000000  0.4306370000000 1.0
C      1  0.4467090000000  0.5749800000000  0.5366440000000 1.0
C      1  0.5626510000000  0.5715400000000  0.4917280000000 1.0
C      1  0.4529220000000  0.5205600000000  0.4695380000000 1.0
C      1  0.5132630000000  0.5023670000000  0.4015450000000 1.0
C      1  0.5566880000000  0.4886600000000  0.4621390000000 1.0
C      1  0.5689560000000  0.5060890000000  0.4264460000000 1.0
C      1  0.4869040000000  0.4486600000000  0.4685730000000 1.0
C      1  0.5040120000000  0.4185330000000  0.4363930000000 1.0
C      1  0.5512700000000  0.5909860000000  0.4680030000000 1.0
C      1  0.5112460000000  0.4427840000000  0.4279940000000 1.0
C      1  0.5577290000000  0.4857880000000  0.5203680000000 1.0
C      1  0.5124480000000  0.5738560000000  0.5526660000000 1.0
C      1  0.4992860000000  0.4724130000000  0.4040240000000 1.0
C      1  0.5976850000000  0.4846150000000  0.5211900000000 1.0
C      1  0.4616030000000  0.4346390000000  0.5545120000000 1.0
C      1  0.4731880000000  0.5784250000000  0.4528250000000 1.0
C      1  0.4750540000000  0.4855030000000  0.4239760000000 1.0
C      1  0.4699320000000  0.4261500000000  0.4552070000000 1.0
C      1  0.5116520000000  0.4979640000000  0.5962680000000 1.0
C      1  0.5344350000000  0.5628790000000  0.4002470000000 1.0
C      1  0.5503110000000  0.5285300000000  0.4153460000000 1.0
C      1  0.4682590000000  0.4654370000000  0.5671940000000 1.0
C      1  0.4539210000000  0.5162020000000  0.5014600000000 1.0
C      1  0.5356730000000  0.5409880000000  0.4563260000000 1.0
C      1  0.5019310000000  0.4913060000000  0.5652830000000 1.0
C      1  0.5579960000000  0.4191220000000  0.4682780000000 1.0
C      1  0.4369700000000  0.4217140000000  0.5668270000000 1.0
C      1  0.5767040000000  0.5399580000000  0.5312860000000 1.0
C      1  0.5368710000000  0.4631730000000  0.4634360000000 1.0
C      1  0.3773310000000  0.5157530000000  0.5189880000000 1.0
C      1  0.4877380000000  0.4838220000000  0.6090010000000 1.0
C      1  0.4535720000000  0.5441060000000  0.5445620000000 1.0
C      1  0.5579920000000  0.5631760000000  0.4529310000000 1.0
C      1  0.4141510000000  0.5575120000000  0.5029880000000 1.0
C      1  0.4595290000000  0.4493280000000  0.5239130000000 1.0
C      1  0.5712220000000  0.4930920000000  0.4925650000000 1.0
C      1  0.5512150000000  0.4791850000000  0.4297280000000 1.0
C      1  0.4970980000000  0.4099560000000  0.4677310000000 1.0
C      1  0.5306740000000  0.4627880000000  0.4949540000000 1.0
C      1  0.5311420000000  0.5185150000000  0.5081250000000 1.0
C      1  0.4703570000000  0.5303060000000  0.6047160000000 1.0
C      1  0.4280030000000  0.5304640000000  0.5719300000000 1.0
C      1  0.4379230000000  0.5379720000000  0.5173430000000 1.0
C      1  0.5513760000000  0.5581360000000  0.5394650000000 1.0
C      1  0.5205850000000  0.5901860000000  0.4826270000000 1.0
C      1  0.5107840000000  0.5646820000000  0.5195380000000 1.0
C      1  0.4104890000000  0.4728750000000  0.4600420000000 1.0
C      1  0.4084240000000  0.4679270000000  0.5402720000000 1.0
C      1  0.4867920000000  0.4965330000000  0.4513540000000 1.0
C      1  0.5456640000000  0.4630960000000  0.5560480000000 1.0
C      1  0.4837030000000  0.5514960000000  0.5087180000000 1.0
C      1  0.5064710000000  0.4688590000000  0.4492860000000 1.0
C      1  0.3880580000000  0.5379140000000  0.5028580000000 1.0
C      1  0.5202740000000  0.5383760000000  0.4278880000000 1.0
C      1  0.5131480000000  0.5707760000000  0.4258030000000 1.0
C      1  0.4711110000000  0.4535250000000  0.4016560000000 1.0
C      1  0.5801920000000  0.4609050000000  0.5144450000000 1.0
C      1  0.4741390000000  0.4118610000000  0.4920040000000 1.0
C      1  0.4304480000000  0.4517650000000  0.4786080000000 1.0
C      1  0.4295380000000  0.5388890000000  0.4568930000000 1.0
C      1  0.5102450000000  0.4094390000000  0.5283900000000 1.0
C      1  0.5579070000000  0.5598490000000  0.4225170000000 1.0
C      1  0.5372480000000  0.5102040000000  0.4504050000000 1.0
C      1  0.4551440000000  0.5456660000000  0.5785750000000 1.0
C      1  0.4444720000000  0.4031740000000  0.4832860000000 1.0
C      1  0.4167980000000  0.4798610000000  0.5740850000000 1.0
C      1  0.4382030000000  0.5799780000000  0.5063170000000 1.0
C      1  0.4691260000000  0.5023700000000  0.5285470000000 1.0
C      1  0.4250290000000  0.5024420000000  0.5299930000000 1.0
C      1  0.5320000000000  0.5200190000000  0.5946520000000 1.0
C      1  0.5387170000000  0.4256590000000  0.5678640000000 1.0
C      1  0.4705330000000  0.5742910000000  0.5685840000000 1.0
C      1  0.5828590000000  0.5651840000000  0.5093620000000 1.0
C      1  0.4596220000000  0.5098060000000  0.4095320000000 1.0
C      1  0.5748010000000  0.5213910000000  0.4758960000000 1.0
C      1  0.5594700000000  0.5333240000000  0.5037190000000 1.0
C      1  0.4971250000000  0.5322500000000  0.4031980000000 1.0
C      1  0.4826080000000  0.5698200000000  0.4277610000000 1.0
C      1  0.5909070000000  0.4921870000000  0.5467520000000 1.0
C      1  0.5022340000000  0.5365170000000  0.5945770000000 1.0
C      1  0.4278940000000  0.4819930000000  0.4322850000000 1.0
C      1  0.4680420000000  0.5940320000000  0.5462710000000 1.0
C      1  0.5873390000000  0.4580140000000  0.4654110000000 1.0
C      1  0.5173830000000  0.5270080000000  0.4804630000000 1.0
END
