TITL C-2848502-4955-275 -0.00326667716893259 125000 -826.711675557443 0 0 158 (C1) n - 1
REM
REM in /home/bkarasulu/work/CARBON/AIRSS/Generating-Clusters/AIREBO/with-SteepDescent/Only-C1/SD-CG-opt/Try1-1.4A-POS3A/HFTN-CG
REM
REM
REM
REM
REM
REM ./C.cell (11c1c37f851c82e70ff6c80c92926a4b)
REM
REM compiler GCC version 9.2.1 20190827 (Red Hat 9.2.1-1)
REM options -cpp -mtune=generic -march=x86-64 -g -O0 -fpre-include=/usr/include/finclude/math-vector-fortran.h
REM seed 226692021 708979396 -1913728527 -1543067690 478194600 -166136697 -1060018604 -734561245 1747229555 281910933 -714666763 1621966759 -741831669 -1610378675 2044221525 -384488342 -645301606 -545197726 1264869827 -1340430459 1983412398 -2032271722 -196500542 1040707786 1459754201 674840846 -407816124 364080362 909316035 -1234699028 784836274 547393086 -1336078470
REM
CELL 1.54180   50.00000   50.00000   50.00000   90.00000   90.00000   90.00000
LATT -1
SFAC C  
C      1  0.5656280000000  0.5252150000000  0.4375260000000 1.0
C      1  0.4939510000000  0.5212510000000  0.4869070000000 1.0
C      1  0.5729540000000  0.5694000000000  0.5055180000000 1.0
C      1  0.5161530000000  0.5385010000000  0.5398390000000 1.0
C      1  0.5409010000000  0.5363170000000  0.5630520000000 1.0
C      1  0.5042890000000  0.4712930000000  0.5308260000000 1.0
C      1  0.4909370000000  0.4771490000000  0.5001000000000 1.0
C      1  0.5900440000000  0.5018510000000  0.4337230000000 1.0
C      1  0.5015810000000  0.4058550000000  0.5106430000000 1.0
C      1  0.5175780000000  0.4416750000000  0.5369840000000 1.0
C      1  0.4943080000000  0.4737180000000  0.3959420000000 1.0
C      1  0.4704680000000  0.4692670000000  0.4184770000000 1.0
C      1  0.4751120000000  0.5674300000000  0.4939910000000 1.0
C      1  0.4048390000000  0.4386790000000  0.5389940000000 1.0
C      1  0.5490520000000  0.4601830000000  0.5765060000000 1.0
C      1  0.4714600000000  0.5642420000000  0.5388520000000 1.0
C      1  0.5608650000000  0.4741730000000  0.4107970000000 1.0
C      1  0.4791980000000  0.5882530000000  0.5799410000000 1.0
C      1  0.4829620000000  0.4569470000000  0.6022920000000 1.0
C      1  0.4186980000000  0.4674430000000  0.4523550000000 1.0
C      1  0.4671140000000  0.4559930000000  0.4899750000000 1.0
C      1  0.4698440000000  0.5910860000000  0.4419780000000 1.0
C      1  0.4936430000000  0.5478970000000  0.4159590000000 1.0
C      1  0.4668990000000  0.5598960000000  0.4286950000000 1.0
C      1  0.5029410000000  0.5949230000000  0.4862750000000 1.0
C      1  0.4212370000000  0.5755960000000  0.5405740000000 1.0
C      1  0.4899610000000  0.5329730000000  0.4597380000000 1.0
C      1  0.5257610000000  0.5593660000000  0.5046540000000 1.0
C      1  0.4824500000000  0.5615120000000  0.4653950000000 1.0
C      1  0.4444350000000  0.5117600000000  0.4625760000000 1.0
C      1  0.4723460000000  0.4371070000000  0.4294930000000 1.0
C      1  0.4648660000000  0.5672120000000  0.5704060000000 1.0
C      1  0.4998110000000  0.5043740000000  0.5279070000000 1.0
C      1  0.4156910000000  0.5544910000000  0.4901610000000 1.0
C      1  0.5720010000000  0.5343810000000  0.4697330000000 1.0
C      1  0.5959060000000  0.4632580000000  0.4838140000000 1.0
C      1  0.5304550000000  0.5196910000000  0.4679350000000 1.0
C      1  0.4100750000000  0.4923480000000  0.4681880000000 1.0
C      1  0.4794890000000  0.6049050000000  0.5066040000000 1.0
C      1  0.5236150000000  0.5361220000000  0.5989750000000 1.0
C      1  0.5668890000000  0.5467850000000  0.5514700000000 1.0
C      1  0.4576050000000  0.4903950000000  0.5396130000000 1.0
C      1  0.4641190000000  0.4970780000000  0.5079120000000 1.0
C      1  0.4184090000000  0.5270220000000  0.4957470000000 1.0
C      1  0.5908330000000  0.4542590000000  0.5138370000000 1.0
C      1  0.4404780000000  0.4877060000000  0.5815850000000 1.0
C      1  0.5551550000000  0.5196360000000  0.3883280000000 1.0
C      1  0.4340890000000  0.4168340000000  0.5062820000000 1.0
C      1  0.3906820000000  0.4716710000000  0.5073260000000 1.0
C      1  0.4884810000000  0.4245660000000  0.5337830000000 1.0
C      1  0.5162540000000  0.4968180000000  0.4887190000000 1.0
C      1  0.4701110000000  0.5305430000000  0.5085580000000 1.0
C      1  0.5039740000000  0.5087550000000  0.6056900000000 1.0
C      1  0.5251570000000  0.3983950000000  0.4440810000000 1.0
C      1  0.5868830000000  0.4496200000000  0.4585110000000 1.0
C      1  0.5535320000000  0.4562590000000  0.5460950000000 1.0
C      1  0.5541270000000  0.4191080000000  0.4915200000000 1.0
C      1  0.4467550000000  0.5491650000000  0.5248140000000 1.0
C      1  0.4832020000000  0.5952770000000  0.5338430000000 1.0
C      1  0.5160860000000  0.4961100000000  0.4093460000000 1.0
C      1  0.4306930000000  0.5723880000000  0.5097850000000 1.0
C      1  0.4798350000000  0.5276180000000  0.5909400000000 1.0
C      1  0.5112810000000  0.4393690000000  0.4677090000000 1.0
C      1  0.4973340000000  0.4592230000000  0.4511110000000 1.0
C      1  0.5231800000000  0.5597340000000  0.5764060000000 1.0
C      1  0.5746130000000  0.4239770000000  0.5172110000000 1.0
C      1  0.4654820000000  0.4572430000000  0.4560340000000 1.0
C      1  0.5695960000000  0.5141350000000  0.5074310000000 1.0
C      1  0.4660920000000  0.4464640000000  0.5205040000000 1.0
C      1  0.5294340000000  0.5930190000000  0.5014420000000 1.0
C      1  0.4114840000000  0.4909390000000  0.5260910000000 1.0
C      1  0.5540100000000  0.5536130000000  0.4369910000000 1.0
C      1  0.4949220000000  0.5524690000000  0.5172340000000 1.0
C      1  0.6034140000000  0.4950270000000  0.4788190000000 1.0
C      1  0.4311590000000  0.4236410000000  0.4796850000000 1.0
C      1  0.5488380000000  0.5664900000000  0.4642550000000 1.0
C      1  0.4732270000000  0.5200140000000  0.5409160000000 1.0
C      1  0.5211340000000  0.4218320000000  0.4159980000000 1.0
C      1  0.4930260000000  0.4246000000000  0.4115950000000 1.0
C      1  0.5076360000000  0.4476050000000  0.4979210000000 1.0
C      1  0.5406680000000  0.5104320000000  0.5846430000000 1.0
C      1  0.5546410000000  0.5804800000000  0.4869240000000 1.0
C      1  0.4600110000000  0.4092300000000  0.5429080000000 1.0
C      1  0.4583370000000  0.5293730000000  0.4161060000000 1.0
C      1  0.5548210000000  0.4832100000000  0.5897700000000 1.0
C      1  0.5257030000000  0.4845150000000  0.5508860000000 1.0
C      1  0.5400230000000  0.4495560000000  0.4215580000000 1.0
C      1  0.4196880000000  0.5626780000000  0.4643530000000 1.0
C      1  0.5053430000000  0.4071590000000  0.4639550000000 1.0
C      1  0.5021940000000  0.4161890000000  0.5637590000000 1.0
C      1  0.4162320000000  0.5276920000000  0.5526390000000 1.0
C      1  0.4927740000000  0.4469590000000  0.5725080000000 1.0
C      1  0.5429880000000  0.4780030000000  0.4981370000000 1.0
C      1  0.5243550000000  0.5190000000000  0.5131950000000 1.0
C      1  0.4854580000000  0.4936100000000  0.4348900000000 1.0
C      1  0.5632170000000  0.5670830000000  0.5324320000000 1.0
C      1  0.4920020000000  0.5174470000000  0.4124010000000 1.0
C      1  0.4565340000000  0.4606770000000  0.5812140000000 1.0
C      1  0.4299230000000  0.5195510000000  0.5243860000000 1.0
C      1  0.5481320000000  0.4206680000000  0.4375680000000 1.0
C      1  0.5481040000000  0.5052130000000  0.4163090000000 1.0
C      1  0.4757600000000  0.4193680000000  0.4583420000000 1.0
C      1  0.4508500000000  0.5912260000000  0.4950430000000 1.0
C      1  0.5966290000000  0.5276930000000  0.5146180000000 1.0
C      1  0.4266120000000  0.4910800000000  0.4321100000000 1.0
C      1  0.5398110000000  0.4532840000000  0.4749940000000 1.0
C      1  0.5887550000000  0.5294200000000  0.5537850000000 1.0
C      1  0.5077960000000  0.4889040000000  0.4563530000000 1.0
C      1  0.4143040000000  0.5163040000000  0.4474850000000 1.0
C      1  0.4496410000000  0.5604490000000  0.4571210000000 1.0
C      1  0.5055900000000  0.5809660000000  0.4573180000000 1.0
C      1  0.4329570000000  0.4430880000000  0.5273760000000 1.0
C      1  0.4806920000000  0.4030880000000  0.4877950000000 1.0
C      1  0.5818570000000  0.4719360000000  0.4360250000000 1.0
C      1  0.4544090000000  0.5367220000000  0.4790320000000 1.0
C      1  0.4497280000000  0.4961900000000  0.4174580000000 1.0
C      1  0.4360750000000  0.4539050000000  0.4762280000000 1.0
C      1  0.5274270000000  0.4217150000000  0.4994910000000 1.0
C      1  0.5108260000000  0.5665460000000  0.3956590000000 1.0
C      1  0.4291460000000  0.4898980000000  0.5508960000000 1.0
C      1  0.4141730000000  0.5078660000000  0.5751180000000 1.0
C      1  0.4246170000000  0.4675250000000  0.5052090000000 1.0
C      1  0.5745370000000  0.4878670000000  0.4929990000000 1.0
C      1  0.5467230000000  0.4241000000000  0.5373480000000 1.0
C      1  0.5371440000000  0.4951630000000  0.4468850000000 1.0
C      1  0.5966930000000  0.5145210000000  0.4598460000000 1.0
C      1  0.5867900000000  0.5478980000000  0.4950780000000 1.0
C      1  0.5115740000000  0.4655720000000  0.4236560000000 1.0
C      1  0.5622560000000  0.4317190000000  0.4629110000000 1.0
C      1  0.4570980000000  0.4009540000000  0.5122530000000 1.0
C      1  0.4772370000000  0.4637910000000  0.5473700000000 1.0
C      1  0.5215580000000  0.5816050000000  0.5591670000000 1.0
C      1  0.4535940000000  0.5375150000000  0.5625540000000 1.0
C      1  0.5105010000000  0.4991650000000  0.5737220000000 1.0
C      1  0.5494470000000  0.4862890000000  0.5306710000000 1.0
C      1  0.5509160000000  0.4674170000000  0.4489280000000 1.0
C      1  0.5255910000000  0.4025840000000  0.5343490000000 1.0
C      1  0.4251730000000  0.5553110000000  0.5578720000000 1.0
C      1  0.5032410000000  0.4779340000000  0.6200660000000 1.0
C      1  0.5471560000000  0.5352070000000  0.4929850000000 1.0
C      1  0.4748900000000  0.4911420000000  0.6065900000000 1.0
C      1  0.4511960000000  0.5172000000000  0.5877400000000 1.0
C      1  0.5134350000000  0.5995920000000  0.4350350000000 1.0
C      1  0.4689850000000  0.5177030000000  0.4450020000000 1.0
C      1  0.5819720000000  0.4816220000000  0.5317880000000 1.0
C      1  0.5341970000000  0.5780700000000  0.5317730000000 1.0
C      1  0.4453510000000  0.4091140000000  0.4615900000000 1.0
C      1  0.5253580000000  0.5537170000000  0.4235970000000 1.0
C      1  0.4730980000000  0.5998920000000  0.4707460000000 1.0
C      1  0.4342300000000  0.4971940000000  0.4916230000000 1.0
C      1  0.4796100000000  0.4846430000000  0.5741250000000 1.0
C      1  0.4976170000000  0.5275370000000  0.5629970000000 1.0
C      1  0.5197570000000  0.5500520000000  0.4569370000000 1.0
C      1  0.5954210000000  0.5055540000000  0.5370480000000 1.0
C      1  0.4977430000000  0.5966320000000  0.5594860000000 1.0
C      1  0.4484470000000  0.4378720000000  0.5572150000000 1.0
C      1  0.5582120000000  0.4524250000000  0.5126360000000 1.0
C      1  0.5257170000000  0.4403870000000  0.5699720000000 1.0
END
