TITL C-2847955-7945-528 0.000923470200385579 125000 -602.272023667306 0 0 109 (C1) n - 1
REM
REM in /home/bkarasulu/work/CARBON/AIRSS/Generating-Clusters/AIREBO/with-SteepDescent/Only-C1/SD-CG-opt/Try1-1.4A-POS3A/HFTN-CG
REM
REM
REM
REM
REM
REM ./C.cell (11c1c37f851c82e70ff6c80c92926a4b)
REM
REM compiler GCC version 9.2.1 20190827 (Red Hat 9.2.1-1)
REM options -cpp -mtune=generic -march=x86-64 -g -O0 -fpre-include=/usr/include/finclude/math-vector-fortran.h
REM seed 1017122120 -901256076 -1897088414 1600107996 40430594 1095185171 -478435489 255551581 338001990 -28733250 1538719286 -2127956519 734100443 -1608734772 -1307688812 60612136 -856436200 -954927919 2124825994 1084979194 -1554602902 -1429998118 -693076458 1533573039 -393839795 1396665354 -1053457612 654786352 844286765 1414253255 -1718352803 -96271628 1575884696
REM
CELL 1.54180   50.00000   50.00000   50.00000   90.00000   90.00000   90.00000
LATT -1
SFAC C  
C      1  0.4246400000000  0.5325450000000  0.5290060000000 1.0
C      1  0.5490150000000  0.4887730000000  0.5477180000000 1.0
C      1  0.4543310000000  0.5494270000000  0.5082780000000 1.0
C      1  0.5354530000000  0.5036600000000  0.4201160000000 1.0
C      1  0.4085050000000  0.5172550000000  0.5134090000000 1.0
C      1  0.5134760000000  0.4699200000000  0.4743020000000 1.0
C      1  0.5930790000000  0.4934980000000  0.5039580000000 1.0
C      1  0.5128760000000  0.5749280000000  0.4817260000000 1.0
C      1  0.4914160000000  0.4258250000000  0.4663690000000 1.0
C      1  0.5193560000000  0.4255320000000  0.5511610000000 1.0
C      1  0.4635150000000  0.4093670000000  0.5009480000000 1.0
C      1  0.4582980000000  0.5339110000000  0.4478200000000 1.0
C      1  0.5420840000000  0.4956470000000  0.4587210000000 1.0
C      1  0.4857880000000  0.5486840000000  0.4493610000000 1.0
C      1  0.4585180000000  0.4627880000000  0.4752210000000 1.0
C      1  0.5351630000000  0.4730770000000  0.4349710000000 1.0
C      1  0.4501780000000  0.4785840000000  0.5214430000000 1.0
C      1  0.4960290000000  0.5056320000000  0.5634370000000 1.0
C      1  0.4382610000000  0.4181670000000  0.4909730000000 1.0
C      1  0.4995490000000  0.4452490000000  0.4874570000000 1.0
C      1  0.5073240000000  0.4774210000000  0.5770470000000 1.0
C      1  0.4620130000000  0.5890730000000  0.4811670000000 1.0
C      1  0.4330740000000  0.5493570000000  0.4892750000000 1.0
C      1  0.4781350000000  0.5045610000000  0.4905150000000 1.0
C      1  0.5708050000000  0.4399840000000  0.5042330000000 1.0
C      1  0.4866040000000  0.4593800000000  0.5797120000000 1.0
C      1  0.5237340000000  0.5714560000000  0.5119230000000 1.0
C      1  0.4550410000000  0.4945650000000  0.5815040000000 1.0
C      1  0.5707300000000  0.5770950000000  0.4978940000000 1.0
C      1  0.4432700000000  0.4757600000000  0.5645400000000 1.0
C      1  0.5030100000000  0.4892940000000  0.4537310000000 1.0
C      1  0.5334330000000  0.4699530000000  0.5684110000000 1.0
C      1  0.4740060000000  0.5252760000000  0.4195510000000 1.0
C      1  0.5723690000000  0.5101090000000  0.5450410000000 1.0
C      1  0.4045130000000  0.4740060000000  0.4933950000000 1.0
C      1  0.4525770000000  0.5041170000000  0.5302200000000 1.0
C      1  0.4874020000000  0.5987480000000  0.5552400000000 1.0
C      1  0.4310160000000  0.4664870000000  0.4466150000000 1.0
C      1  0.5462170000000  0.4644280000000  0.5241420000000 1.0
C      1  0.4756960000000  0.4258810000000  0.5200870000000 1.0
C      1  0.5589030000000  0.4405770000000  0.4740250000000 1.0
C      1  0.5065100000000  0.5149060000000  0.4211080000000 1.0
C      1  0.4429610000000  0.4374490000000  0.4710400000000 1.0
C      1  0.5176390000000  0.5162680000000  0.4593450000000 1.0
C      1  0.4847680000000  0.4404350000000  0.4425920000000 1.0
C      1  0.4332950000000  0.5145570000000  0.5551950000000 1.0
C      1  0.5399130000000  0.5349170000000  0.4322460000000 1.0
C      1  0.4121010000000  0.4706480000000  0.4670140000000 1.0
C      1  0.5344640000000  0.5792680000000  0.4575660000000 1.0
C      1  0.5695900000000  0.5456900000000  0.5033720000000 1.0
C      1  0.4800900000000  0.4710510000000  0.4960330000000 1.0
C      1  0.4812590000000  0.4933610000000  0.4284840000000 1.0
C      1  0.5973940000000  0.5029040000000  0.5290860000000 1.0
C      1  0.4628430000000  0.4528300000000  0.5582690000000 1.0
C      1  0.5289820000000  0.4111290000000  0.5249090000000 1.0
C      1  0.4609010000000  0.5085490000000  0.4651980000000 1.0
C      1  0.5411770000000  0.4434460000000  0.5626240000000 1.0
C      1  0.5061580000000  0.4326280000000  0.5143930000000 1.0
C      1  0.5655160000000  0.5003050000000  0.4344210000000 1.0
C      1  0.4762160000000  0.4590770000000  0.5276320000000 1.0
C      1  0.4770580000000  0.5679490000000  0.4981030000000 1.0
C      1  0.4655610000000  0.5209480000000  0.5638930000000 1.0
C      1  0.5041880000000  0.4600940000000  0.4363520000000 1.0
C      1  0.5751770000000  0.4350780000000  0.4380480000000 1.0
C      1  0.5245960000000  0.4987290000000  0.5308560000000 1.0
C      1  0.4947810000000  0.5510060000000  0.4775200000000 1.0
C      1  0.4944660000000  0.5713410000000  0.5271130000000 1.0
C      1  0.5067260000000  0.5763640000000  0.5591240000000 1.0
C      1  0.5112040000000  0.5576750000000  0.5775730000000 1.0
C      1  0.4809030000000  0.4027560000000  0.4789430000000 1.0
C      1  0.5716700000000  0.4736820000000  0.5035790000000 1.0
C      1  0.5691170000000  0.4142960000000  0.4553240000000 1.0
C      1  0.5366260000000  0.5435150000000  0.4970420000000 1.0
C      1  0.5549710000000  0.5353600000000  0.5314350000000 1.0
C      1  0.5245620000000  0.5761590000000  0.4300080000000 1.0
C      1  0.5374660000000  0.4573230000000  0.4912870000000 1.0
C      1  0.4416380000000  0.5726630000000  0.5592350000000 1.0
C      1  0.4553480000000  0.4434910000000  0.4406020000000 1.0
C      1  0.4351720000000  0.5511670000000  0.4565890000000 1.0
C      1  0.5189020000000  0.5292900000000  0.5693740000000 1.0
C      1  0.5563490000000  0.4166550000000  0.5211400000000 1.0
C      1  0.4518040000000  0.4270870000000  0.5608090000000 1.0
C      1  0.4196320000000  0.4847350000000  0.5462420000000 1.0
C      1  0.5917150000000  0.5056630000000  0.4784770000000 1.0
C      1  0.5807530000000  0.5313320000000  0.4776990000000 1.0
C      1  0.5085450000000  0.5479980000000  0.4286470000000 1.0
C      1  0.5654920000000  0.5377630000000  0.4547230000000 1.0
C      1  0.4596100000000  0.4822810000000  0.4492180000000 1.0
C      1  0.5215880000000  0.5290810000000  0.5370030000000 1.0
C      1  0.5456830000000  0.4891070000000  0.4879830000000 1.0
C      1  0.4116230000000  0.4881540000000  0.5169360000000 1.0
C      1  0.4446250000000  0.5810800000000  0.4648050000000 1.0
C      1  0.4959690000000  0.5385720000000  0.5257390000000 1.0
C      1  0.4114410000000  0.5482720000000  0.4422360000000 1.0
C      1  0.4526310000000  0.5467190000000  0.5421490000000 1.0
C      1  0.5633840000000  0.4632800000000  0.4489270000000 1.0
C      1  0.4983900000000  0.4824110000000  0.5386030000000 1.0
C      1  0.5639360000000  0.4406580000000  0.5407950000000 1.0
C      1  0.5448220000000  0.5860630000000  0.4892310000000 1.0
C      1  0.4704390000000  0.5228340000000  0.5154600000000 1.0
C      1  0.4143130000000  0.4100510000000  0.4998420000000 1.0
C      1  0.5034460000000  0.5227030000000  0.4875610000000 1.0
C      1  0.4236640000000  0.5802340000000  0.5759130000000 1.0
C      1  0.5836170000000  0.4885110000000  0.4574110000000 1.0
C      1  0.4650090000000  0.5816340000000  0.5406330000000 1.0
C      1  0.5502440000000  0.5266360000000  0.5642680000000 1.0
C      1  0.5163160000000  0.4556800000000  0.5338650000000 1.0
C      1  0.5298910000000  0.5106430000000  0.5026260000000 1.0
C      1  0.5337560000000  0.5458650000000  0.4638700000000 1.0
END
