TITL C-2847957-7266-479 0.000268051902997597 125000 -319.565502647377 0 0 58 (C1) n - 1
REM
REM in /home/bkarasulu/work/CARBON/AIRSS/Generating-Clusters/AIREBO/with-SteepDescent/Only-C1/SD-CG-opt/Try1-1.4A-POS3A/HFTN-CG
REM
REM
REM
REM
REM
REM ./C.cell (11c1c37f851c82e70ff6c80c92926a4b)
REM
REM compiler GCC version 9.2.1 20190827 (Red Hat 9.2.1-1)
REM options -cpp -mtune=generic -march=x86-64 -g -O0 -fpre-include=/usr/include/finclude/math-vector-fortran.h
REM seed 1144147491 -1942191550 1030495361 -860277692 577918947 455548527 -221741624 -1480890008 -62520113 -288536090 -1408287689 987619010 -320606137 -347324591 -2032453611 1093761486 -2022892439 558744506 1339617294 1580494249 141664612 956006582 -1286647956 -1845468346 1816795913 -227442235 1542754010 210130035 -627835646 1466625061 731084204 -1206727718 1526796368
REM
CELL 1.54180   50.00000   50.00000   50.00000   90.00000   90.00000   90.00000
LATT -1
SFAC C  
C      1  0.5710110000000  0.5033190000000  0.5086080000000 1.0
C      1  0.4569690000000  0.4738270000000  0.4392490000000 1.0
C      1  0.4570260000000  0.5260360000000  0.4830390000000 1.0
C      1  0.4952540000000  0.4684130000000  0.5749000000000 1.0
C      1  0.5700170000000  0.5293540000000  0.4989740000000 1.0
C      1  0.5393080000000  0.5250860000000  0.5666790000000 1.0
C      1  0.4890900000000  0.5064510000000  0.4275850000000 1.0
C      1  0.4412370000000  0.4836780000000  0.5081320000000 1.0
C      1  0.5615280000000  0.4333270000000  0.4834290000000 1.0
C      1  0.5331450000000  0.4758130000000  0.4805040000000 1.0
C      1  0.4819940000000  0.5532670000000  0.5046270000000 1.0
C      1  0.4728280000000  0.4857420000000  0.5777890000000 1.0
C      1  0.4801430000000  0.4308690000000  0.5503330000000 1.0
C      1  0.4464960000000  0.4566470000000  0.5112390000000 1.0
C      1  0.5432440000000  0.4879010000000  0.5106610000000 1.0
C      1  0.5219590000000  0.5073260000000  0.5208630000000 1.0
C      1  0.4935530000000  0.5697310000000  0.4805000000000 1.0
C      1  0.5390140000000  0.5548010000000  0.4810410000000 1.0
C      1  0.5159150000000  0.4791190000000  0.5570850000000 1.0
C      1  0.4904610000000  0.4406840000000  0.5737100000000 1.0
C      1  0.5254980000000  0.5088040000000  0.4772790000000 1.0
C      1  0.5798440000000  0.4765400000000  0.4993270000000 1.0
C      1  0.5601870000000  0.4604100000000  0.4870630000000 1.0
C      1  0.4870900000000  0.4773770000000  0.5299180000000 1.0
C      1  0.4670530000000  0.5334990000000  0.5555380000000 1.0
C      1  0.4369750000000  0.4996950000000  0.5312340000000 1.0
C      1  0.4947360000000  0.5039310000000  0.5497400000000 1.0
C      1  0.5497210000000  0.5490720000000  0.5088770000000 1.0
C      1  0.4427890000000  0.5401330000000  0.5037160000000 1.0
C      1  0.4741430000000  0.4506330000000  0.5278430000000 1.0
C      1  0.4670930000000  0.4775180000000  0.4672170000000 1.0
C      1  0.4939670000000  0.5020580000000  0.5098010000000 1.0
C      1  0.5615500000000  0.5591120000000  0.4607550000000 1.0
C      1  0.4521690000000  0.4972640000000  0.4850150000000 1.0
C      1  0.5180100000000  0.5285820000000  0.5468810000000 1.0
C      1  0.4548150000000  0.5473990000000  0.5326860000000 1.0
C      1  0.5526010000000  0.5111400000000  0.4593900000000 1.0
C      1  0.4702110000000  0.4377090000000  0.4983970000000 1.0
C      1  0.5273840000000  0.5534750000000  0.5256520000000 1.0
C      1  0.4608190000000  0.5025710000000  0.5523670000000 1.0
C      1  0.5361450000000  0.4752600000000  0.5400150000000 1.0
C      1  0.4836200000000  0.5400890000000  0.4670520000000 1.0
C      1  0.5007870000000  0.4575520000000  0.4267430000000 1.0
C      1  0.4864660000000  0.4526780000000  0.4738450000000 1.0
C      1  0.4915860000000  0.5419370000000  0.5635980000000 1.0
C      1  0.4795680000000  0.4780070000000  0.4222690000000 1.0
C      1  0.4320710000000  0.4652440000000  0.4324790000000 1.0
C      1  0.4782500000000  0.5279120000000  0.5175960000000 1.0
C      1  0.4964230000000  0.4911820000000  0.4776970000000 1.0
C      1  0.5078500000000  0.5687080000000  0.5115550000000 1.0
C      1  0.4777920000000  0.4210550000000  0.4706920000000 1.0
C      1  0.5389950000000  0.4968540000000  0.4392500000000 1.0
C      1  0.4826770000000  0.5312420000000  0.4362650000000 1.0
C      1  0.5122220000000  0.4599540000000  0.4588300000000 1.0
C      1  0.4243590000000  0.5238930000000  0.5225630000000 1.0
C      1  0.5088250000000  0.4912520000000  0.4459780000000 1.0
C      1  0.5163490000000  0.5378510000000  0.4760720000000 1.0
C      1  0.5691660000000  0.5310180000000  0.4698590000000 1.0
END
