TITL C-2848495-5024-3 -0.00228091498722183 125000 -609.549231648933 0 0 108 (C1) n - 1
REM
REM in /home/bkarasulu/work/CARBON/AIRSS/Generating-Clusters/AIREBO/with-SteepDescent/Only-C1/SD-CG-opt/Try1-1.4A-POS3A/HFTN-CG
REM
REM
REM
REM
REM
REM ./C.cell (11c1c37f851c82e70ff6c80c92926a4b)
REM
REM compiler GCC version 9.2.1 20190827 (Red Hat 9.2.1-1)
REM options -cpp -mtune=generic -march=x86-64 -g -O0 -fpre-include=/usr/include/finclude/math-vector-fortran.h
REM seed -860505404 1707208239 1298911166 1476223624 1775684546 -87062566 1009719419 1613324290 1628821343 -994295854 1474316840 847870055 -301791771 -857912972 -913934142 471057082 1303874797 -1327639412 1788481631 1584573757 950750220 1573627302 -888075233 1665762901 -302858234 793450825 1262358173 -454893247 204898660 1347932158 -1539209962 2014930200 -1583028752
REM
CELL 1.54180   50.00000   50.00000   50.00000   90.00000   90.00000   90.00000
LATT -1
SFAC C  
C      1  0.5482810000000  0.5249430000000  0.5060930000000 1.0
C      1  0.4810700000000  0.4348780000000  0.5374580000000 1.0
C      1  0.4777730000000  0.5124640000000  0.4861510000000 1.0
C      1  0.4600090000000  0.5201090000000  0.4345070000000 1.0
C      1  0.4988500000000  0.4876400000000  0.5943290000000 1.0
C      1  0.5032580000000  0.4561740000000  0.4295840000000 1.0
C      1  0.5183260000000  0.4607080000000  0.5587680000000 1.0
C      1  0.4681250000000  0.4547120000000  0.5733090000000 1.0
C      1  0.5310520000000  0.4776970000000  0.4584870000000 1.0
C      1  0.5382150000000  0.3860760000000  0.5503260000000 1.0
C      1  0.4774760000000  0.4714190000000  0.4134200000000 1.0
C      1  0.5805440000000  0.5155600000000  0.5008100000000 1.0
C      1  0.4966440000000  0.5983010000000  0.5020430000000 1.0
C      1  0.4736210000000  0.4847870000000  0.5594090000000 1.0
C      1  0.5078760000000  0.4871200000000  0.4409070000000 1.0
C      1  0.4666930000000  0.5040790000000  0.5127750000000 1.0
C      1  0.4968790000000  0.5527240000000  0.4701770000000 1.0
C      1  0.4821050000000  0.4358590000000  0.4740240000000 1.0
C      1  0.4570670000000  0.5207360000000  0.5408200000000 1.0
C      1  0.5717610000000  0.4937230000000  0.4373180000000 1.0
C      1  0.4815530000000  0.5660530000000  0.5387700000000 1.0
C      1  0.5575360000000  0.4387080000000  0.4777240000000 1.0
C      1  0.4749090000000  0.5349780000000  0.5838790000000 1.0
C      1  0.4632580000000  0.4277500000000  0.4469070000000 1.0
C      1  0.4354780000000  0.4339500000000  0.4934490000000 1.0
C      1  0.4737590000000  0.5874970000000  0.4331900000000 1.0
C      1  0.5671790000000  0.5404150000000  0.4289140000000 1.0
C      1  0.4665270000000  0.4969160000000  0.4094480000000 1.0
C      1  0.5366710000000  0.5668460000000  0.4859700000000 1.0
C      1  0.5188970000000  0.5287220000000  0.4639840000000 1.0
C      1  0.4399710000000  0.5474960000000  0.4909720000000 1.0
C      1  0.5265770000000  0.4056370000000  0.5391200000000 1.0
C      1  0.4693370000000  0.5637870000000  0.4854030000000 1.0
C      1  0.5015380000000  0.4153760000000  0.5188870000000 1.0
C      1  0.5531790000000  0.5545610000000  0.5522660000000 1.0
C      1  0.5854270000000  0.4878120000000  0.4981100000000 1.0
C      1  0.4406850000000  0.5719090000000  0.5120810000000 1.0
C      1  0.5171660000000  0.5505250000000  0.5044580000000 1.0
C      1  0.4609960000000  0.5018740000000  0.4599640000000 1.0
C      1  0.4900080000000  0.4098010000000  0.4918100000000 1.0
C      1  0.5419380000000  0.5049810000000  0.5322120000000 1.0
C      1  0.4714210000000  0.4634090000000  0.5330440000000 1.0
C      1  0.4921170000000  0.5678870000000  0.5104420000000 1.0
C      1  0.4297490000000  0.5035840000000  0.5318550000000 1.0
C      1  0.5067590000000  0.5214370000000  0.4926890000000 1.0
C      1  0.4895010000000  0.4986450000000  0.5351850000000 1.0
C      1  0.5236740000000  0.5010220000000  0.5947490000000 1.0
C      1  0.5474050000000  0.4683390000000  0.5668540000000 1.0
C      1  0.5784110000000  0.5154340000000  0.4221150000000 1.0
C      1  0.5188850000000  0.4979410000000  0.5082160000000 1.0
C      1  0.4816590000000  0.5197320000000  0.3920760000000 1.0
C      1  0.5135590000000  0.5260150000000  0.5508790000000 1.0
C      1  0.4825110000000  0.5366950000000  0.5507540000000 1.0
C      1  0.4959030000000  0.4743900000000  0.5121550000000 1.0
C      1  0.4639020000000  0.4520360000000  0.4338580000000 1.0
C      1  0.5016120000000  0.5497410000000  0.5832940000000 1.0
C      1  0.5726640000000  0.4626220000000  0.4791270000000 1.0
C      1  0.3938070000000  0.5303190000000  0.5056440000000 1.0
C      1  0.5467630000000  0.5622240000000  0.3904050000000 1.0
C      1  0.5458060000000  0.4853400000000  0.4980870000000 1.0
C      1  0.4450260000000  0.5384030000000  0.4587440000000 1.0
C      1  0.4325720000000  0.4481650000000  0.4668440000000 1.0
C      1  0.5483450000000  0.5231060000000  0.4729020000000 1.0
C      1  0.4994310000000  0.5712940000000  0.5656330000000 1.0
C      1  0.4869040000000  0.5288130000000  0.4203150000000 1.0
C      1  0.5251630000000  0.5287430000000  0.5816340000000 1.0
C      1  0.4210990000000  0.5231800000000  0.5054300000000 1.0
C      1  0.5448310000000  0.5507940000000  0.4146610000000 1.0
C      1  0.4291260000000  0.4527820000000  0.5158340000000 1.0
C      1  0.4733510000000  0.5028180000000  0.5863930000000 1.0
C      1  0.4454630000000  0.5213290000000  0.5879010000000 1.0
C      1  0.5650270000000  0.4709040000000  0.5175650000000 1.0
C      1  0.4287460000000  0.4950340000000  0.4931300000000 1.0
C      1  0.4779490000000  0.4763980000000  0.4529770000000 1.0
C      1  0.4315850000000  0.4940730000000  0.4653830000000 1.0
C      1  0.5139000000000  0.4126620000000  0.4675220000000 1.0
C      1  0.5652700000000  0.4759230000000  0.5462960000000 1.0
C      1  0.4194310000000  0.4705700000000  0.4548770000000 1.0
C      1  0.4995000000000  0.5979460000000  0.4736910000000 1.0
C      1  0.5334130000000  0.5435610000000  0.5303750000000 1.0
C      1  0.5710050000000  0.5059650000000  0.5490950000000 1.0
C      1  0.5588720000000  0.4913630000000  0.4672740000000 1.0
C      1  0.4975730000000  0.4620740000000  0.5817440000000 1.0
C      1  0.5462740000000  0.4838900000000  0.5909010000000 1.0
C      1  0.5046250000000  0.4358430000000  0.4485370000000 1.0
C      1  0.4319270000000  0.5227670000000  0.5631560000000 1.0
C      1  0.5635780000000  0.5587980000000  0.4821680000000 1.0
C      1  0.5815930000000  0.5461580000000  0.5005890000000 1.0
C      1  0.5176670000000  0.4923050000000  0.5481380000000 1.0
C      1  0.4623780000000  0.4113540000000  0.5256070000000 1.0
C      1  0.5516180000000  0.5444570000000  0.5756610000000 1.0
C      1  0.5013280000000  0.4560390000000  0.4899910000000 1.0
C      1  0.4284470000000  0.4733860000000  0.5388730000000 1.0
C      1  0.4567030000000  0.4146290000000  0.4972540000000 1.0
C      1  0.5560850000000  0.3906250000000  0.4762510000000 1.0
C      1  0.4606220000000  0.4607970000000  0.4778020000000 1.0
C      1  0.5237330000000  0.4599980000000  0.4767000000000 1.0
C      1  0.5060430000000  0.5669410000000  0.4445630000000 1.0
C      1  0.4529010000000  0.5766880000000  0.5333830000000 1.0
C      1  0.5235530000000  0.5821700000000  0.4659540000000 1.0
C      1  0.5140400000000  0.4366210000000  0.5426360000000 1.0
C      1  0.4753080000000  0.5866500000000  0.4609300000000 1.0
C      1  0.4401880000000  0.4633380000000  0.5630480000000 1.0
C      1  0.5663940000000  0.5445710000000  0.4562170000000 1.0
C      1  0.5426930000000  0.4140930000000  0.4735180000000 1.0
C      1  0.5109580000000  0.5164140000000  0.4361490000000 1.0
C      1  0.4528000000000  0.4756690000000  0.5073640000000 1.0
C      1  0.5206380000000  0.5477830000000  0.4287340000000 1.0
END
