TITL C-2848500-1637-646 0.00068675914604981 125000 -755.697750130869 0 0 140 (C1) n - 1
REM
REM in /home/bkarasulu/work/CARBON/AIRSS/Generating-Clusters/AIREBO/with-SteepDescent/Only-C1/SD-CG-opt/Try1-1.4A-POS3A/HFTN-CG
REM
REM
REM
REM
REM
REM ./C.cell (11c1c37f851c82e70ff6c80c92926a4b)
REM
REM compiler GCC version 9.2.1 20190827 (Red Hat 9.2.1-1)
REM options -cpp -mtune=generic -march=x86-64 -g -O0 -fpre-include=/usr/include/finclude/math-vector-fortran.h
REM seed 1620014852 -308716670 -138036961 -624879235 1177076881 -131758211 -1198589703 -32262612 1990795425 -360652084 -1052570789 -1195488121 -1512888762 1573723366 -1581743441 304529504 -2136243290 -1148125334 1969912317 1959030501 -2146094432 -667697513 -948780259 -591056318 1196392677 1508860160 593536381 -672335670 389367929 1238276748 286214135 1459546362 -900304651
REM
CELL 1.54180   50.00000   50.00000   50.00000   90.00000   90.00000   90.00000
LATT -1
SFAC C  
C      1  0.5201870000000  0.4074220000000  0.4614880000000 1.0
C      1  0.5423610000000  0.4749250000000  0.5228650000000 1.0
C      1  0.5896990000000  0.5167830000000  0.4888010000000 1.0
C      1  0.4875490000000  0.4584590000000  0.5293510000000 1.0
C      1  0.5278720000000  0.5008400000000  0.4019510000000 1.0
C      1  0.4887600000000  0.4973950000000  0.4303500000000 1.0
C      1  0.4970420000000  0.4495630000000  0.5007110000000 1.0
C      1  0.5528320000000  0.5070250000000  0.5438330000000 1.0
C      1  0.5489660000000  0.4434020000000  0.4779060000000 1.0
C      1  0.4293660000000  0.5707200000000  0.5104660000000 1.0
C      1  0.4782710000000  0.4704870000000  0.5822670000000 1.0
C      1  0.4437150000000  0.5164540000000  0.5486450000000 1.0
C      1  0.4756290000000  0.5661790000000  0.4230260000000 1.0
C      1  0.4496680000000  0.4395190000000  0.5535140000000 1.0
C      1  0.4703550000000  0.4109700000000  0.5105990000000 1.0
C      1  0.5663400000000  0.5159650000000  0.4341840000000 1.0
C      1  0.4686950000000  0.4232260000000  0.4288810000000 1.0
C      1  0.4828650000000  0.5049070000000  0.4985540000000 1.0
C      1  0.5449170000000  0.5696820000000  0.4075120000000 1.0
C      1  0.5009300000000  0.5118760000000  0.4706040000000 1.0
C      1  0.4964830000000  0.4241200000000  0.4781560000000 1.0
C      1  0.4399710000000  0.4229560000000  0.4566350000000 1.0
C      1  0.4375420000000  0.5653090000000  0.4488400000000 1.0
C      1  0.5561820000000  0.4972700000000  0.5980170000000 1.0
C      1  0.5075720000000  0.5200470000000  0.6047840000000 1.0
C      1  0.4966140000000  0.4960180000000  0.5395610000000 1.0
C      1  0.4561540000000  0.4034160000000  0.4874730000000 1.0
C      1  0.5397590000000  0.4231070000000  0.5631520000000 1.0
C      1  0.4189390000000  0.5007710000000  0.4673960000000 1.0
C      1  0.5669820000000  0.5156690000000  0.4681780000000 1.0
C      1  0.5456090000000  0.5453550000000  0.5750160000000 1.0
C      1  0.4147100000000  0.5264620000000  0.5078050000000 1.0
C      1  0.4692790000000  0.4810270000000  0.4088800000000 1.0
C      1  0.4700910000000  0.5071330000000  0.4570630000000 1.0
C      1  0.5293990000000  0.4454990000000  0.4997770000000 1.0
C      1  0.5603730000000  0.4881100000000  0.4528740000000 1.0
C      1  0.4790510000000  0.5864100000000  0.4914670000000 1.0
C      1  0.4136690000000  0.5516720000000  0.4635220000000 1.0
C      1  0.4910970000000  0.5228650000000  0.5686800000000 1.0
C      1  0.5314780000000  0.5608210000000  0.5184740000000 1.0
C      1  0.5193840000000  0.4452470000000  0.3979940000000 1.0
C      1  0.4777280000000  0.5905990000000  0.4374920000000 1.0
C      1  0.4174890000000  0.5325230000000  0.5352590000000 1.0
C      1  0.5767080000000  0.5658760000000  0.5031820000000 1.0
C      1  0.4126350000000  0.4688810000000  0.5327710000000 1.0
C      1  0.4911070000000  0.5624500000000  0.5727860000000 1.0
C      1  0.4381430000000  0.4848840000000  0.5465070000000 1.0
C      1  0.5609420000000  0.4468980000000  0.5278940000000 1.0
C      1  0.4373980000000  0.5511630000000  0.4860960000000 1.0
C      1  0.5724250000000  0.4652830000000  0.4675160000000 1.0
C      1  0.4712290000000  0.4110830000000  0.4594850000000 1.0
C      1  0.5726670000000  0.5059450000000  0.5161760000000 1.0
C      1  0.4638010000000  0.5387030000000  0.4680950000000 1.0
C      1  0.4069970000000  0.5261930000000  0.4791270000000 1.0
C      1  0.5959010000000  0.4847610000000  0.5267230000000 1.0
C      1  0.5728450000000  0.4334490000000  0.4555050000000 1.0
C      1  0.4732230000000  0.4410530000000  0.5686040000000 1.0
C      1  0.5210320000000  0.4888000000000  0.4854200000000 1.0
C      1  0.5399560000000  0.5311350000000  0.4809000000000 1.0
C      1  0.5308720000000  0.4832990000000  0.4547130000000 1.0
C      1  0.5432170000000  0.4197630000000  0.4572450000000 1.0
C      1  0.5855510000000  0.4543040000000  0.5503050000000 1.0
C      1  0.4742210000000  0.5164920000000  0.5416430000000 1.0
C      1  0.5605980000000  0.5364270000000  0.5073980000000 1.0
C      1  0.4127540000000  0.4636390000000  0.5048070000000 1.0
C      1  0.4892770000000  0.5209130000000  0.4078810000000 1.0
C      1  0.5629410000000  0.5479680000000  0.4451540000000 1.0
C      1  0.4895900000000  0.4747770000000  0.4843050000000 1.0
C      1  0.5210620000000  0.4505240000000  0.5323740000000 1.0
C      1  0.4238210000000  0.5616710000000  0.5357750000000 1.0
C      1  0.5188330000000  0.5256440000000  0.5042420000000 1.0
C      1  0.4990000000000  0.5485930000000  0.4986540000000 1.0
C      1  0.5245350000000  0.4927270000000  0.6011120000000 1.0
C      1  0.4915620000000  0.4524370000000  0.4587490000000 1.0
C      1  0.4685740000000  0.5837810000000  0.5202090000000 1.0
C      1  0.5548650000000  0.4775820000000  0.5609060000000 1.0
C      1  0.4226630000000  0.4489390000000  0.5544020000000 1.0
C      1  0.5015620000000  0.5452860000000  0.5453580000000 1.0
C      1  0.4356360000000  0.4460440000000  0.4427280000000 1.0
C      1  0.5596100000000  0.5191900000000  0.5727600000000 1.0
C      1  0.4489290000000  0.5477660000000  0.4266990000000 1.0
C      1  0.5068850000000  0.5797330000000  0.5098160000000 1.0
C      1  0.4721050000000  0.5090800000000  0.5898960000000 1.0
C      1  0.5852270000000  0.4998830000000  0.5794680000000 1.0
C      1  0.5569260000000  0.5648570000000  0.5592610000000 1.0
C      1  0.5166310000000  0.4966590000000  0.5182080000000 1.0
C      1  0.4456230000000  0.5176360000000  0.4359960000000 1.0
C      1  0.5201200000000  0.5328840000000  0.4548370000000 1.0
C      1  0.5178190000000  0.4179470000000  0.5376600000000 1.0
C      1  0.5160300000000  0.5416070000000  0.5823350000000 1.0
C      1  0.4564640000000  0.4339950000000  0.5238650000000 1.0
C      1  0.5504070000000  0.5091230000000  0.4077350000000 1.0
C      1  0.5342600000000  0.4646170000000  0.5921120000000 1.0
C      1  0.4474580000000  0.4989840000000  0.4809450000000 1.0
C      1  0.5153080000000  0.6025750000000  0.4884810000000 1.0
C      1  0.4747840000000  0.5328070000000  0.5133690000000 1.0
C      1  0.4436870000000  0.4991340000000  0.4080930000000 1.0
C      1  0.5242960000000  0.4627930000000  0.5626670000000 1.0
C      1  0.4369960000000  0.4459050000000  0.5001420000000 1.0
C      1  0.5995670000000  0.5426960000000  0.4933650000000 1.0
C      1  0.4967100000000  0.4917600000000  0.3918580000000 1.0
C      1  0.4313940000000  0.4206880000000  0.4846330000000 1.0
C      1  0.4952780000000  0.5951950000000  0.4629040000000 1.0
C      1  0.5490850000000  0.4205020000000  0.5245250000000 1.0
C      1  0.4512240000000  0.4881160000000  0.5756620000000 1.0
C      1  0.4965210000000  0.4714780000000  0.5571770000000 1.0
C      1  0.4905170000000  0.5469120000000  0.4545920000000 1.0
C      1  0.4588810000000  0.5287190000000  0.4003500000000 1.0
C      1  0.5080210000000  0.4731530000000  0.4392470000000 1.0
C      1  0.5691720000000  0.5565040000000  0.4713610000000 1.0
C      1  0.4720990000000  0.5589950000000  0.5341780000000 1.0
C      1  0.4609970000000  0.4548450000000  0.4245070000000 1.0
C      1  0.4456430000000  0.5228870000000  0.4997730000000 1.0
C      1  0.5332390000000  0.5507490000000  0.4292940000000 1.0
C      1  0.5679820000000  0.4660380000000  0.5915790000000 1.0
C      1  0.5590560000000  0.4444790000000  0.5675860000000 1.0
C      1  0.4921810000000  0.4894470000000  0.6070060000000 1.0
C      1  0.5006270000000  0.5455040000000  0.4223630000000 1.0
C      1  0.5394590000000  0.5648240000000  0.4856620000000 1.0
C      1  0.4639830000000  0.5559870000000  0.5792240000000 1.0
C      1  0.4218460000000  0.4942410000000  0.4340520000000 1.0
C      1  0.4936720000000  0.4243140000000  0.5607600000000 1.0
C      1  0.5536770000000  0.4870560000000  0.4952270000000 1.0
C      1  0.5438250000000  0.5984510000000  0.4831280000000 1.0
C      1  0.4057510000000  0.4726260000000  0.4786340000000 1.0
C      1  0.5000760000000  0.4107270000000  0.5092430000000 1.0
C      1  0.5852170000000  0.4743530000000  0.4951460000000 1.0
C      1  0.4605980000000  0.5370200000000  0.5987350000000 1.0
C      1  0.4629230000000  0.5726990000000  0.4676390000000 1.0
C      1  0.5090540000000  0.4665430000000  0.4088400000000 1.0
C      1  0.4571040000000  0.4679020000000  0.5264090000000 1.0
C      1  0.4657950000000  0.4737010000000  0.4523900000000 1.0
C      1  0.4479050000000  0.5503060000000  0.5537130000000 1.0
C      1  0.4568270000000  0.4726700000000  0.4931690000000 1.0
C      1  0.5924520000000  0.4519470000000  0.5175260000000 1.0
C      1  0.4174690000000  0.4656110000000  0.4493600000000 1.0
C      1  0.5302060000000  0.5306540000000  0.5342800000000 1.0
C      1  0.5590680000000  0.5669320000000  0.5322700000000 1.0
C      1  0.5083380000000  0.5668620000000  0.4721000000000 1.0
C      1  0.5972720000000  0.4831590000000  0.5594420000000 1.0
END
