TITL C-2848499-1157-585 -0.00164921028608266 125000 -1001.18382127749 0 0 188 (C1) n - 1
REM
REM in /home/bkarasulu/work/CARBON/AIRSS/Generating-Clusters/AIREBO/with-SteepDescent/Only-C1/SD-CG-opt/Try1-1.4A-POS3A/HFTN-CG
REM
REM
REM
REM
REM
REM ./C.cell (11c1c37f851c82e70ff6c80c92926a4b)
REM
REM compiler GCC version 9.2.1 20190827 (Red Hat 9.2.1-1)
REM options -cpp -mtune=generic -march=x86-64 -g -O0 -fpre-include=/usr/include/finclude/math-vector-fortran.h
REM seed -912636188 -1857686625 336905547 1646175136 -469339142 -845819790 1140074746 -1833702833 1314843072 -40866572 1949434188 522801921 -1196956436 1950906209 -1774598185 -780593172 2079427739 803435644 -1784200771 1809080650 -459360325 108523760 118952266 174692663 853688183 1630653380 -1967053107 481695494 -60956325 -1864509429 -1319224436 2111537070 -2016783501
REM
CELL 1.54180   50.00000   50.00000   50.00000   90.00000   90.00000   90.00000
LATT -1
SFAC C  
C      1  0.5881050000000  0.5593940000000  0.5540970000000 1.0
C      1  0.4379460000000  0.4726620000000  0.4488950000000 1.0
C      1  0.5661680000000  0.5265410000000  0.5286640000000 1.0
C      1  0.4534820000000  0.3778080000000  0.4684040000000 1.0
C      1  0.4234200000000  0.4120900000000  0.4354000000000 1.0
C      1  0.4144890000000  0.4609510000000  0.5429640000000 1.0
C      1  0.4858380000000  0.4711370000000  0.4208850000000 1.0
C      1  0.3851570000000  0.5722030000000  0.4845540000000 1.0
C      1  0.4092790000000  0.5020410000000  0.5516440000000 1.0
C      1  0.6014130000000  0.5414550000000  0.4777690000000 1.0
C      1  0.4770630000000  0.5940880000000  0.4799690000000 1.0
C      1  0.5540120000000  0.5526710000000  0.4667080000000 1.0
C      1  0.4746320000000  0.5594220000000  0.5887720000000 1.0
C      1  0.4306770000000  0.4157700000000  0.5013900000000 1.0
C      1  0.6204290000000  0.5064980000000  0.4794630000000 1.0
C      1  0.4863100000000  0.5244940000000  0.6118870000000 1.0
C      1  0.5549350000000  0.4512960000000  0.4876510000000 1.0
C      1  0.4520010000000  0.5544280000000  0.5143790000000 1.0
C      1  0.5224480000000  0.4790930000000  0.5815120000000 1.0
C      1  0.4714000000000  0.5469230000000  0.5605670000000 1.0
C      1  0.5618890000000  0.4683240000000  0.5527060000000 1.0
C      1  0.4338220000000  0.6045460000000  0.5188820000000 1.0
C      1  0.5894450000000  0.4795050000000  0.5074400000000 1.0
C      1  0.5701810000000  0.4247670000000  0.4728250000000 1.0
C      1  0.4950710000000  0.5103190000000  0.5851950000000 1.0
C      1  0.4062660000000  0.5235340000000  0.4473160000000 1.0
C      1  0.4958940000000  0.5500710000000  0.3918070000000 1.0
C      1  0.4254070000000  0.4935920000000  0.4725840000000 1.0
C      1  0.3922710000000  0.4901610000000  0.4991510000000 1.0
C      1  0.5839620000000  0.5813640000000  0.4997210000000 1.0
C      1  0.5935940000000  0.5135560000000  0.4598730000000 1.0
C      1  0.5004320000000  0.5326640000000  0.5500670000000 1.0
C      1  0.4294340000000  0.5844820000000  0.5013990000000 1.0
C      1  0.5308720000000  0.4290110000000  0.5577890000000 1.0
C      1  0.5107450000000  0.4322280000000  0.4309490000000 1.0
C      1  0.5938850000000  0.4458800000000  0.5047400000000 1.0
C      1  0.5473320000000  0.3629480000000  0.5351380000000 1.0
C      1  0.5557740000000  0.4137980000000  0.5007990000000 1.0
C      1  0.5579910000000  0.4808600000000  0.4612530000000 1.0
C      1  0.4712240000000  0.4275140000000  0.4596970000000 1.0
C      1  0.4941550000000  0.4386330000000  0.4912280000000 1.0
C      1  0.5087200000000  0.5196640000000  0.4230930000000 1.0
C      1  0.4367060000000  0.5495670000000  0.4492390000000 1.0
C      1  0.4336660000000  0.5390040000000  0.5710840000000 1.0
C      1  0.5455190000000  0.4911510000000  0.5668550000000 1.0
C      1  0.4564170000000  0.5731110000000  0.4892090000000 1.0
C      1  0.5125500000000  0.5508300000000  0.4702930000000 1.0
C      1  0.4865620000000  0.5350030000000  0.5191030000000 1.0
C      1  0.6178420000000  0.4963410000000  0.5027000000000 1.0
C      1  0.5612680000000  0.5855520000000  0.5189250000000 1.0
C      1  0.4884930000000  0.4641250000000  0.5130190000000 1.0
C      1  0.5282370000000  0.5319960000000  0.5182690000000 1.0
C      1  0.5104190000000  0.5510350000000  0.4305660000000 1.0
C      1  0.4323430000000  0.4845070000000  0.5046100000000 1.0
C      1  0.5601270000000  0.5624310000000  0.5646480000000 1.0
C      1  0.4079210000000  0.4274630000000  0.4896670000000 1.0
C      1  0.4720340000000  0.4025610000000  0.5071030000000 1.0
C      1  0.5856600000000  0.5522440000000  0.4548570000000 1.0
C      1  0.5715450000000  0.4488180000000  0.5742970000000 1.0
C      1  0.4527370000000  0.4951270000000  0.4306670000000 1.0
C      1  0.5972850000000  0.5560860000000  0.5024790000000 1.0
C      1  0.5703040000000  0.4980900000000  0.5885470000000 1.0
C      1  0.4486250000000  0.5457610000000  0.5943790000000 1.0
C      1  0.5038350000000  0.5045190000000  0.3719580000000 1.0
C      1  0.5017470000000  0.5218970000000  0.3926360000000 1.0
C      1  0.5081510000000  0.5611260000000  0.5670120000000 1.0
C      1  0.5686110000000  0.5485210000000  0.4299020000000 1.0
C      1  0.5200710000000  0.4548620000000  0.5976920000000 1.0
C      1  0.5865340000000  0.4843120000000  0.4738780000000 1.0
C      1  0.5270440000000  0.5655480000000  0.5138520000000 1.0
C      1  0.4795130000000  0.4329380000000  0.4308450000000 1.0
C      1  0.4532390000000  0.5228990000000  0.5515640000000 1.0
C      1  0.5531460000000  0.4482070000000  0.4549040000000 1.0
C      1  0.5486100000000  0.5438390000000  0.4030790000000 1.0
C      1  0.5234450000000  0.4995420000000  0.5124060000000 1.0
C      1  0.5942820000000  0.4975000000000  0.5646640000000 1.0
C      1  0.4737920000000  0.4591170000000  0.5837560000000 1.0
C      1  0.4483390000000  0.4364110000000  0.5128230000000 1.0
C      1  0.5184730000000  0.5178480000000  0.6167340000000 1.0
C      1  0.4463470000000  0.5344620000000  0.4018930000000 1.0
C      1  0.4842480000000  0.5924960000000  0.4468030000000 1.0
C      1  0.4554930000000  0.5225130000000  0.6094880000000 1.0
C      1  0.5197370000000  0.4032410000000  0.4364470000000 1.0
C      1  0.5499690000000  0.5314150000000  0.4929410000000 1.0
C      1  0.4878120000000  0.4829980000000  0.4475540000000 1.0
C      1  0.4932810000000  0.4090930000000  0.4740640000000 1.0
C      1  0.4235840000000  0.5112520000000  0.5237010000000 1.0
C      1  0.5664720000000  0.5044070000000  0.5044890000000 1.0
C      1  0.5235770000000  0.4468710000000  0.4817580000000 1.0
C      1  0.4262430000000  0.5142510000000  0.4212520000000 1.0
C      1  0.5777310000000  0.4659860000000  0.5953750000000 1.0
C      1  0.5640110000000  0.5892860000000  0.4793030000000 1.0
C      1  0.5119130000000  0.4314190000000  0.5831480000000 1.0
C      1  0.5382460000000  0.4524400000000  0.5342540000000 1.0
C      1  0.4598020000000  0.4715330000000  0.6062950000000 1.0
C      1  0.5404170000000  0.5270280000000  0.4544280000000 1.0
C      1  0.4684900000000  0.4985370000000  0.5675580000000 1.0
C      1  0.5129850000000  0.4752520000000  0.5338150000000 1.0
C      1  0.5182480000000  0.4829300000000  0.4627110000000 1.0
C      1  0.4018720000000  0.5168630000000  0.4803870000000 1.0
C      1  0.5804460000000  0.4233450000000  0.5169840000000 1.0
C      1  0.5743970000000  0.5085140000000  0.4321850000000 1.0
C      1  0.3940420000000  0.4697610000000  0.4786070000000 1.0
C      1  0.5426770000000  0.5185190000000  0.4250230000000 1.0
C      1  0.5318550000000  0.4589930000000  0.3944460000000 1.0
C      1  0.4571010000000  0.5370830000000  0.4315090000000 1.0
C      1  0.4891330000000  0.5612350000000  0.4521900000000 1.0
C      1  0.5024280000000  0.4383570000000  0.5449700000000 1.0
C      1  0.5867720000000  0.4826090000000  0.5412000000000 1.0
C      1  0.4703310000000  0.4548430000000  0.4741920000000 1.0
C      1  0.4627460000000  0.5541710000000  0.4670690000000 1.0
C      1  0.4958980000000  0.5680690000000  0.5196020000000 1.0
C      1  0.5270750000000  0.5891320000000  0.4236390000000 1.0
C      1  0.5421810000000  0.6054840000000  0.5131420000000 1.0
C      1  0.5912510000000  0.4513960000000  0.4710550000000 1.0
C      1  0.5608070000000  0.4094740000000  0.5399760000000 1.0
C      1  0.4082650000000  0.5297540000000  0.5671770000000 1.0
C      1  0.5589890000000  0.4652630000000  0.5119140000000 1.0
C      1  0.5404340000000  0.5630250000000  0.4371770000000 1.0
C      1  0.4032690000000  0.4902580000000  0.4259860000000 1.0
C      1  0.5308110000000  0.4293370000000  0.5104220000000 1.0
C      1  0.5202900000000  0.6098550000000  0.4955330000000 1.0
C      1  0.4491080000000  0.5044440000000  0.3876020000000 1.0
C      1  0.4771010000000  0.5261070000000  0.4717100000000 1.0
C      1  0.5003360000000  0.4186260000000  0.5178210000000 1.0
C      1  0.5610970000000  0.4242640000000  0.5660340000000 1.0
C      1  0.4583660000000  0.4638720000000  0.6310080000000 1.0
C      1  0.4937880000000  0.6039560000000  0.5005190000000 1.0
C      1  0.4216920000000  0.4517900000000  0.4702870000000 1.0
C      1  0.4491070000000  0.5148750000000  0.4848430000000 1.0
C      1  0.4212440000000  0.4866490000000  0.5771040000000 1.0
C      1  0.5092580000000  0.3929510000000  0.4598260000000 1.0
C      1  0.4690790000000  0.4481520000000  0.4030810000000 1.0
C      1  0.3949250000000  0.4835950000000  0.5269170000000 1.0
C      1  0.4678450000000  0.4896200000000  0.5222480000000 1.0
C      1  0.4470060000000  0.4965330000000  0.5938360000000 1.0
C      1  0.5386860000000  0.3888060000000  0.5369670000000 1.0
C      1  0.5772300000000  0.4812130000000  0.4229290000000 1.0
C      1  0.5229550000000  0.5644320000000  0.4014190000000 1.0
C      1  0.4943890000000  0.4840170000000  0.4869220000000 1.0
C      1  0.5360010000000  0.5461200000000  0.6113380000000 1.0
C      1  0.4760200000000  0.3953840000000  0.5388850000000 1.0
C      1  0.4655960000000  0.4876060000000  0.4729690000000 1.0
C      1  0.4269860000000  0.5395960000000  0.4773820000000 1.0
C      1  0.5218140000000  0.4512680000000  0.4507830000000 1.0
C      1  0.5098560000000  0.3924000000000  0.5372550000000 1.0
C      1  0.4618280000000  0.4683840000000  0.5554940000000 1.0
C      1  0.4835520000000  0.4296010000000  0.5790920000000 1.0
C      1  0.5255450000000  0.6036230000000  0.4673580000000 1.0
C      1  0.5046950000000  0.5512240000000  0.5997800000000 1.0
C      1  0.4590990000000  0.4807450000000  0.4022160000000 1.0
C      1  0.5507040000000  0.4699640000000  0.4102870000000 1.0
C      1  0.4795060000000  0.5139180000000  0.4400400000000 1.0
C      1  0.4707280000000  0.5582210000000  0.4008000000000 1.0
C      1  0.4318030000000  0.4216380000000  0.4582330000000 1.0
C      1  0.5926790000000  0.4639130000000  0.4400540000000 1.0
C      1  0.5395180000000  0.4866900000000  0.4348770000000 1.0
C      1  0.5396690000000  0.5162680000000  0.5461900000000 1.0
C      1  0.4157640000000  0.4570850000000  0.5759260000000 1.0
C      1  0.4563990000000  0.6087760000000  0.5339720000000 1.0
C      1  0.5052810000000  0.4495370000000  0.4051550000000 1.0
C      1  0.5915560000000  0.5453810000000  0.5286410000000 1.0
C      1  0.4921690000000  0.5003520000000  0.5434500000000 1.0
C      1  0.4706370000000  0.5798790000000  0.4182870000000 1.0
C      1  0.4399760000000  0.4752120000000  0.5345150000000 1.0
C      1  0.4536530000000  0.4053550000000  0.4785920000000 1.0
C      1  0.5407310000000  0.4906650000000  0.4870320000000 1.0
C      1  0.4093200000000  0.5624690000000  0.4949990000000 1.0
C      1  0.4707720000000  0.4439150000000  0.5338690000000 1.0
C      1  0.5219550000000  0.5225460000000  0.5743890000000 1.0
C      1  0.5016650000000  0.5860870000000  0.5547080000000 1.0
C      1  0.5157280000000  0.5171360000000  0.4669470000000 1.0
C      1  0.4450800000000  0.4587600000000  0.4922460000000 1.0
C      1  0.4676280000000  0.5649640000000  0.5374610000000 1.0
C      1  0.4856990000000  0.5989400000000  0.5296100000000 1.0
C      1  0.4059540000000  0.5328970000000  0.5102910000000 1.0
C      1  0.5466290000000  0.5171050000000  0.5971460000000 1.0
C      1  0.4990660000000  0.5164990000000  0.4958320000000 1.0
C      1  0.5540600000000  0.5583420000000  0.5332280000000 1.0
C      1  0.4556760000000  0.5207860000000  0.5177000000000 1.0
C      1  0.5368190000000  0.5571330000000  0.5803320000000 1.0
C      1  0.5336240000000  0.5744110000000  0.4827860000000 1.0
C      1  0.4627740000000  0.4194890000000  0.5561360000000 1.0
C      1  0.3999270000000  0.4841290000000  0.4521050000000 1.0
C      1  0.5126070000000  0.6029610000000  0.4431240000000 1.0
C      1  0.5006150000000  0.4643870000000  0.5635820000000 1.0
C      1  0.5623420000000  0.5378990000000  0.3768180000000 1.0
C      1  0.4327430000000  0.4354140000000  0.5579050000000 1.0
END
