TITL C-2848498-1409-1 0.000882908229748888 125000 -487.24528738243 0 0 94 (C1) n - 1
REM
REM in /home/bkarasulu/work/CARBON/AIRSS/Generating-Clusters/AIREBO/with-SteepDescent/Only-C1/SD-CG-opt/Try1-1.4A-POS3A/HFTN-CG
REM
REM
REM
REM
REM
REM ./C.cell (11c1c37f851c82e70ff6c80c92926a4b)
REM
REM compiler GCC version 9.2.1 20190827 (Red Hat 9.2.1-1)
REM options -cpp -mtune=generic -march=x86-64 -g -O0 -fpre-include=/usr/include/finclude/math-vector-fortran.h
REM seed 833237371 -2123444600 712101793 -2083301480 -1771217269 1333092328 -170213183 -2134779519 -1895946351 -1887823668 -1329503089 -1071319502 -1733556711 164291570 -972823260 -148940482 1879290655 1912441632 1076332652 -817347597 -1571527254 389690240 -341323681 730531157 -351653917 -91369500 -534439358 1063975455 -553238257 1974052706 -987225550 -55403592 878366123
REM
CELL 1.54180   50.00000   50.00000   50.00000   90.00000   90.00000   90.00000
LATT -1
SFAC C  
C      1  0.5091680000000  0.5894520000000  0.4527240000000 1.0
C      1  0.5429190000000  0.5363160000000  0.5545840000000 1.0
C      1  0.4481410000000  0.5515310000000  0.5020160000000 1.0
C      1  0.4732050000000  0.5091900000000  0.4790450000000 1.0
C      1  0.5157490000000  0.5813080000000  0.4787260000000 1.0
C      1  0.5300380000000  0.4992290000000  0.4417840000000 1.0
C      1  0.4208870000000  0.4800210000000  0.4601190000000 1.0
C      1  0.5299160000000  0.5156150000000  0.5087390000000 1.0
C      1  0.4624650000000  0.4669320000000  0.4840630000000 1.0
C      1  0.5806790000000  0.4507110000000  0.4758750000000 1.0
C      1  0.4863220000000  0.3968310000000  0.4429620000000 1.0
C      1  0.5137900000000  0.5169880000000  0.4657980000000 1.0
C      1  0.3935470000000  0.4942220000000  0.4945550000000 1.0
C      1  0.5291510000000  0.4156950000000  0.4864480000000 1.0
C      1  0.5607310000000  0.5618120000000  0.4797660000000 1.0
C      1  0.4610950000000  0.4663790000000  0.5351630000000 1.0
C      1  0.5711900000000  0.4753660000000  0.4654780000000 1.0
C      1  0.4691590000000  0.5643910000000  0.5409830000000 1.0
C      1  0.5062920000000  0.5302550000000  0.4249250000000 1.0
C      1  0.4940690000000  0.4471570000000  0.4997860000000 1.0
C      1  0.4612310000000  0.5764070000000  0.5163160000000 1.0
C      1  0.4445290000000  0.4810520000000  0.5093390000000 1.0
C      1  0.5537720000000  0.5058750000000  0.5311920000000 1.0
C      1  0.5642530000000  0.4878410000000  0.5580560000000 1.0
C      1  0.4976120000000  0.5551300000000  0.4906950000000 1.0
C      1  0.4216030000000  0.5480320000000  0.4688130000000 1.0
C      1  0.5207730000000  0.4572570000000  0.5678140000000 1.0
C      1  0.4386070000000  0.4447220000000  0.4937500000000 1.0
C      1  0.4813370000000  0.4948740000000  0.5760400000000 1.0
C      1  0.4205240000000  0.4584450000000  0.5490840000000 1.0
C      1  0.5833050000000  0.5221280000000  0.5266140000000 1.0
C      1  0.5241780000000  0.4170660000000  0.5188320000000 1.0
C      1  0.4761380000000  0.5322160000000  0.5039020000000 1.0
C      1  0.5640930000000  0.5298260000000  0.4399140000000 1.0
C      1  0.5128480000000  0.4429360000000  0.4781970000000 1.0
C      1  0.5265620000000  0.5745110000000  0.5419760000000 1.0
C      1  0.5268330000000  0.4702060000000  0.5131240000000 1.0
C      1  0.4603310000000  0.5081590000000  0.5220150000000 1.0
C      1  0.5726090000000  0.5423370000000  0.5027950000000 1.0
C      1  0.5001730000000  0.4993640000000  0.4275840000000 1.0
C      1  0.5782200000000  0.4913430000000  0.5125360000000 1.0
C      1  0.4836600000000  0.5500510000000  0.4332620000000 1.0
C      1  0.4186160000000  0.4635260000000  0.5226730000000 1.0
C      1  0.5153080000000  0.5193560000000  0.5457690000000 1.0
C      1  0.5408990000000  0.5374230000000  0.4635880000000 1.0
C      1  0.5281800000000  0.5438260000000  0.4944850000000 1.0
C      1  0.4118410000000  0.4659670000000  0.4897330000000 1.0
C      1  0.5719960000000  0.4453750000000  0.5022820000000 1.0
C      1  0.4962200000000  0.4727830000000  0.4453090000000 1.0
C      1  0.5422620000000  0.5645680000000  0.5160530000000 1.0
C      1  0.4872630000000  0.4845970000000  0.4874860000000 1.0
C      1  0.4543470000000  0.5423080000000  0.5575800000000 1.0
C      1  0.4907530000000  0.5398760000000  0.5336460000000 1.0
C      1  0.4349060000000  0.5108850000000  0.4628880000000 1.0
C      1  0.5453750000000  0.4901000000000  0.5784700000000 1.0
C      1  0.5274620000000  0.4877060000000  0.5427970000000 1.0
C      1  0.4639660000000  0.4412040000000  0.5143360000000 1.0
C      1  0.4622920000000  0.5023130000000  0.4475510000000 1.0
C      1  0.5475830000000  0.4764860000000  0.4506990000000 1.0
C      1  0.4455800000000  0.5342160000000  0.5295910000000 1.0
C      1  0.4056580000000  0.5227000000000  0.4756010000000 1.0
C      1  0.5759670000000  0.4967510000000  0.4828050000000 1.0
C      1  0.4264720000000  0.5026980000000  0.4947950000000 1.0
C      1  0.4533990000000  0.4755100000000  0.4270450000000 1.0
C      1  0.4347030000000  0.4514000000000  0.4606390000000 1.0
C      1  0.5603530000000  0.5459100000000  0.5343200000000 1.0
C      1  0.5084140000000  0.4158590000000  0.4603150000000 1.0
C      1  0.5411300000000  0.5821710000000  0.4897420000000 1.0
C      1  0.4921110000000  0.4269510000000  0.5270640000000 1.0
C      1  0.4874210000000  0.4732430000000  0.5188050000000 1.0
C      1  0.5809670000000  0.4630220000000  0.5219140000000 1.0
C      1  0.5292620000000  0.5481860000000  0.4335080000000 1.0
C      1  0.4712740000000  0.5273340000000  0.5748840000000 1.0
C      1  0.4712120000000  0.4990400000000  0.4149020000000 1.0
C      1  0.5429810000000  0.4414040000000  0.5043330000000 1.0
C      1  0.4464100000000  0.4635810000000  0.5611150000000 1.0
C      1  0.4523310000000  0.5416110000000  0.4700560000000 1.0
C      1  0.5188560000000  0.4460830000000  0.5357530000000 1.0
C      1  0.5073190000000  0.5693700000000  0.4331680000000 1.0
C      1  0.5672890000000  0.5224870000000  0.4789690000000 1.0
C      1  0.4839850000000  0.5332830000000  0.4602070000000 1.0
C      1  0.5118420000000  0.4878890000000  0.5730080000000 1.0
C      1  0.5700730000000  0.4615530000000  0.5482460000000 1.0
C      1  0.5196970000000  0.4675390000000  0.4637700000000 1.0
C      1  0.4670660000000  0.4561380000000  0.4513350000000 1.0
C      1  0.5194800000000  0.4912960000000  0.4873780000000 1.0
C      1  0.4782080000000  0.4270540000000  0.4483290000000 1.0
C      1  0.4994400000000  0.5337750000000  0.5721630000000 1.0
C      1  0.5487290000000  0.4440810000000  0.5536380000000 1.0
C      1  0.4826560000000  0.5834040000000  0.5001710000000 1.0
C      1  0.4795450000000  0.5015260000000  0.5456630000000 1.0
C      1  0.4599300000000  0.4734450000000  0.5823370000000 1.0
C      1  0.5093830000000  0.5580270000000  0.5540550000000 1.0
C      1  0.4998840000000  0.5039880000000  0.5196420000000 1.0
END
