TITL C-2847947-6848-481 0.000127475783403923 125000 -417.236771580566 0 0 78 (C1) n - 1
REM
REM in /home/bkarasulu/work/CARBON/AIRSS/Generating-Clusters/AIREBO/with-SteepDescent/Only-C1/SD-CG-opt/Try1-1.4A-POS3A/HFTN-CG
REM
REM
REM
REM
REM
REM ./C.cell (11c1c37f851c82e70ff6c80c92926a4b)
REM
REM compiler GCC version 9.2.1 20190827 (Red Hat 9.2.1-1)
REM options -cpp -mtune=generic -march=x86-64 -g -O0 -fpre-include=/usr/include/finclude/math-vector-fortran.h
REM seed 1892741893 -914054086 730114173 1900270850 -1694964145 619167496 -1132796054 232170943 -497339672 432903521 -1275193848 -1591158864 -20422819 -1270303635 1132311925 -1830068023 -1445941616 1166581669 11582501 -457892164 -563884655 -1052996697 -1872426577 1979904448 366660192 -720024934 1155609617 780007561 1323383985 -1634903711 633694067 1434030676 -2100094025
REM
CELL 1.54180   50.00000   50.00000   50.00000   90.00000   90.00000   90.00000
LATT -1
SFAC C  
C      1  0.4242630000000  0.5004340000000  0.4600740000000 1.0
C      1  0.4504970000000  0.4814030000000  0.5441770000000 1.0
C      1  0.5094700000000  0.5807290000000  0.5040410000000 1.0
C      1  0.5596370000000  0.5474810000000  0.5393910000000 1.0
C      1  0.5696340000000  0.4689880000000  0.4847170000000 1.0
C      1  0.4616390000000  0.5134070000000  0.5388200000000 1.0
C      1  0.5461380000000  0.6065130000000  0.4886800000000 1.0
C      1  0.4958780000000  0.5013300000000  0.5553510000000 1.0
C      1  0.4969200000000  0.4550170000000  0.5206290000000 1.0
C      1  0.5326500000000  0.4721470000000  0.5212020000000 1.0
C      1  0.4689340000000  0.4659010000000  0.4443820000000 1.0
C      1  0.4694090000000  0.5147260000000  0.4280930000000 1.0
C      1  0.4935660000000  0.5388810000000  0.4758440000000 1.0
C      1  0.4717340000000  0.5212920000000  0.4590440000000 1.0
C      1  0.4766470000000  0.4704150000000  0.4772040000000 1.0
C      1  0.5614730000000  0.4437790000000  0.4982980000000 1.0
C      1  0.4568950000000  0.5012700000000  0.5102000000000 1.0
C      1  0.4371830000000  0.5347520000000  0.5014810000000 1.0
C      1  0.5714390000000  0.4872670000000  0.4617250000000 1.0
C      1  0.5167770000000  0.4288770000000  0.5117540000000 1.0
C      1  0.5048430000000  0.4678990000000  0.4614170000000 1.0
C      1  0.5589710000000  0.5511220000000  0.5140790000000 1.0
C      1  0.5868910000000  0.5061470000000  0.5037600000000 1.0
C      1  0.4312780000000  0.4220350000000  0.5117820000000 1.0
C      1  0.4270560000000  0.5025340000000  0.5018810000000 1.0
C      1  0.4943470000000  0.4966140000000  0.4530360000000 1.0
C      1  0.5071580000000  0.5074470000000  0.4968000000000 1.0
C      1  0.4710540000000  0.4366090000000  0.4573780000000 1.0
C      1  0.5782900000000  0.4865600000000  0.5302860000000 1.0
C      1  0.4710890000000  0.4832130000000  0.4236060000000 1.0
C      1  0.4811930000000  0.4863050000000  0.5013090000000 1.0
C      1  0.4902250000000  0.5724570000000  0.5288990000000 1.0
C      1  0.5493870000000  0.5047450000000  0.5674920000000 1.0
C      1  0.4974920000000  0.5499630000000  0.4376150000000 1.0
C      1  0.4328930000000  0.4718570000000  0.5219500000000 1.0
C      1  0.4560230000000  0.5519150000000  0.4794190000000 1.0
C      1  0.5121550000000  0.5348160000000  0.5389180000000 1.0
C      1  0.5398960000000  0.5250520000000  0.5466080000000 1.0
C      1  0.4481320000000  0.4542720000000  0.4760280000000 1.0
C      1  0.5245260000000  0.5250870000000  0.4731280000000 1.0
C      1  0.4424750000000  0.5218270000000  0.4704790000000 1.0
C      1  0.4242020000000  0.4752560000000  0.4728020000000 1.0
C      1  0.5336140000000  0.5825400000000  0.4901800000000 1.0
C      1  0.5503820000000  0.4820060000000  0.4429980000000 1.0
C      1  0.4985370000000  0.5028130000000  0.4171730000000 1.0
C      1  0.5557540000000  0.5344720000000  0.4634130000000 1.0
C      1  0.4372510000000  0.4645010000000  0.5963760000000 1.0
C      1  0.5308490000000  0.5045560000000  0.5210270000000 1.0
C      1  0.4095240000000  0.4756670000000  0.4992040000000 1.0
C      1  0.5356870000000  0.4311720000000  0.4912290000000 1.0
C      1  0.4431310000000  0.4737080000000  0.5723510000000 1.0
C      1  0.5946750000000  0.4890900000000  0.5768510000000 1.0
C      1  0.4423780000000  0.5370870000000  0.5316090000000 1.0
C      1  0.4794370000000  0.5631670000000  0.4573850000000 1.0
C      1  0.4316020000000  0.5539870000000  0.5481190000000 1.0
C      1  0.5774950000000  0.5153310000000  0.4716760000000 1.0
C      1  0.4088400000000  0.5054100000000  0.4378890000000 1.0
C      1  0.5334040000000  0.4599850000000  0.4488730000000 1.0
C      1  0.4833870000000  0.5618440000000  0.4970320000000 1.0
C      1  0.4927700000000  0.5158560000000  0.5252890000000 1.0
C      1  0.4950420000000  0.5302870000000  0.5740650000000 1.0
C      1  0.5334210000000  0.4863820000000  0.4788530000000 1.0
C      1  0.5406210000000  0.5043510000000  0.4285810000000 1.0
C      1  0.4811960000000  0.4788380000000  0.5345010000000 1.0
C      1  0.5442210000000  0.5604340000000  0.4752890000000 1.0
C      1  0.5746700000000  0.4937030000000  0.5593150000000 1.0
C      1  0.4327930000000  0.4572910000000  0.6211760000000 1.0
C      1  0.5556810000000  0.4964970000000  0.4990420000000 1.0
C      1  0.5204260000000  0.5078320000000  0.5768260000000 1.0
C      1  0.5136560000000  0.4644300000000  0.4940780000000 1.0
C      1  0.5598210000000  0.4635840000000  0.5228770000000 1.0
C      1  0.4968310000000  0.5561270000000  0.5519780000000 1.0
C      1  0.5440840000000  0.5284270000000  0.5007440000000 1.0
C      1  0.5250100000000  0.4335920000000  0.4639710000000 1.0
C      1  0.5140370000000  0.5215700000000  0.4409540000000 1.0
C      1  0.4973170000000  0.4254690000000  0.4582040000000 1.0
C      1  0.4940900000000  0.4232100000000  0.5325210000000 1.0
C      1  0.4380130000000  0.4464420000000  0.5045740000000 1.0
END
