TITL C-2848504-8560-299 -0.00396490591396074 125000 -1016.74829457873 0 0 189 (C1) n - 1
REM
REM in /home/bkarasulu/work/CARBON/AIRSS/Generating-Clusters/AIREBO/with-SteepDescent/Only-C1/SD-CG-opt/Try1-1.4A-POS3A/HFTN-CG
REM
REM
REM
REM
REM
REM ./C.cell (11c1c37f851c82e70ff6c80c92926a4b)
REM
REM compiler GCC version 9.2.1 20190827 (Red Hat 9.2.1-1)
REM options -cpp -mtune=generic -march=x86-64 -g -O0 -fpre-include=/usr/include/finclude/math-vector-fortran.h
REM seed 2012615080 2107841 -178948583 -2105217556 -125984583 2035152140 -466796927 1477436715 842209662 -755131383 1042981383 1716568782 -1070590008 825620594 308426415 952002966 -1325444959 1438877160 1259109058 -1777582825 -578469073 1166749412 -131642603 291618593 427870099 1521497497 -1939961898 1492596109 2076728459 -1560264286 1530415530 -191335708 -279155488
REM
CELL 1.54180   50.00000   50.00000   50.00000   90.00000   90.00000   90.00000
LATT -1
SFAC C  
C      1  0.5354810000000  0.5076740000000  0.3851260000000 1.0
C      1  0.5290220000000  0.4684480000000  0.4431620000000 1.0
C      1  0.5783210000000  0.5502360000000  0.5007020000000 1.0
C      1  0.5667440000000  0.5754480000000  0.4886780000000 1.0
C      1  0.4647970000000  0.5731990000000  0.4503320000000 1.0
C      1  0.5477640000000  0.4804710000000  0.4655680000000 1.0
C      1  0.4988090000000  0.5061470000000  0.5049430000000 1.0
C      1  0.5873610000000  0.4727780000000  0.4815230000000 1.0
C      1  0.5285970000000  0.5549340000000  0.4341150000000 1.0
C      1  0.5569710000000  0.5272810000000  0.4660280000000 1.0
C      1  0.5187640000000  0.5145910000000  0.6205390000000 1.0
C      1  0.5098980000000  0.4330910000000  0.4683570000000 1.0
C      1  0.5165390000000  0.4463170000000  0.5188970000000 1.0
C      1  0.4378350000000  0.4298020000000  0.5237340000000 1.0
C      1  0.5437750000000  0.4623080000000  0.4919010000000 1.0
C      1  0.4504440000000  0.4817480000000  0.5304010000000 1.0
C      1  0.4406180000000  0.5538310000000  0.4754830000000 1.0
C      1  0.4747970000000  0.4710580000000  0.5662190000000 1.0
C      1  0.5677840000000  0.5480040000000  0.5685540000000 1.0
C      1  0.4681180000000  0.4331250000000  0.4951010000000 1.0
C      1  0.5808260000000  0.4963160000000  0.5786840000000 1.0
C      1  0.4938280000000  0.4421930000000  0.4212490000000 1.0
C      1  0.5554660000000  0.4941460000000  0.5937390000000 1.0
C      1  0.4643130000000  0.5303430000000  0.5183460000000 1.0
C      1  0.5171460000000  0.4833350000000  0.4942520000000 1.0
C      1  0.4088170000000  0.5191350000000  0.4537960000000 1.0
C      1  0.5050070000000  0.4538120000000  0.4908540000000 1.0
C      1  0.4123310000000  0.4187710000000  0.5117110000000 1.0
C      1  0.4701240000000  0.5985420000000  0.4945270000000 1.0
C      1  0.5151280000000  0.5358810000000  0.5021900000000 1.0
C      1  0.4732990000000  0.5253020000000  0.6043730000000 1.0
C      1  0.4443920000000  0.4097260000000  0.4897820000000 1.0
C      1  0.5535050000000  0.5835170000000  0.5191840000000 1.0
C      1  0.4327520000000  0.4819980000000  0.4855000000000 1.0
C      1  0.4547850000000  0.5475520000000  0.5630910000000 1.0
C      1  0.5419040000000  0.5430200000000  0.5499030000000 1.0
C      1  0.4841080000000  0.4885480000000  0.5304550000000 1.0
C      1  0.4045130000000  0.4668490000000  0.5368450000000 1.0
C      1  0.4366500000000  0.5714350000000  0.5227050000000 1.0
C      1  0.5134610000000  0.3863920000000  0.5008890000000 1.0
C      1  0.4898360000000  0.5444580000000  0.3788830000000 1.0
C      1  0.4190690000000  0.4617950000000  0.4236890000000 1.0
C      1  0.4484790000000  0.4709570000000  0.4380860000000 1.0
C      1  0.4158170000000  0.4776410000000  0.4598730000000 1.0
C      1  0.4497960000000  0.5432190000000  0.5948010000000 1.0
C      1  0.4609390000000  0.4721510000000  0.3986190000000 1.0
C      1  0.5440090000000  0.4462610000000  0.4135450000000 1.0
C      1  0.5258390000000  0.4039240000000  0.5178540000000 1.0
C      1  0.5751100000000  0.5623750000000  0.4586390000000 1.0
C      1  0.4600540000000  0.5091980000000  0.4955690000000 1.0
C      1  0.3936030000000  0.5605200000000  0.5086970000000 1.0
C      1  0.4660740000000  0.3984740000000  0.5144700000000 1.0
C      1  0.4740090000000  0.5471530000000  0.4304990000000 1.0
C      1  0.5470460000000  0.4653600000000  0.5876880000000 1.0
C      1  0.5913970000000  0.5373680000000  0.4483520000000 1.0
C      1  0.6096050000000  0.5272290000000  0.5191930000000 1.0
C      1  0.5737800000000  0.4330320000000  0.5112990000000 1.0
C      1  0.4844600000000  0.4426500000000  0.5502100000000 1.0
C      1  0.6001940000000  0.4635520000000  0.4448370000000 1.0
C      1  0.5455630000000  0.6073650000000  0.4962720000000 1.0
C      1  0.4989190000000  0.5899420000000  0.4521380000000 1.0
C      1  0.5002330000000  0.5147560000000  0.5450400000000 1.0
C      1  0.4177600000000  0.5225860000000  0.5374300000000 1.0
C      1  0.5724550000000  0.5689320000000  0.5421470000000 1.0
C      1  0.3947830000000  0.4698610000000  0.4832410000000 1.0
C      1  0.4562400000000  0.4452000000000  0.5781990000000 1.0
C      1  0.4600430000000  0.5754510000000  0.5910640000000 1.0
C      1  0.5429800000000  0.5194270000000  0.6072180000000 1.0
C      1  0.5777900000000  0.4872490000000  0.4521380000000 1.0
C      1  0.4253100000000  0.4993240000000  0.5137960000000 1.0
C      1  0.5046880000000  0.6181500000000  0.5101040000000 1.0
C      1  0.5000290000000  0.5957520000000  0.4849300000000 1.0
C      1  0.4574080000000  0.5002170000000  0.5643690000000 1.0
C      1  0.4295540000000  0.4394290000000  0.4823400000000 1.0
C      1  0.5280660000000  0.5033130000000  0.4240560000000 1.0
C      1  0.4092610000000  0.4520420000000  0.5065930000000 1.0
C      1  0.5934470000000  0.4523490000000  0.5081400000000 1.0
C      1  0.4637820000000  0.4133400000000  0.5678050000000 1.0
C      1  0.5161750000000  0.5330910000000  0.3823570000000 1.0
C      1  0.5682640000000  0.4954890000000  0.4981270000000 1.0
C      1  0.6113330000000  0.4995400000000  0.5642400000000 1.0
C      1  0.5304770000000  0.5000990000000  0.5745230000000 1.0
C      1  0.5191250000000  0.4617470000000  0.5742140000000 1.0
C      1  0.5157070000000  0.4848730000000  0.3976560000000 1.0
C      1  0.4508150000000  0.5221150000000  0.5449390000000 1.0
C      1  0.5496870000000  0.4782280000000  0.4175210000000 1.0
C      1  0.4977950000000  0.3948250000000  0.4487580000000 1.0
C      1  0.4450490000000  0.4314260000000  0.4362560000000 1.0
C      1  0.5350370000000  0.4133440000000  0.5693370000000 1.0
C      1  0.6224040000000  0.4801790000000  0.5490910000000 1.0
C      1  0.5876310000000  0.5243020000000  0.5650120000000 1.0
C      1  0.4714220000000  0.4288610000000  0.5287670000000 1.0
C      1  0.4754200000000  0.4915070000000  0.4397790000000 1.0
C      1  0.4992310000000  0.4885850000000  0.5791350000000 1.0
C      1  0.5111520000000  0.4143440000000  0.4288020000000 1.0
C      1  0.4795320000000  0.5988420000000  0.5489510000000 1.0
C      1  0.4970830000000  0.4936180000000  0.6120380000000 1.0
C      1  0.5481800000000  0.5787800000000  0.4483980000000 1.0
C      1  0.4253410000000  0.5221960000000  0.5876810000000 1.0
C      1  0.5849530000000  0.4446040000000  0.4626260000000 1.0
C      1  0.5450820000000  0.4124680000000  0.4745670000000 1.0
C      1  0.4964630000000  0.5072390000000  0.4601020000000 1.0
C      1  0.5206180000000  0.5319270000000  0.4129940000000 1.0
C      1  0.5167640000000  0.4548620000000  0.4031370000000 1.0
C      1  0.4168130000000  0.5184960000000  0.4870240000000 1.0
C      1  0.5197710000000  0.5611140000000  0.5591540000000 1.0
C      1  0.3950670000000  0.5477020000000  0.5341510000000 1.0
C      1  0.4137380000000  0.4494890000000  0.5595040000000 1.0
C      1  0.5267280000000  0.3981440000000  0.4587140000000 1.0
C      1  0.4641230000000  0.4788080000000  0.4893830000000 1.0
C      1  0.5411820000000  0.4299450000000  0.5021120000000 1.0
C      1  0.5554250000000  0.5341080000000  0.4324250000000 1.0
C      1  0.4573940000000  0.5201140000000  0.4434000000000 1.0
C      1  0.4527550000000  0.4087050000000  0.4567180000000 1.0
C      1  0.3939480000000  0.4890490000000  0.5055880000000 1.0
C      1  0.4932770000000  0.5224310000000  0.4218320000000 1.0
C      1  0.4825630000000  0.4131450000000  0.4716770000000 1.0
C      1  0.5880040000000  0.5308720000000  0.4794670000000 1.0
C      1  0.4977260000000  0.4660220000000  0.4428490000000 1.0
C      1  0.5616350000000  0.5064520000000  0.4028740000000 1.0
C      1  0.6149600000000  0.4914590000000  0.4846580000000 1.0
C      1  0.5550300000000  0.5425430000000  0.5980620000000 1.0
C      1  0.5077060000000  0.5626920000000  0.4825920000000 1.0
C      1  0.4673120000000  0.5421310000000  0.3975340000000 1.0
C      1  0.4528200000000  0.5916370000000  0.4741620000000 1.0
C      1  0.4999430000000  0.5691350000000  0.4317070000000 1.0
C      1  0.5965770000000  0.5557030000000  0.5274450000000 1.0
C      1  0.5837800000000  0.5185160000000  0.5345600000000 1.0
C      1  0.4648450000000  0.5628620000000  0.5114990000000 1.0
C      1  0.4832390000000  0.5249790000000  0.4812700000000 1.0
C      1  0.4022720000000  0.4935340000000  0.5459600000000 1.0
C      1  0.5061410000000  0.4656470000000  0.5427300000000 1.0
C      1  0.4570260000000  0.5864070000000  0.4238040000000 1.0
C      1  0.4797780000000  0.4987290000000  0.4083520000000 1.0
C      1  0.5546530000000  0.5802430000000  0.4173910000000 1.0
C      1  0.5674030000000  0.4505910000000  0.5740200000000 1.0
C      1  0.4399320000000  0.4980240000000  0.4054320000000 1.0
C      1  0.4457820000000  0.4740380000000  0.5928610000000 1.0
C      1  0.5753300000000  0.4888580000000  0.5306340000000 1.0
C      1  0.5635920000000  0.4290560000000  0.4583150000000 1.0
C      1  0.5844970000000  0.4705320000000  0.5570420000000 1.0
C      1  0.4741970000000  0.5578110000000  0.4791940000000 1.0
C      1  0.5196700000000  0.5406150000000  0.4606380000000 1.0
C      1  0.4513130000000  0.4575080000000  0.5105100000000 1.0
C      1  0.6051710000000  0.4624950000000  0.5312560000000 1.0
C      1  0.4179050000000  0.5021970000000  0.5717400000000 1.0
C      1  0.6103600000000  0.5169020000000  0.4932280000000 1.0
C      1  0.4878620000000  0.4825030000000  0.3806110000000 1.0
C      1  0.5451210000000  0.5204080000000  0.4971700000000 1.0
C      1  0.5598280000000  0.5565430000000  0.4091790000000 1.0
C      1  0.4154530000000  0.5793110000000  0.5060660000000 1.0
C      1  0.5307270000000  0.5144050000000  0.5482680000000 1.0
C      1  0.4893520000000  0.5209930000000  0.5762100000000 1.0
C      1  0.4799570000000  0.3937810000000  0.5451520000000 1.0
C      1  0.4447360000000  0.5233580000000  0.4707340000000 1.0
C      1  0.4941940000000  0.5308380000000  0.6263030000000 1.0
C      1  0.5232980000000  0.5869340000000  0.5506840000000 1.0
C      1  0.3928850000000  0.5426530000000  0.4870770000000 1.0
C      1  0.4883650000000  0.5504410000000  0.5584790000000 1.0
C      1  0.4825350000000  0.4619430000000  0.4708660000000 1.0
C      1  0.5777710000000  0.5105120000000  0.4325640000000 1.0
C      1  0.4356460000000  0.4754770000000  0.5604030000000 1.0
C      1  0.4467790000000  0.5223720000000  0.3944240000000 1.0
C      1  0.4959100000000  0.4206100000000  0.5692860000000 1.0
C      1  0.4865390000000  0.5845280000000  0.5208130000000 1.0
C      1  0.5426110000000  0.4460810000000  0.5384490000000 1.0
C      1  0.4766160000000  0.5804480000000  0.5693310000000 1.0
C      1  0.4110600000000  0.5490320000000  0.4623880000000 1.0
C      1  0.4273610000000  0.5540720000000  0.5461480000000 1.0
C      1  0.5472060000000  0.4717860000000  0.5220460000000 1.0
C      1  0.4644960000000  0.4923300000000  0.6046630000000 1.0
C      1  0.4930340000000  0.5389950000000  0.5268010000000 1.0
C      1  0.5179720000000  0.4326880000000  0.5867870000000 1.0
C      1  0.4640830000000  0.4441980000000  0.4130380000000 1.0
C      1  0.5380180000000  0.5007910000000  0.5234960000000 1.0
C      1  0.4380740000000  0.4299650000000  0.5551880000000 1.0
C      1  0.5600990000000  0.5360040000000  0.5234160000000 1.0
C      1  0.4865710000000  0.6231340000000  0.5310430000000 1.0
C      1  0.5360910000000  0.5808030000000  0.4777750000000 1.0
C      1  0.5299780000000  0.5083500000000  0.4576420000000 1.0
C      1  0.5201290000000  0.5901410000000  0.5190200000000 1.0
C      1  0.4252320000000  0.5830630000000  0.4797570000000 1.0
C      1  0.5334070000000  0.4349730000000  0.4438140000000 1.0
C      1  0.4544450000000  0.4511200000000  0.4623330000000 1.0
C      1  0.4170170000000  0.4447840000000  0.4511730000000 1.0
C      1  0.5543280000000  0.4313700000000  0.5578410000000 1.0
C      1  0.4878150000000  0.3904810000000  0.4937840000000 1.0
C      1  0.4299410000000  0.4994600000000  0.4379130000000 1.0
C      1  0.5131070000000  0.4024790000000  0.5461300000000 1.0
END
