TITL C-2848506-1665-64 0.00374408898809445 125000 -212.184540995029 0 0 41 (C1) n - 1
REM
REM in /home/bkarasulu/work/CARBON/AIRSS/Generating-Clusters/AIREBO/with-SteepDescent/Only-C1/SD-CG-opt/Try1-1.4A-POS3A/HFTN-CG
REM
REM
REM
REM
REM
REM ./C.cell (11c1c37f851c82e70ff6c80c92926a4b)
REM
REM compiler GCC version 9.2.1 20190827 (Red Hat 9.2.1-1)
REM options -cpp -mtune=generic -march=x86-64 -g -O0 -fpre-include=/usr/include/finclude/math-vector-fortran.h
REM seed 1430925236 -2049293404 -364964093 1811940252 1832234336 -1843027376 1937381221 1053334811 -556146735 -1639127952 1655897733 922701457 1197223874 -340645733 -545869148 -338733065 1109340727 787092710 1509099148 1978291773 -1388563107 -297941215 165305686 2000731187 -905544422 741750428 456682856 1269171639 -160168273 -1573604903 1296904597 1924342909 620600558
REM
CELL 1.54180   50.00000   50.00000   50.00000   90.00000   90.00000   90.00000
LATT -1
SFAC C  
C      1  0.5055950000000  0.5265960000000  0.4655560000000 1.0
C      1  0.5466980000000  0.5499610000000  0.4808380000000 1.0
C      1  0.5296390000000  0.4453290000000  0.4809280000000 1.0
C      1  0.4596490000000  0.5422440000000  0.4480920000000 1.0
C      1  0.5365680000000  0.4778880000000  0.4878700000000 1.0
C      1  0.4508000000000  0.5535910000000  0.4743750000000 1.0
C      1  0.4714650000000  0.4941710000000  0.5053090000000 1.0
C      1  0.4993770000000  0.4733990000000  0.5532550000000 1.0
C      1  0.5214400000000  0.5499570000000  0.5218750000000 1.0
C      1  0.5353580000000  0.5353600000000  0.5027690000000 1.0
C      1  0.4941970000000  0.5409920000000  0.4941740000000 1.0
C      1  0.4456870000000  0.5239680000000  0.4807020000000 1.0
C      1  0.5258500000000  0.5027550000000  0.5531070000000 1.0
C      1  0.5208450000000  0.5029790000000  0.4465650000000 1.0
C      1  0.4984970000000  0.4846210000000  0.4980980000000 1.0
C      1  0.4829320000000  0.4731310000000  0.4633610000000 1.0
C      1  0.4919390000000  0.4544520000000  0.4903080000000 1.0
C      1  0.4785040000000  0.5308550000000  0.5528500000000 1.0
C      1  0.5380650000000  0.4722660000000  0.5213810000000 1.0
C      1  0.4758690000000  0.5207360000000  0.4529850000000 1.0
C      1  0.4855750000000  0.5211560000000  0.5148210000000 1.0
C      1  0.4942490000000  0.5688100000000  0.5140390000000 1.0
C      1  0.4946560000000  0.5046260000000  0.5675040000000 1.0
C      1  0.5205970000000  0.5078650000000  0.4896640000000 1.0
C      1  0.4618980000000  0.4955690000000  0.4665780000000 1.0
C      1  0.5035790000000  0.4464490000000  0.4591100000000 1.0
C      1  0.4976860000000  0.5012040000000  0.5344530000000 1.0
C      1  0.4571430000000  0.5230590000000  0.5310270000000 1.0
C      1  0.4978940000000  0.4358950000000  0.5120280000000 1.0
C      1  0.5164410000000  0.4781160000000  0.4604520000000 1.0
C      1  0.4438030000000  0.4875770000000  0.4942660000000 1.0
C      1  0.5303340000000  0.4311310000000  0.5148500000000 1.0
C      1  0.5144920000000  0.4544100000000  0.5339130000000 1.0
C      1  0.5641560000000  0.4826940000000  0.4784940000000 1.0
C      1  0.4383440000000  0.5158750000000  0.5107940000000 1.0
C      1  0.4720490000000  0.5640250000000  0.4889700000000 1.0
C      1  0.4780050000000  0.4154320000000  0.5211930000000 1.0
C      1  0.5463040000000  0.4899140000000  0.5409910000000 1.0
C      1  0.4962230000000  0.5500460000000  0.5424680000000 1.0
C      1  0.5293830000000  0.5492380000000  0.4588590000000 1.0
C      1  0.5482160000000  0.4216570000000  0.4911270000000 1.0
END
