TITL C-2847949-8115-310 -0.00302727921179356 125000 -859.980115324479 0 0 161 (C1) n - 1
REM
REM in /home/bkarasulu/work/CARBON/AIRSS/Generating-Clusters/AIREBO/with-SteepDescent/Only-C1/SD-CG-opt/Try1-1.4A-POS3A/HFTN-CG
REM
REM
REM
REM
REM
REM ./C.cell (11c1c37f851c82e70ff6c80c92926a4b)
REM
REM compiler GCC version 9.2.1 20190827 (Red Hat 9.2.1-1)
REM options -cpp -mtune=generic -march=x86-64 -g -O0 -fpre-include=/usr/include/finclude/math-vector-fortran.h
REM seed 358289060 -12650016 41423859 -1864721138 -1036084161 2106019754 -1869890239 -277686642 -568146636 -1504050456 -199823825 -231286417 -1526316260 -709545829 -1570215 1421806817 -1590440856 -2029366470 -363575381 -1130004988 -215059713 -104515193 972375511 500099293 804542605 283360683 -1088185263 1368999417 -1041480500 -771802712 822048452 -1644138567 -1459776468
REM
CELL 1.54180   50.00000   50.00000   50.00000   90.00000   90.00000   90.00000
LATT -1
SFAC C  
C      1  0.5017860000000  0.4700950000000  0.5843440000000 1.0
C      1  0.4972230000000  0.4209090000000  0.4379420000000 1.0
C      1  0.4829070000000  0.6085120000000  0.5553850000000 1.0
C      1  0.5506870000000  0.4384420000000  0.4210740000000 1.0
C      1  0.4842610000000  0.5440290000000  0.5428710000000 1.0
C      1  0.5299550000000  0.5016600000000  0.6210050000000 1.0
C      1  0.4735660000000  0.4127000000000  0.5093170000000 1.0
C      1  0.5293530000000  0.5492660000000  0.4888890000000 1.0
C      1  0.4186720000000  0.4516770000000  0.4225220000000 1.0
C      1  0.4436790000000  0.5148340000000  0.4207990000000 1.0
C      1  0.4703400000000  0.4390710000000  0.4277130000000 1.0
C      1  0.4589140000000  0.4102660000000  0.4394430000000 1.0
C      1  0.4911380000000  0.5240690000000  0.4880250000000 1.0
C      1  0.4000840000000  0.4947150000000  0.5529520000000 1.0
C      1  0.5128740000000  0.4762200000000  0.4845960000000 1.0
C      1  0.4515850000000  0.5409560000000  0.5403370000000 1.0
C      1  0.5465920000000  0.5863540000000  0.4942990000000 1.0
C      1  0.4201580000000  0.5408490000000  0.5382710000000 1.0
C      1  0.4088900000000  0.4664380000000  0.5392780000000 1.0
C      1  0.5040580000000  0.4869540000000  0.4551070000000 1.0
C      1  0.4808190000000  0.5826040000000  0.5131050000000 1.0
C      1  0.4409160000000  0.4840810000000  0.4414460000000 1.0
C      1  0.4664180000000  0.4548440000000  0.5108390000000 1.0
C      1  0.4126420000000  0.5450430000000  0.5684390000000 1.0
C      1  0.4849330000000  0.4581650000000  0.5573240000000 1.0
C      1  0.5219310000000  0.5522290000000  0.5219380000000 1.0
C      1  0.5148630000000  0.5004250000000  0.5924550000000 1.0
C      1  0.5860860000000  0.4804420000000  0.4600490000000 1.0
C      1  0.4797010000000  0.4846630000000  0.6031230000000 1.0
C      1  0.4642780000000  0.5643680000000  0.4370290000000 1.0
C      1  0.4034950000000  0.4713460000000  0.4363400000000 1.0
C      1  0.5653730000000  0.4657180000000  0.4757010000000 1.0
C      1  0.4423320000000  0.5773770000000  0.4185330000000 1.0
C      1  0.5453280000000  0.5776400000000  0.5464790000000 1.0
C      1  0.4139330000000  0.5016770000000  0.4314430000000 1.0
C      1  0.5609410000000  0.5783370000000  0.5240910000000 1.0
C      1  0.5329190000000  0.5440470000000  0.4427250000000 1.0
C      1  0.5128830000000  0.4785040000000  0.4145290000000 1.0
C      1  0.4290430000000  0.5560820000000  0.5112490000000 1.0
C      1  0.4986600000000  0.4208450000000  0.4901770000000 1.0
C      1  0.4894640000000  0.5498460000000  0.5101710000000 1.0
C      1  0.5692550000000  0.5321100000000  0.5094580000000 1.0
C      1  0.6101020000000  0.4931990000000  0.5274080000000 1.0
C      1  0.4903480000000  0.4516710000000  0.4901820000000 1.0
C      1  0.5537520000000  0.4813850000000  0.5035660000000 1.0
C      1  0.5170400000000  0.5574810000000  0.4091050000000 1.0
C      1  0.4889360000000  0.4726060000000  0.5267910000000 1.0
C      1  0.4416980000000  0.5050670000000  0.5780700000000 1.0
C      1  0.5799120000000  0.4549420000000  0.5849440000000 1.0
C      1  0.5024320000000  0.5688200000000  0.5767570000000 1.0
C      1  0.5162630000000  0.5919310000000  0.4977400000000 1.0
C      1  0.4243910000000  0.5877230000000  0.4036260000000 1.0
C      1  0.3971300000000  0.4861770000000  0.4854060000000 1.0
C      1  0.4576090000000  0.5460460000000  0.4988450000000 1.0
C      1  0.4069930000000  0.5094070000000  0.4623280000000 1.0
C      1  0.4982850000000  0.5113850000000  0.5246320000000 1.0
C      1  0.5617660000000  0.4387690000000  0.5511590000000 1.0
C      1  0.5750930000000  0.5312710000000  0.4759650000000 1.0
C      1  0.4830730000000  0.4185440000000  0.5622130000000 1.0
C      1  0.4654090000000  0.5903880000000  0.5404550000000 1.0
C      1  0.5388440000000  0.5051190000000  0.5458790000000 1.0
C      1  0.6062730000000  0.5181760000000  0.4795050000000 1.0
C      1  0.4085080000000  0.4650950000000  0.5052360000000 1.0
C      1  0.4655280000000  0.5148290000000  0.4712720000000 1.0
C      1  0.5240370000000  0.4977800000000  0.5070120000000 1.0
C      1  0.5287770000000  0.5260500000000  0.4176410000000 1.0
C      1  0.5340290000000  0.5760890000000  0.4320180000000 1.0
C      1  0.4571110000000  0.4824240000000  0.4653480000000 1.0
C      1  0.4848860000000  0.5079850000000  0.4465140000000 1.0
C      1  0.4561420000000  0.5687890000000  0.5559130000000 1.0
C      1  0.5218710000000  0.4288510000000  0.4305520000000 1.0
C      1  0.4574110000000  0.4860140000000  0.5471990000000 1.0
C      1  0.5171110000000  0.4149820000000  0.5643050000000 1.0
C      1  0.5807730000000  0.4908630000000  0.4347740000000 1.0
C      1  0.4721600000000  0.5081830000000  0.5654690000000 1.0
C      1  0.5143940000000  0.5514310000000  0.6245920000000 1.0
C      1  0.4147260000000  0.4372160000000  0.5245740000000 1.0
C      1  0.4762220000000  0.4599400000000  0.4636670000000 1.0
C      1  0.5185590000000  0.5611030000000  0.3788920000000 1.0
C      1  0.5151550000000  0.5311550000000  0.4662030000000 1.0
C      1  0.4842730000000  0.5150890000000  0.6028190000000 1.0
C      1  0.4352980000000  0.5130290000000  0.4784760000000 1.0
C      1  0.4202490000000  0.5404060000000  0.4669680000000 1.0
C      1  0.5378280000000  0.4805830000000  0.5771010000000 1.0
C      1  0.5747060000000  0.4361830000000  0.4881100000000 1.0
C      1  0.4245470000000  0.4773840000000  0.5679840000000 1.0
C      1  0.6054740000000  0.4901780000000  0.4783580000000 1.0
C      1  0.5913880000000  0.5067590000000  0.5443260000000 1.0
C      1  0.4510990000000  0.4837930000000  0.4090510000000 1.0
C      1  0.5128150000000  0.4484430000000  0.5282030000000 1.0
C      1  0.4592630000000  0.5344820000000  0.5923520000000 1.0
C      1  0.4975960000000  0.4953450000000  0.5505460000000 1.0
C      1  0.3876230000000  0.4710850000000  0.4584130000000 1.0
C      1  0.4409260000000  0.4860950000000  0.4950900000000 1.0
C      1  0.5045580000000  0.5073410000000  0.4207010000000 1.0
C      1  0.4532200000000  0.4240400000000  0.5722480000000 1.0
C      1  0.5546940000000  0.4163440000000  0.4890210000000 1.0
C      1  0.4654340000000  0.5191830000000  0.5181900000000 1.0
C      1  0.5654790000000  0.4656500000000  0.5314890000000 1.0
C      1  0.5190180000000  0.3986290000000  0.5258700000000 1.0
C      1  0.5152120000000  0.4670230000000  0.3624170000000 1.0
C      1  0.4948870000000  0.6014390000000  0.4190620000000 1.0
C      1  0.4402780000000  0.4486130000000  0.5770420000000 1.0
C      1  0.5669780000000  0.4903750000000  0.5515280000000 1.0
C      1  0.5772130000000  0.4996480000000  0.6000100000000 1.0
C      1  0.4380740000000  0.4538060000000  0.4974050000000 1.0
C      1  0.4125960000000  0.5122640000000  0.5301690000000 1.0
C      1  0.5564070000000  0.5588390000000  0.4778770000000 1.0
C      1  0.5246100000000  0.5536540000000  0.5558230000000 1.0
C      1  0.5518190000000  0.4727200000000  0.4079100000000 1.0
C      1  0.5277100000000  0.4766530000000  0.3847330000000 1.0
C      1  0.5862690000000  0.4565770000000  0.5084030000000 1.0
C      1  0.4926920000000  0.5751790000000  0.4217800000000 1.0
C      1  0.5797760000000  0.5578910000000  0.5251190000000 1.0
C      1  0.5904310000000  0.5352550000000  0.5431490000000 1.0
C      1  0.5497030000000  0.5866140000000  0.4603110000000 1.0
C      1  0.5342240000000  0.4548990000000  0.4808840000000 1.0
C      1  0.5383830000000  0.4498690000000  0.4508670000000 1.0
C      1  0.5276570000000  0.4321140000000  0.5023250000000 1.0
C      1  0.5814030000000  0.5400960000000  0.4447440000000 1.0
C      1  0.4105040000000  0.5586470000000  0.4905850000000 1.0
C      1  0.4491950000000  0.3994550000000  0.4621250000000 1.0
C      1  0.6055370000000  0.4769540000000  0.5041080000000 1.0
C      1  0.4962130000000  0.4188370000000  0.5308400000000 1.0
C      1  0.5620480000000  0.5584370000000  0.4374730000000 1.0
C      1  0.5563010000000  0.5059120000000  0.4143740000000 1.0
C      1  0.5011670000000  0.5435850000000  0.5985980000000 1.0
C      1  0.4464360000000  0.4542310000000  0.4157070000000 1.0
C      1  0.5490430000000  0.4248260000000  0.5274980000000 1.0
C      1  0.4626060000000  0.4713530000000  0.5774430000000 1.0
C      1  0.5848100000000  0.5205860000000  0.4257230000000 1.0
C      1  0.5498120000000  0.5022500000000  0.3811940000000 1.0
C      1  0.4400890000000  0.4975610000000  0.5238240000000 1.0
C      1  0.4705170000000  0.5834590000000  0.4644800000000 1.0
C      1  0.4278310000000  0.5319500000000  0.5867740000000 1.0
C      1  0.5257200000000  0.5222860000000  0.5687660000000 1.0
C      1  0.4940320000000  0.5310130000000  0.5678120000000 1.0
C      1  0.4501100000000  0.4016290000000  0.4882630000000 1.0
C      1  0.5106210000000  0.5837340000000  0.5279130000000 1.0
C      1  0.4701550000000  0.5606370000000  0.5800610000000 1.0
C      1  0.4815060000000  0.4943290000000  0.5014440000000 1.0
C      1  0.5321130000000  0.5022360000000  0.4601970000000 1.0
C      1  0.5450260000000  0.4123130000000  0.5646680000000 1.0
C      1  0.5379770000000  0.4779500000000  0.4369880000000 1.0
C      1  0.5682870000000  0.4802720000000  0.5816750000000 1.0
C      1  0.4413370000000  0.4238900000000  0.5101280000000 1.0
C      1  0.4506590000000  0.5556460000000  0.4669680000000 1.0
C      1  0.5548970000000  0.5040990000000  0.4792900000000 1.0
C      1  0.4903020000000  0.5469680000000  0.4513230000000 1.0
C      1  0.3938420000000  0.5114510000000  0.5050180000000 1.0
C      1  0.4882540000000  0.5927450000000  0.4830860000000 1.0
C      1  0.5231750000000  0.4749400000000  0.5471540000000 1.0
C      1  0.4657170000000  0.5304790000000  0.4345700000000 1.0
C      1  0.5410600000000  0.5241670000000  0.5200880000000 1.0
C      1  0.5503110000000  0.3923920000000  0.5376190000000 1.0
C      1  0.6028970000000  0.5337290000000  0.5043160000000 1.0
C      1  0.4945490000000  0.4606370000000  0.4358200000000 1.0
C      1  0.5022060000000  0.4387910000000  0.5800540000000 1.0
C      1  0.5066570000000  0.5926520000000  0.5564900000000 1.0
C      1  0.4956000000000  0.4088550000000  0.4620890000000 1.0
C      1  0.5433870000000  0.3932630000000  0.5040100000000 1.0
END
