TITL C-2847951-7423-162 0.00220693327608997 125000 -625.978289373952 0 0 116 (C1) n - 1
REM
REM in /home/bkarasulu/work/CARBON/AIRSS/Generating-Clusters/AIREBO/with-SteepDescent/Only-C1/SD-CG-opt/Try1-1.4A-POS3A/HFTN-CG
REM
REM
REM
REM
REM
REM ./C.cell (11c1c37f851c82e70ff6c80c92926a4b)
REM
REM compiler GCC version 9.2.1 20190827 (Red Hat 9.2.1-1)
REM options -cpp -mtune=generic -march=x86-64 -g -O0 -fpre-include=/usr/include/finclude/math-vector-fortran.h
REM seed -587790284 322915722 -1590333699 -80775434 -1816728719 -228984419 701009524 -1256399306 529805020 -2012194557 1832899673 -218360240 68700692 -1605841471 -1041218934 650142112 1033512692 -12226159 -1852011711 1846290141 1052542748 1266562423 1452988792 1404410870 -17661868 -403559011 -1208832174 1231488463 -1338280735 -1875458538 -136303335 1687423841 1020891161
REM
CELL 1.54180   50.00000   50.00000   50.00000   90.00000   90.00000   90.00000
LATT -1
SFAC C  
C      1  0.4636570000000  0.4965190000000  0.3986590000000 1.0
C      1  0.5122590000000  0.4757000000000  0.5103630000000 1.0
C      1  0.5341880000000  0.5603870000000  0.4497730000000 1.0
C      1  0.5564330000000  0.5189060000000  0.5165760000000 1.0
C      1  0.5454320000000  0.4508780000000  0.4506570000000 1.0
C      1  0.4615650000000  0.4283270000000  0.4488780000000 1.0
C      1  0.5009240000000  0.5637460000000  0.4522660000000 1.0
C      1  0.4318270000000  0.5002020000000  0.4647330000000 1.0
C      1  0.4553370000000  0.5162740000000  0.5270640000000 1.0
C      1  0.5073370000000  0.4269340000000  0.5277780000000 1.0
C      1  0.4282410000000  0.4323640000000  0.5030430000000 1.0
C      1  0.4189780000000  0.4687620000000  0.4675920000000 1.0
C      1  0.5287930000000  0.5468850000000  0.5105630000000 1.0
C      1  0.4219690000000  0.4753780000000  0.5438820000000 1.0
C      1  0.5524950000000  0.4922930000000  0.5373730000000 1.0
C      1  0.5029330000000  0.5849070000000  0.5171880000000 1.0
C      1  0.4768100000000  0.5422530000000  0.4424860000000 1.0
C      1  0.4267430000000  0.4977480000000  0.5601090000000 1.0
C      1  0.5907470000000  0.4585440000000  0.5484560000000 1.0
C      1  0.5225080000000  0.5496260000000  0.5815960000000 1.0
C      1  0.4322760000000  0.5456580000000  0.4661210000000 1.0
C      1  0.4773870000000  0.4814520000000  0.5847830000000 1.0
C      1  0.5746350000000  0.4489660000000  0.4679650000000 1.0
C      1  0.5592840000000  0.5450280000000  0.4949830000000 1.0
C      1  0.4344710000000  0.5542520000000  0.4962850000000 1.0
C      1  0.4486440000000  0.4477770000000  0.4323390000000 1.0
C      1  0.5103560000000  0.5212180000000  0.4102540000000 1.0
C      1  0.4854920000000  0.6099410000000  0.4436390000000 1.0
C      1  0.4478510000000  0.4541050000000  0.4759950000000 1.0
C      1  0.5608970000000  0.4743050000000  0.4313110000000 1.0
C      1  0.5408400000000  0.4283820000000  0.5257950000000 1.0
C      1  0.5080910000000  0.4940250000000  0.4752480000000 1.0
C      1  0.4142910000000  0.4570640000000  0.4973700000000 1.0
C      1  0.5354800000000  0.4306970000000  0.5557900000000 1.0
C      1  0.4440230000000  0.4206280000000  0.4769710000000 1.0
C      1  0.5809520000000  0.5279890000000  0.4750530000000 1.0
C      1  0.5030770000000  0.4491740000000  0.4949610000000 1.0
C      1  0.5189810000000  0.4542310000000  0.5612750000000 1.0
C      1  0.4930020000000  0.4653480000000  0.4482640000000 1.0
C      1  0.4425180000000  0.4306800000000  0.5283030000000 1.0
C      1  0.4895130000000  0.5930820000000  0.4886680000000 1.0
C      1  0.4856120000000  0.4523910000000  0.5692820000000 1.0
C      1  0.4582050000000  0.4686140000000  0.5028020000000 1.0
C      1  0.4616840000000  0.5415150000000  0.5062060000000 1.0
C      1  0.5384900000000  0.5011860000000  0.4504960000000 1.0
C      1  0.5259790000000  0.5162480000000  0.5605160000000 1.0
C      1  0.5309570000000  0.4977270000000  0.5872030000000 1.0
C      1  0.5157720000000  0.5262810000000  0.5977470000000 1.0
C      1  0.4457640000000  0.4932110000000  0.5799400000000 1.0
C      1  0.5480570000000  0.5421730000000  0.5623610000000 1.0
C      1  0.4945240000000  0.5240970000000  0.5280790000000 1.0
C      1  0.4940240000000  0.5130390000000  0.5669480000000 1.0
C      1  0.4784940000000  0.4949530000000  0.4399380000000 1.0
C      1  0.4913610000000  0.5904400000000  0.4619450000000 1.0
C      1  0.4483150000000  0.4616740000000  0.5323950000000 1.0
C      1  0.4672190000000  0.5142670000000  0.4889490000000 1.0
C      1  0.5284260000000  0.4254000000000  0.4496550000000 1.0
C      1  0.5545440000000  0.5597630000000  0.4646920000000 1.0
C      1  0.5913760000000  0.4517780000000  0.5213580000000 1.0
C      1  0.5145950000000  0.4126630000000  0.4232810000000 1.0
C      1  0.5350860000000  0.5157710000000  0.4204170000000 1.0
C      1  0.4466320000000  0.5004210000000  0.4277120000000 1.0
C      1  0.4903650000000  0.5559230000000  0.5044330000000 1.0
C      1  0.5314940000000  0.4089940000000  0.4755580000000 1.0
C      1  0.5345760000000  0.4643040000000  0.4146580000000 1.0
C      1  0.4614770000000  0.5354710000000  0.6041690000000 1.0
C      1  0.5796250000000  0.4430440000000  0.4938040000000 1.0
C      1  0.5963340000000  0.5240290000000  0.5512480000000 1.0
C      1  0.4379300000000  0.4722030000000  0.4417710000000 1.0
C      1  0.5699110000000  0.4726530000000  0.5573020000000 1.0
C      1  0.5028830000000  0.5647700000000  0.5663100000000 1.0
C      1  0.4937110000000  0.5014040000000  0.5043720000000 1.0
C      1  0.5359710000000  0.5252320000000  0.4800820000000 1.0
C      1  0.5806860000000  0.5309610000000  0.4474510000000 1.0
C      1  0.5421590000000  0.4794390000000  0.5093810000000 1.0
C      1  0.4433570000000  0.4964710000000  0.5028470000000 1.0
C      1  0.4956690000000  0.5434520000000  0.4162240000000 1.0
C      1  0.5865640000000  0.5017690000000  0.4811050000000 1.0
C      1  0.4870390000000  0.5178340000000  0.4636270000000 1.0
C      1  0.5473190000000  0.4944430000000  0.4826370000000 1.0
C      1  0.4779080000000  0.4228640000000  0.4786880000000 1.0
C      1  0.5374590000000  0.4781880000000  0.5646090000000 1.0
C      1  0.5698450000000  0.4799120000000  0.4631580000000 1.0
C      1  0.4981180000000  0.5905950000000  0.5452500000000 1.0
C      1  0.4844410000000  0.5532000000000  0.5378150000000 1.0
C      1  0.5081750000000  0.4704950000000  0.4182310000000 1.0
C      1  0.4784620000000  0.4323740000000  0.5113350000000 1.0
C      1  0.5712560000000  0.5265060000000  0.5449450000000 1.0
C      1  0.4292380000000  0.5210000000000  0.5436280000000 1.0
C      1  0.4952430000000  0.4314820000000  0.4503220000000 1.0
C      1  0.5258590000000  0.5222620000000  0.5301830000000 1.0
C      1  0.4200960000000  0.5322960000000  0.5171520000000 1.0
C      1  0.4722040000000  0.4324320000000  0.5447900000000 1.0
C      1  0.4773300000000  0.5009920000000  0.5431580000000 1.0
C      1  0.4190300000000  0.5163700000000  0.4898760000000 1.0
C      1  0.5652660000000  0.5081520000000  0.4321530000000 1.0
C      1  0.5247590000000  0.4731550000000  0.4575710000000 1.0
C      1  0.4204660000000  0.5094660000000  0.4150120000000 1.0
C      1  0.5633250000000  0.5653620000000  0.5435120000000 1.0
C      1  0.4799440000000  0.4630200000000  0.4782420000000 1.0
C      1  0.5223820000000  0.4213140000000  0.4985760000000 1.0
C      1  0.4292520000000  0.5811070000000  0.5018590000000 1.0
C      1  0.5598150000000  0.5709150000000  0.5170550000000 1.0
C      1  0.4486210000000  0.5259230000000  0.4501180000000 1.0
C      1  0.4547690000000  0.5652410000000  0.5493000000000 1.0
C      1  0.4695500000000  0.5142970000000  0.5888490000000 1.0
C      1  0.4741080000000  0.5820660000000  0.5633380000000 1.0
C      1  0.5011160000000  0.4588500000000  0.5335920000000 1.0
C      1  0.5558100000000  0.4512210000000  0.5127880000000 1.0
C      1  0.5018560000000  0.4955560000000  0.6020490000000 1.0
C      1  0.5362440000000  0.5860220000000  0.5104060000000 1.0
C      1  0.5064990000000  0.5420740000000  0.4778700000000 1.0
C      1  0.5230920000000  0.5704150000000  0.4866900000000 1.0
C      1  0.4169830000000  0.4792750000000  0.5149930000000 1.0
C      1  0.4743640000000  0.4721540000000  0.5440050000000 1.0
C      1  0.4936940000000  0.4967990000000  0.4095790000000 1.0
END
