TITL C-2847951-7423-431 0.000521090828840701 125000 -660.957960169862 0 0 125 (C1) n - 1
REM
REM in /home/bkarasulu/work/CARBON/AIRSS/Generating-Clusters/AIREBO/with-SteepDescent/Only-C1/SD-CG-opt/Try1-1.4A-POS3A/HFTN-CG
REM
REM
REM
REM
REM
REM ./C.cell (11c1c37f851c82e70ff6c80c92926a4b)
REM
REM compiler GCC version 9.2.1 20190827 (Red Hat 9.2.1-1)
REM options -cpp -mtune=generic -march=x86-64 -g -O0 -fpre-include=/usr/include/finclude/math-vector-fortran.h
REM seed 946785577 -1781486992 505311391 281714131 -1455045247 1012267927 574978343 -1753330821 792974350 -127968052 -1238511858 -2062926049 -1124438074 -73043961 1998609385 -1916844411 -1743363554 -57027728 -49525785 -287295530 -966183553 123675744 632111967 -1638533300 -101668286 364884391 -244495165 -927453379 -1054661864 -1870185443 1554961019 -388640499 1456370996
REM
CELL 1.54180   50.00000   50.00000   50.00000   90.00000   90.00000   90.00000
LATT -1
SFAC C  
C      1  0.4756230000000  0.5641530000000  0.4610770000000 1.0
C      1  0.4586400000000  0.4518910000000  0.5570790000000 1.0
C      1  0.5166050000000  0.4496780000000  0.5973910000000 1.0
C      1  0.4376330000000  0.5788490000000  0.5441180000000 1.0
C      1  0.5395420000000  0.4590020000000  0.5509680000000 1.0
C      1  0.5335230000000  0.4195720000000  0.4551580000000 1.0
C      1  0.4166020000000  0.4575310000000  0.4830790000000 1.0
C      1  0.4582540000000  0.4413950000000  0.4404820000000 1.0
C      1  0.5683920000000  0.4696040000000  0.4854540000000 1.0
C      1  0.4984620000000  0.5604060000000  0.4127490000000 1.0
C      1  0.5874770000000  0.5305090000000  0.4169970000000 1.0
C      1  0.5684700000000  0.5646970000000  0.5304480000000 1.0
C      1  0.3748230000000  0.4724350000000  0.4595090000000 1.0
C      1  0.4903180000000  0.5156760000000  0.4033600000000 1.0
C      1  0.4922460000000  0.4249460000000  0.4839830000000 1.0
C      1  0.5304880000000  0.5594190000000  0.4840030000000 1.0
C      1  0.5442150000000  0.5466170000000  0.5754530000000 1.0
C      1  0.4432310000000  0.5217920000000  0.4738700000000 1.0
C      1  0.4794250000000  0.5517020000000  0.6053930000000 1.0
C      1  0.5257630000000  0.5215420000000  0.5881870000000 1.0
C      1  0.5478870000000  0.4960680000000  0.4793950000000 1.0
C      1  0.4632630000000  0.4765800000000  0.4784110000000 1.0
C      1  0.5103070000000  0.5626020000000  0.5082930000000 1.0
C      1  0.5584860000000  0.5455490000000  0.4518710000000 1.0
C      1  0.5063420000000  0.4175250000000  0.5433610000000 1.0
C      1  0.5942550000000  0.4937400000000  0.5039790000000 1.0
C      1  0.6062280000000  0.5117720000000  0.4587110000000 1.0
C      1  0.4816950000000  0.4104010000000  0.5314100000000 1.0
C      1  0.5312660000000  0.4916540000000  0.5728650000000 1.0
C      1  0.5674950000000  0.5660590000000  0.4706840000000 1.0
C      1  0.5640640000000  0.4647030000000  0.5388630000000 1.0
C      1  0.5109510000000  0.4997710000000  0.4387190000000 1.0
C      1  0.5754390000000  0.5146590000000  0.5492080000000 1.0
C      1  0.5394100000000  0.4868020000000  0.5110060000000 1.0
C      1  0.5854040000000  0.5168690000000  0.4405530000000 1.0
C      1  0.4445330000000  0.4925240000000  0.5355270000000 1.0
C      1  0.4828440000000  0.5587720000000  0.5232250000000 1.0
C      1  0.4257160000000  0.5482760000000  0.5052330000000 1.0
C      1  0.4223350000000  0.5687610000000  0.5237470000000 1.0
C      1  0.4444280000000  0.5592660000000  0.4601250000000 1.0
C      1  0.5002530000000  0.5278890000000  0.6032760000000 1.0
C      1  0.4441510000000  0.5167740000000  0.5831380000000 1.0
C      1  0.5311400000000  0.5010530000000  0.5407580000000 1.0
C      1  0.4841390000000  0.4251860000000  0.4407440000000 1.0
C      1  0.4912170000000  0.4728680000000  0.4698300000000 1.0
C      1  0.3993080000000  0.4834200000000  0.4731270000000 1.0
C      1  0.4838850000000  0.6043340000000  0.4913140000000 1.0
C      1  0.4789760000000  0.4896340000000  0.4106610000000 1.0
C      1  0.4157890000000  0.4509790000000  0.5110860000000 1.0
C      1  0.5176720000000  0.4431700000000  0.5398450000000 1.0
C      1  0.5127270000000  0.5249440000000  0.4748660000000 1.0
C      1  0.5447270000000  0.5291600000000  0.4855780000000 1.0
C      1  0.4037640000000  0.5165510000000  0.4750650000000 1.0
C      1  0.5573960000000  0.4987310000000  0.6169020000000 1.0
C      1  0.4996280000000  0.4440210000000  0.4601570000000 1.0
C      1  0.4818850000000  0.5106960000000  0.4976100000000 1.0
C      1  0.5148730000000  0.4659680000000  0.4390950000000 1.0
C      1  0.4771810000000  0.4911230000000  0.5449380000000 1.0
C      1  0.4395490000000  0.4483990000000  0.4605260000000 1.0
C      1  0.4847650000000  0.5200590000000  0.5558240000000 1.0
C      1  0.4333180000000  0.4628240000000  0.5597390000000 1.0
C      1  0.5365030000000  0.4582850000000  0.4641950000000 1.0
C      1  0.4237900000000  0.5257870000000  0.4268930000000 1.0
C      1  0.4776420000000  0.5912000000000  0.5141860000000 1.0
C      1  0.4818760000000  0.4435210000000  0.5090250000000 1.0
C      1  0.5603650000000  0.4696100000000  0.4427800000000 1.0
C      1  0.4447710000000  0.4776220000000  0.5049670000000 1.0
C      1  0.4285500000000  0.4954820000000  0.4856100000000 1.0
C      1  0.4162460000000  0.4738690000000  0.5325840000000 1.0
C      1  0.4893140000000  0.5518320000000  0.4371400000000 1.0
C      1  0.4898270000000  0.5478410000000  0.4854150000000 1.0
C      1  0.4834150000000  0.4674000000000  0.5637090000000 1.0
C      1  0.5554140000000  0.5431710000000  0.5107270000000 1.0
C      1  0.4335040000000  0.5038160000000  0.5647520000000 1.0
C      1  0.5671350000000  0.5416470000000  0.5528290000000 1.0
C      1  0.4943950000000  0.4877360000000  0.5208840000000 1.0
C      1  0.4069170000000  0.5044270000000  0.5226400000000 1.0
C      1  0.4822440000000  0.4633170000000  0.4298550000000 1.0
C      1  0.5294220000000  0.4572320000000  0.4972310000000 1.0
C      1  0.4835780000000  0.5198170000000  0.4364400000000 1.0
C      1  0.4785030000000  0.5293650000000  0.5259070000000 1.0
C      1  0.5765410000000  0.4580310000000  0.5109150000000 1.0
C      1  0.4736450000000  0.4049750000000  0.5032020000000 1.0
C      1  0.5697090000000  0.4948720000000  0.5242070000000 1.0
C      1  0.5371790000000  0.5764190000000  0.5239700000000 1.0
C      1  0.5110560000000  0.3990880000000  0.4914590000000 1.0
C      1  0.4710960000000  0.5069960000000  0.4653840000000 1.0
C      1  0.5578960000000  0.4360170000000  0.4474790000000 1.0
C      1  0.5153050000000  0.4914080000000  0.4698680000000 1.0
C      1  0.5604230000000  0.5024160000000  0.4484220000000 1.0
C      1  0.5301750000000  0.5310390000000  0.5226630000000 1.0
C      1  0.5388410000000  0.4645790000000  0.4166680000000 1.0
C      1  0.5881170000000  0.4669430000000  0.4622560000000 1.0
C      1  0.4539440000000  0.4465130000000  0.4912810000000 1.0
C      1  0.5270620000000  0.5534260000000  0.5468920000000 1.0
C      1  0.5394850000000  0.3984290000000  0.5059240000000 1.0
C      1  0.4651640000000  0.5812140000000  0.5409770000000 1.0
C      1  0.4490920000000  0.5192910000000  0.5184280000000 1.0
C      1  0.4728180000000  0.5266640000000  0.5832280000000 1.0
C      1  0.5138610000000  0.5241610000000  0.5581810000000 1.0
C      1  0.5320820000000  0.4252880000000  0.4862060000000 1.0
C      1  0.5444990000000  0.5852670000000  0.4765090000000 1.0
C      1  0.4574600000000  0.5421060000000  0.4946370000000 1.0
C      1  0.4216940000000  0.5360270000000  0.4544110000000 1.0
C      1  0.4461040000000  0.4139740000000  0.4972910000000 1.0
C      1  0.4818190000000  0.5943530000000  0.4659910000000 1.0
C      1  0.4608510000000  0.4871420000000  0.4397270000000 1.0
C      1  0.5146020000000  0.4644120000000  0.5734930000000 1.0
C      1  0.5577280000000  0.4976510000000  0.5896220000000 1.0
C      1  0.5802880000000  0.4987260000000  0.5726540000000 1.0
C      1  0.5789570000000  0.5610990000000  0.4976510000000 1.0
C      1  0.5150120000000  0.5097860000000  0.5052380000000 1.0
C      1  0.5903700000000  0.4743910000000  0.5663760000000 1.0
C      1  0.5250590000000  0.5755270000000  0.5726540000000 1.0
C      1  0.4335810000000  0.4955910000000  0.4243290000000 1.0
C      1  0.4095800000000  0.5249380000000  0.5048460000000 1.0
C      1  0.5045520000000  0.4595470000000  0.5178330000000 1.0
C      1  0.4313570000000  0.4291750000000  0.5193100000000 1.0
C      1  0.4995770000000  0.5402430000000  0.3932780000000 1.0
C      1  0.4600460000000  0.4341550000000  0.5329610000000 1.0
C      1  0.4541040000000  0.5208190000000  0.4195120000000 1.0
C      1  0.5101030000000  0.4101890000000  0.4415850000000 1.0
C      1  0.6012570000000  0.4905340000000  0.4766240000000 1.0
C      1  0.5337570000000  0.5225160000000  0.4479920000000 1.0
C      1  0.5423150000000  0.5995260000000  0.5020720000000 1.0
END
