TITL C-2847948-6138-748 0.00185575071394312 125000 -328.106733033458 0 0 61 (C1) n - 1
REM
REM in /home/bkarasulu/work/CARBON/AIRSS/Generating-Clusters/AIREBO/with-SteepDescent/Only-C1/SD-CG-opt/Try1-1.4A-POS3A/HFTN-CG
REM
REM
REM
REM
REM
REM ./C.cell (11c1c37f851c82e70ff6c80c92926a4b)
REM
REM compiler GCC version 9.2.1 20190827 (Red Hat 9.2.1-1)
REM options -cpp -mtune=generic -march=x86-64 -g -O0 -fpre-include=/usr/include/finclude/math-vector-fortran.h
REM seed -930098868 635448975 131712576 -549092714 1095701116 426640222 1008104393 332802463 -1945267206 -80726733 -683614729 1442355968 1611990666 1203498051 -341119813 -1033392729 -120940364 -822603330 -1185655033 -1481515011 -431929119 -368446125 577117409 1769343589 -1219489617 -876592933 -555151755 -1733699408 -101335096 -1939686105 -1135099874 -56304247 1473944208
REM
CELL 1.54180   50.00000   50.00000   50.00000   90.00000   90.00000   90.00000
LATT -1
SFAC C  
C      1  0.5284830000000  0.5410030000000  0.4388640000000 1.0
C      1  0.4898130000000  0.4741180000000  0.4298670000000 1.0
C      1  0.4251940000000  0.5084890000000  0.5465660000000 1.0
C      1  0.5243620000000  0.4456880000000  0.5384330000000 1.0
C      1  0.5115160000000  0.5504510000000  0.4626650000000 1.0
C      1  0.4568400000000  0.5293710000000  0.4589820000000 1.0
C      1  0.5110000000000  0.4714470000000  0.5206830000000 1.0
C      1  0.5562130000000  0.5084900000000  0.5386750000000 1.0
C      1  0.5116540000000  0.4200450000000  0.5270570000000 1.0
C      1  0.5001500000000  0.4670000000000  0.4819220000000 1.0
C      1  0.5624380000000  0.5242010000000  0.5165240000000 1.0
C      1  0.5308080000000  0.5173480000000  0.5528280000000 1.0
C      1  0.4668930000000  0.5762550000000  0.4904210000000 1.0
C      1  0.4529420000000  0.5125010000000  0.4360750000000 1.0
C      1  0.5615150000000  0.4812440000000  0.5467640000000 1.0
C      1  0.4345940000000  0.4759460000000  0.4781410000000 1.0
C      1  0.4250050000000  0.5193740000000  0.4960690000000 1.0
C      1  0.5231910000000  0.5813050000000  0.5422120000000 1.0
C      1  0.5158860000000  0.5251680000000  0.4191670000000 1.0
C      1  0.4460130000000  0.4314110000000  0.5855640000000 1.0
C      1  0.5395330000000  0.5795710000000  0.4921660000000 1.0
C      1  0.5064090000000  0.4978060000000  0.4572720000000 1.0
C      1  0.5006730000000  0.5789960000000  0.4571520000000 1.0
C      1  0.4423450000000  0.5354730000000  0.4828020000000 1.0
C      1  0.4796500000000  0.5615940000000  0.5471200000000 1.0
C      1  0.5271130000000  0.4527150000000  0.4969230000000 1.0
C      1  0.4881680000000  0.5319720000000  0.4687100000000 1.0
C      1  0.5605960000000  0.5210080000000  0.4682770000000 1.0
C      1  0.4563790000000  0.4835150000000  0.4632570000000 1.0
C      1  0.5541990000000  0.4555440000000  0.5328710000000 1.0
C      1  0.4677710000000  0.5039060000000  0.5210340000000 1.0
C      1  0.4967950000000  0.4212960000000  0.5044850000000 1.0
C      1  0.5005380000000  0.4960230000000  0.4996370000000 1.0
C      1  0.4682610000000  0.4644310000000  0.5509220000000 1.0
C      1  0.5082900000000  0.5469090000000  0.5121630000000 1.0
C      1  0.4841780000000  0.5269450000000  0.5021050000000 1.0
C      1  0.4556390000000  0.4340020000000  0.4844060000000 1.0
C      1  0.5020760000000  0.4563430000000  0.4496770000000 1.0
C      1  0.5047560000000  0.5633520000000  0.5341400000000 1.0
C      1  0.5524280000000  0.5328010000000  0.4920970000000 1.0
C      1  0.4617890000000  0.4821650000000  0.4339860000000 1.0
C      1  0.5586130000000  0.4938550000000  0.4672130000000 1.0
C      1  0.5651920000000  0.4499380000000  0.5088290000000 1.0
C      1  0.5057370000000  0.5005300000000  0.4274230000000 1.0
C      1  0.4789460000000  0.4996160000000  0.4736170000000 1.0
C      1  0.4559050000000  0.4479530000000  0.5678070000000 1.0
C      1  0.4256500000000  0.4800890000000  0.5033130000000 1.0
C      1  0.4566320000000  0.5561470000000  0.5332080000000 1.0
C      1  0.5223660000000  0.4891330000000  0.5474190000000 1.0
C      1  0.4604130000000  0.5512690000000  0.5026780000000 1.0
C      1  0.5253930000000  0.4445720000000  0.5720740000000 1.0
C      1  0.5381370000000  0.4708860000000  0.5661350000000 1.0
C      1  0.5550790000000  0.4658960000000  0.4838580000000 1.0
C      1  0.4799010000000  0.4800020000000  0.5314560000000 1.0
C      1  0.5265810000000  0.5326940000000  0.5742040000000 1.0
C      1  0.5285310000000  0.4802160000000  0.4681660000000 1.0
C      1  0.5554610000000  0.5362550000000  0.4451260000000 1.0
C      1  0.5211770000000  0.4370570000000  0.4668710000000 1.0
C      1  0.4369930000000  0.5037830000000  0.5217860000000 1.0
C      1  0.5294360000000  0.5529440000000  0.4901240000000 1.0
C      1  0.4817620000000  0.4399460000000  0.4900080000000 1.0
END
