TITL C-2848506-1665-330 -0.000541175795974883 125000 -865.978634183698 0 0 160 (C1) n - 1
REM
REM in /home/bkarasulu/work/CARBON/AIRSS/Generating-Clusters/AIREBO/with-SteepDescent/Only-C1/SD-CG-opt/Try1-1.4A-POS3A/HFTN-CG
REM
REM
REM
REM
REM
REM ./C.cell (11c1c37f851c82e70ff6c80c92926a4b)
REM
REM compiler GCC version 9.2.1 20190827 (Red Hat 9.2.1-1)
REM options -cpp -mtune=generic -march=x86-64 -g -O0 -fpre-include=/usr/include/finclude/math-vector-fortran.h
REM seed 1546859407 2013797776 742960576 -1491496320 -216744535 858162418 -176884369 238058184 1087115792 -1747626286 -235487746 445972679 -797523883 106310781 -1461651476 -1256768564 -2068583975 35049275 -1441288853 -1692687662 2101891329 -1101590834 -224107726 -564083934 -1665513170 1576323467 214285481 -1874756796 1632032276 1123227432 -1206770169 1606809043 1589238683
REM
CELL 1.54180   50.00000   50.00000   50.00000   90.00000   90.00000   90.00000
LATT -1
SFAC C  
C      1  0.4754000000000  0.6027680000000  0.5187380000000 1.0
C      1  0.5761980000000  0.5761600000000  0.5244950000000 1.0
C      1  0.5263470000000  0.5277190000000  0.5614900000000 1.0
C      1  0.4316680000000  0.5396020000000  0.4354760000000 1.0
C      1  0.4766840000000  0.4459440000000  0.4637100000000 1.0
C      1  0.4370720000000  0.4122970000000  0.5218430000000 1.0
C      1  0.4699390000000  0.5450710000000  0.3995540000000 1.0
C      1  0.5548780000000  0.4926320000000  0.4117130000000 1.0
C      1  0.5264110000000  0.3933890000000  0.4712940000000 1.0
C      1  0.4110350000000  0.4564820000000  0.4832430000000 1.0
C      1  0.4505760000000  0.4982580000000  0.5471340000000 1.0
C      1  0.4549020000000  0.4926540000000  0.5035270000000 1.0
C      1  0.5193720000000  0.5599720000000  0.5697280000000 1.0
C      1  0.5499480000000  0.5610440000000  0.4987900000000 1.0
C      1  0.4815970000000  0.4960430000000  0.5606420000000 1.0
C      1  0.5311600000000  0.5070330000000  0.5950240000000 1.0
C      1  0.4804400000000  0.5280920000000  0.5225730000000 1.0
C      1  0.6015560000000  0.4644050000000  0.4705770000000 1.0
C      1  0.5575130000000  0.5520150000000  0.5624920000000 1.0
C      1  0.4220550000000  0.5561460000000  0.4620400000000 1.0
C      1  0.5907560000000  0.4881650000000  0.5008800000000 1.0
C      1  0.6093330000000  0.5519310000000  0.5174750000000 1.0
C      1  0.4591570000000  0.4988950000000  0.5860460000000 1.0
C      1  0.5034010000000  0.5090030000000  0.4637070000000 1.0
C      1  0.5943550000000  0.5122120000000  0.4473720000000 1.0
C      1  0.4590610000000  0.4286330000000  0.5040080000000 1.0
C      1  0.4845300000000  0.4281800000000  0.5492800000000 1.0
C      1  0.4475320000000  0.5107650000000  0.4269300000000 1.0
C      1  0.5051400000000  0.5572700000000  0.4367920000000 1.0
C      1  0.4213770000000  0.5453830000000  0.5161870000000 1.0
C      1  0.4550670000000  0.5690930000000  0.5733000000000 1.0
C      1  0.4573320000000  0.5544990000000  0.4225720000000 1.0
C      1  0.5411380000000  0.6013190000000  0.5009540000000 1.0
C      1  0.4378880000000  0.4333010000000  0.4494150000000 1.0
C      1  0.5352690000000  0.4791400000000  0.5775620000000 1.0
C      1  0.5953250000000  0.4546140000000  0.4977770000000 1.0
C      1  0.4345040000000  0.4635330000000  0.4620870000000 1.0
C      1  0.4736670000000  0.5746630000000  0.4747140000000 1.0
C      1  0.5630050000000  0.4290470000000  0.4761160000000 1.0
C      1  0.4359740000000  0.4791810000000  0.4319170000000 1.0
C      1  0.4661470000000  0.4544650000000  0.5889480000000 1.0
C      1  0.4987820000000  0.5973770000000  0.4686030000000 1.0
C      1  0.5865980000000  0.5292100000000  0.5285690000000 1.0
C      1  0.4226130000000  0.4679020000000  0.5115620000000 1.0
C      1  0.5275820000000  0.4927420000000  0.4787670000000 1.0
C      1  0.5128150000000  0.4096540000000  0.5134480000000 1.0
C      1  0.5533530000000  0.4574650000000  0.4623340000000 1.0
C      1  0.5572070000000  0.5258820000000  0.5161070000000 1.0
C      1  0.4737140000000  0.5695140000000  0.4410900000000 1.0
C      1  0.5349110000000  0.4655000000000  0.4166050000000 1.0
C      1  0.5503450000000  0.4629150000000  0.4926160000000 1.0
C      1  0.3967940000000  0.4845350000000  0.4954240000000 1.0
C      1  0.4454580000000  0.5467640000000  0.5872770000000 1.0
C      1  0.4550920000000  0.4614970000000  0.5111940000000 1.0
C      1  0.5229550000000  0.5753790000000  0.5396180000000 1.0
C      1  0.5145480000000  0.4992630000000  0.3832680000000 1.0
C      1  0.5165040000000  0.4348440000000  0.5601640000000 1.0
C      1  0.4157820000000  0.4268290000000  0.5303080000000 1.0
C      1  0.5049210000000  0.4824380000000  0.5020380000000 1.0
C      1  0.4872630000000  0.4708540000000  0.5828060000000 1.0
C      1  0.5461260000000  0.5199160000000  0.4873830000000 1.0
C      1  0.5245290000000  0.5177360000000  0.5207950000000 1.0
C      1  0.4566610000000  0.5876280000000  0.5011840000000 1.0
C      1  0.4142540000000  0.5046070000000  0.4302390000000 1.0
C      1  0.5293590000000  0.4313120000000  0.4804810000000 1.0
C      1  0.5398260000000  0.5620990000000  0.4177410000000 1.0
C      1  0.4773800000000  0.5102810000000  0.4939150000000 1.0
C      1  0.4679220000000  0.5413370000000  0.4711060000000 1.0
C      1  0.4849580000000  0.4178200000000  0.4357020000000 1.0
C      1  0.4631470000000  0.5397400000000  0.6090920000000 1.0
C      1  0.5067420000000  0.3847680000000  0.5336890000000 1.0
C      1  0.4099950000000  0.5113560000000  0.4836920000000 1.0
C      1  0.5364520000000  0.4167520000000  0.4505780000000 1.0
C      1  0.4372060000000  0.5741140000000  0.5176160000000 1.0
C      1  0.4973750000000  0.5220220000000  0.5758990000000 1.0
C      1  0.5811570000000  0.5564290000000  0.5451470000000 1.0
C      1  0.5652720000000  0.4746930000000  0.5147760000000 1.0
C      1  0.5204850000000  0.5504980000000  0.4868100000000 1.0
C      1  0.4954130000000  0.4062980000000  0.4659530000000 1.0
C      1  0.5158430000000  0.4370960000000  0.5262410000000 1.0
C      1  0.4965490000000  0.4792090000000  0.4540560000000 1.0
C      1  0.5541430000000  0.4969640000000  0.4579250000000 1.0
C      1  0.5333920000000  0.5065460000000  0.4325320000000 1.0
C      1  0.4917640000000  0.5192320000000  0.3958080000000 1.0
C      1  0.5051090000000  0.5008630000000  0.4219140000000 1.0
C      1  0.5729790000000  0.4556190000000  0.5381710000000 1.0
C      1  0.4560190000000  0.5096880000000  0.4674460000000 1.0
C      1  0.4308520000000  0.5070020000000  0.5102640000000 1.0
C      1  0.5611960000000  0.4605250000000  0.5695680000000 1.0
C      1  0.4348310000000  0.4703350000000  0.5584980000000 1.0
C      1  0.5072030000000  0.5232790000000  0.4937470000000 1.0
C      1  0.5442580000000  0.5513460000000  0.5308920000000 1.0
C      1  0.4626990000000  0.4606500000000  0.5413830000000 1.0
C      1  0.5623600000000  0.4181420000000  0.5231760000000 1.0
C      1  0.4988520000000  0.5692110000000  0.4969060000000 1.0
C      1  0.5741550000000  0.4867650000000  0.5517620000000 1.0
C      1  0.4886770000000  0.5745890000000  0.5739010000000 1.0
C      1  0.4768130000000  0.5818090000000  0.5428640000000 1.0
C      1  0.4333340000000  0.5265520000000  0.5718160000000 1.0
C      1  0.4628860000000  0.3959970000000  0.5125410000000 1.0
C      1  0.5408910000000  0.4058340000000  0.4998180000000 1.0
C      1  0.4013730000000  0.4880330000000  0.5289320000000 1.0
C      1  0.4401120000000  0.5546380000000  0.4822560000000 1.0
C      1  0.3999520000000  0.4355570000000  0.5076910000000 1.0
C      1  0.4939050000000  0.4687490000000  0.4218000000000 1.0
C      1  0.4333900000000  0.5242240000000  0.5394710000000 1.0
C      1  0.5821790000000  0.5561800000000  0.4975120000000 1.0
C      1  0.5705810000000  0.5564940000000  0.4593280000000 1.0
C      1  0.4842820000000  0.4577770000000  0.4941580000000 1.0
C      1  0.5502720000000  0.5903550000000  0.5259300000000 1.0
C      1  0.4722320000000  0.5109270000000  0.6075740000000 1.0
C      1  0.4913230000000  0.4244230000000  0.4938850000000 1.0
C      1  0.4481980000000  0.4503390000000  0.4271330000000 1.0
C      1  0.5188400000000  0.4798680000000  0.5477820000000 1.0
C      1  0.5436560000000  0.5423190000000  0.4643150000000 1.0
C      1  0.4538500000000  0.5392990000000  0.5081370000000 1.0
C      1  0.4668080000000  0.3958540000000  0.4810780000000 1.0
C      1  0.4919310000000  0.5449080000000  0.6004620000000 1.0
C      1  0.5486190000000  0.4355320000000  0.5490090000000 1.0
C      1  0.5815620000000  0.5048930000000  0.4766300000000 1.0
C      1  0.4259920000000  0.5164760000000  0.4598620000000 1.0
C      1  0.4818790000000  0.3998760000000  0.5366610000000 1.0
C      1  0.5097440000000  0.6008810000000  0.4985780000000 1.0
C      1  0.4653830000000  0.4779810000000  0.4655380000000 1.0
C      1  0.5428510000000  0.4903570000000  0.5273440000000 1.0
C      1  0.4747650000000  0.4448540000000  0.4222090000000 1.0
C      1  0.5483590000000  0.5081070000000  0.5537830000000 1.0
C      1  0.5781660000000  0.4735890000000  0.4521630000000 1.0
C      1  0.3995000000000  0.5192320000000  0.5150610000000 1.0
C      1  0.5129500000000  0.5699920000000  0.4062360000000 1.0
C      1  0.4232070000000  0.4385200000000  0.5555350000000 1.0
C      1  0.5912780000000  0.5369970000000  0.4709230000000 1.0
C      1  0.5400340000000  0.5394560000000  0.5888140000000 1.0
C      1  0.4558740000000  0.4370140000000  0.5648520000000 1.0
C      1  0.5117160000000  0.4728940000000  0.3942930000000 1.0
C      1  0.5048510000000  0.4406840000000  0.4479410000000 1.0
C      1  0.5230620000000  0.4551050000000  0.5022080000000 1.0
C      1  0.4278400000000  0.4959060000000  0.5798270000000 1.0
C      1  0.5024860000000  0.5067460000000  0.6058610000000 1.0
C      1  0.5933110000000  0.5000750000000  0.5309980000000 1.0
C      1  0.4960610000000  0.5577050000000  0.5285600000000 1.0
C      1  0.4460160000000  0.5722230000000  0.5449370000000 1.0
C      1  0.5322660000000  0.5365190000000  0.4376580000000 1.0
C      1  0.5773240000000  0.4327830000000  0.5005750000000 1.0
C      1  0.5124350000000  0.4583180000000  0.5806780000000 1.0
C      1  0.5527440000000  0.5783400000000  0.4426530000000 1.0
C      1  0.5465850000000  0.5839540000000  0.4752250000000 1.0
C      1  0.5415030000000  0.5061010000000  0.3851960000000 1.0
C      1  0.4578910000000  0.4198720000000  0.4650370000000 1.0
C      1  0.4840900000000  0.5456850000000  0.5581280000000 1.0
C      1  0.5299820000000  0.4332450000000  0.4261770000000 1.0
C      1  0.4754740000000  0.5152920000000  0.4253910000000 1.0
C      1  0.5070960000000  0.6041290000000  0.5307380000000 1.0
C      1  0.5207140000000  0.5813980000000  0.4543180000000 1.0
C      1  0.4039110000000  0.4845050000000  0.5581450000000 1.0
C      1  0.4883320000000  0.5304740000000  0.4492750000000 1.0
C      1  0.4970840000000  0.4995000000000  0.5305230000000 1.0
C      1  0.5271180000000  0.4652310000000  0.4488980000000 1.0
C      1  0.5815300000000  0.4928550000000  0.4259450000000 1.0
C      1  0.4945230000000  0.4585240000000  0.5372260000000 1.0
END
