TITL C-2848509-3138-323 -0.00355537660437057 125000 -324.793361028626 0 0 57 (C1) n - 1
REM
REM in /home/bkarasulu/work/CARBON/AIRSS/Generating-Clusters/AIREBO/with-SteepDescent/Only-C1/SD-CG-opt/Try1-1.4A-POS3A/HFTN-CG
REM
REM
REM
REM
REM
REM ./C.cell (11c1c37f851c82e70ff6c80c92926a4b)
REM
REM compiler GCC version 9.2.1 20190827 (Red Hat 9.2.1-1)
REM options -cpp -mtune=generic -march=x86-64 -g -O0 -fpre-include=/usr/include/finclude/math-vector-fortran.h
REM seed 997355006 1497815577 -1181377775 1513703235 904779877 -533536679 -1279820099 605896086 -663513446 -1449539501 -392426795 1266576275 -901402425 704511951 -1170779265 14964067 461986171 -1617444637 -136845653 1798531556 -464578246 -1157967404 -549502607 -1502545004 -543419121 -1835995339 -239499265 -1765491990 -1645419893 -1227887038 1198926509 504702492 -1052308330
REM
CELL 1.54180   50.00000   50.00000   50.00000   90.00000   90.00000   90.00000
LATT -1
SFAC C  
C      1  0.5292250000000  0.5569780000000  0.4935670000000 1.0
C      1  0.4926140000000  0.5314810000000  0.5380760000000 1.0
C      1  0.4870930000000  0.5612930000000  0.4885530000000 1.0
C      1  0.5564110000000  0.4637630000000  0.5558430000000 1.0
C      1  0.4144260000000  0.4663640000000  0.5587990000000 1.0
C      1  0.5063070000000  0.5375660000000  0.4496720000000 1.0
C      1  0.4999200000000  0.5105620000000  0.4871990000000 1.0
C      1  0.5735330000000  0.5034370000000  0.5296670000000 1.0
C      1  0.5128310000000  0.5189170000000  0.5531680000000 1.0
C      1  0.5287590000000  0.5491130000000  0.4604890000000 1.0
C      1  0.5391880000000  0.4497050000000  0.5377390000000 1.0
C      1  0.4265430000000  0.5203270000000  0.4774770000000 1.0
C      1  0.4570320000000  0.4764270000000  0.4557160000000 1.0
C      1  0.5745660000000  0.4585580000000  0.5053030000000 1.0
C      1  0.5069270000000  0.4971070000000  0.4594590000000 1.0
C      1  0.4496040000000  0.4775940000000  0.4821960000000 1.0
C      1  0.4854700000000  0.4704880000000  0.5540660000000 1.0
C      1  0.5356610000000  0.4879970000000  0.4597880000000 1.0
C      1  0.5501260000000  0.4474570000000  0.5117510000000 1.0
C      1  0.4264630000000  0.4986780000000  0.5217000000000 1.0
C      1  0.4530750000000  0.4559870000000  0.5247130000000 1.0
C      1  0.4545720000000  0.5260860000000  0.4953110000000 1.0
C      1  0.5551360000000  0.4907230000000  0.5466080000000 1.0
C      1  0.4640020000000  0.4866740000000  0.5478250000000 1.0
C      1  0.5388960000000  0.5357810000000  0.5147370000000 1.0
C      1  0.4861690000000  0.4383460000000  0.4840360000000 1.0
C      1  0.5110220000000  0.4659180000000  0.5362630000000 1.0
C      1  0.5739230000000  0.4905400000000  0.5015710000000 1.0
C      1  0.4334220000000  0.4752870000000  0.5410160000000 1.0
C      1  0.4966460000000  0.4456110000000  0.4593400000000 1.0
C      1  0.5289880000000  0.4562160000000  0.4913840000000 1.0
C      1  0.5690520000000  0.5307270000000  0.5278290000000 1.0
C      1  0.4722740000000  0.5634370000000  0.5254150000000 1.0
C      1  0.4861990000000  0.4722440000000  0.4490500000000 1.0
C      1  0.4845870000000  0.5361890000000  0.4709350000000 1.0
C      1  0.4418390000000  0.4899950000000  0.4364510000000 1.0
C      1  0.4422750000000  0.5174300000000  0.4363070000000 1.0
C      1  0.4296290000000  0.4948830000000  0.4933030000000 1.0
C      1  0.5315870000000  0.5364970000000  0.5648740000000 1.0
C      1  0.5027710000000  0.5173030000000  0.4293320000000 1.0
C      1  0.4717560000000  0.4699460000000  0.5035990000000 1.0
C      1  0.5693370000000  0.5181050000000  0.4828120000000 1.0
C      1  0.5253410000000  0.4958300000000  0.5371320000000 1.0
C      1  0.5249700000000  0.4453340000000  0.4622990000000 1.0
C      1  0.5038240000000  0.5549100000000  0.5161320000000 1.0
C      1  0.4390560000000  0.5221140000000  0.5318800000000 1.0
C      1  0.5399950000000  0.4640210000000  0.4465230000000 1.0
C      1  0.4545150000000  0.5316730000000  0.4617720000000 1.0
C      1  0.4947730000000  0.4903650000000  0.4222460000000 1.0
C      1  0.4702440000000  0.5133240000000  0.5309950000000 1.0
C      1  0.4522190000000  0.5468470000000  0.5188160000000 1.0
C      1  0.5004700000000  0.4568690000000  0.5078570000000 1.0
C      1  0.5258550000000  0.5076980000000  0.5067450000000 1.0
C      1  0.5523450000000  0.5374860000000  0.4772630000000 1.0
C      1  0.5487890000000  0.5466940000000  0.5452830000000 1.0
C      1  0.5432140000000  0.4872950000000  0.4902610000000 1.0
C      1  0.4745350000000  0.5018050000000  0.5018600000000 1.0
END
