TITL C-2847954-6904-510 0.0113760805694927 125000 -492.275751579222 0 0 88 (C1) n - 1
REM
REM in /home/bkarasulu/work/CARBON/AIRSS/Generating-Clusters/AIREBO/with-SteepDescent/Only-C1/SD-CG-opt/Try1-1.4A-POS3A/HFTN-CG
REM
REM
REM
REM
REM
REM ./C.cell (11c1c37f851c82e70ff6c80c92926a4b)
REM
REM compiler GCC version 9.2.1 20190827 (Red Hat 9.2.1-1)
REM options -cpp -mtune=generic -march=x86-64 -g -O0 -fpre-include=/usr/include/finclude/math-vector-fortran.h
REM seed 376472006 1281700823 -1493834239 -1933238456 -2009597166 2026310185 -777679372 -433961615 615422441 -1853468562 2019206094 1957183973 -645218138 1202588748 -681768385 -1528229828 763314279 968720496 -31923727 232127117 -2098754046 823133399 2029375842 -696429276 -1626925035 1621108582 -1108186001 148459249 2130850371 -1706232224 -828477727 -687951352 -1877785309
REM
CELL 1.54180   50.00000   50.00000   50.00000   90.00000   90.00000   90.00000
LATT -1
SFAC C  
C      1  0.5176060000000  0.5485000000000  0.4977500000000 1.0
C      1  0.4956280000000  0.5005750000000  0.6060530000000 1.0
C      1  0.5580390000000  0.4992250000000  0.4405650000000 1.0
C      1  0.5502340000000  0.5497250000000  0.4194890000000 1.0
C      1  0.4377050000000  0.4739200000000  0.5035700000000 1.0
C      1  0.5667260000000  0.5007310000000  0.5403560000000 1.0
C      1  0.5164380000000  0.5174280000000  0.5935740000000 1.0
C      1  0.4263750000000  0.5381370000000  0.5237870000000 1.0
C      1  0.4528640000000  0.4751480000000  0.4776390000000 1.0
C      1  0.4531220000000  0.4528610000000  0.5533850000000 1.0
C      1  0.4559690000000  0.4934240000000  0.4266310000000 1.0
C      1  0.5223650000000  0.5745050000000  0.5418510000000 1.0
C      1  0.4749780000000  0.4069190000000  0.6015430000000 1.0
C      1  0.4391010000000  0.4326390000000  0.5414370000000 1.0
C      1  0.5641700000000  0.5681710000000  0.5150780000000 1.0
C      1  0.5702480000000  0.5441020000000  0.5273150000000 1.0
C      1  0.5224110000000  0.4778090000000  0.5701630000000 1.0
C      1  0.4975290000000  0.4005880000000  0.4604620000000 1.0
C      1  0.4877890000000  0.5371800000000  0.4386270000000 1.0
C      1  0.5383580000000  0.5325560000000  0.4803790000000 1.0
C      1  0.4235510000000  0.4410100000000  0.4475370000000 1.0
C      1  0.5886070000000  0.4881750000000  0.4995020000000 1.0
C      1  0.4109920000000  0.5287880000000  0.4694610000000 1.0
C      1  0.4435710000000  0.5374590000000  0.5784760000000 1.0
C      1  0.5241650000000  0.5852930000000  0.4835760000000 1.0
C      1  0.6147500000000  0.4873780000000  0.5212420000000 1.0
C      1  0.5040320000000  0.4778280000000  0.5504460000000 1.0
C      1  0.4469490000000  0.5206400000000  0.5312090000000 1.0
C      1  0.4440580000000  0.5360720000000  0.4725680000000 1.0
C      1  0.5094750000000  0.4896340000000  0.4868580000000 1.0
C      1  0.5075330000000  0.5373370000000  0.5739000000000 1.0
C      1  0.4783520000000  0.4301990000000  0.5899780000000 1.0
C      1  0.5728990000000  0.4587420000000  0.5019860000000 1.0
C      1  0.5051480000000  0.5657970000000  0.4446200000000 1.0
C      1  0.4714670000000  0.5481820000000  0.4155000000000 1.0
C      1  0.5007250000000  0.4568920000000  0.4841060000000 1.0
C      1  0.5584480000000  0.4832960000000  0.4855420000000 1.0
C      1  0.4603080000000  0.4666190000000  0.4286030000000 1.0
C      1  0.4103320000000  0.4560370000000  0.5022470000000 1.0
C      1  0.5373890000000  0.5107280000000  0.5256900000000 1.0
C      1  0.4354440000000  0.4385380000000  0.5124120000000 1.0
C      1  0.5337710000000  0.5731950000000  0.5119470000000 1.0
C      1  0.5311650000000  0.5341840000000  0.4070310000000 1.0
C      1  0.4921480000000  0.5617370000000  0.4855390000000 1.0
C      1  0.4845630000000  0.4541180000000  0.5778240000000 1.0
C      1  0.4798630000000  0.4947260000000  0.4709410000000 1.0
C      1  0.4974110000000  0.5039820000000  0.5387730000000 1.0
C      1  0.5487230000000  0.5492690000000  0.4526290000000 1.0
C      1  0.4968040000000  0.4271110000000  0.4681340000000 1.0
C      1  0.4200720000000  0.5551220000000  0.4576920000000 1.0
C      1  0.4623260000000  0.4409540000000  0.4991160000000 1.0
C      1  0.4942340000000  0.5911840000000  0.4865400000000 1.0
C      1  0.5362180000000  0.4996770000000  0.5814600000000 1.0
C      1  0.5041160000000  0.4889090000000  0.4284510000000 1.0
C      1  0.5276730000000  0.4413730000000  0.4687080000000 1.0
C      1  0.5230260000000  0.4613430000000  0.4273790000000 1.0
C      1  0.4855780000000  0.4504710000000  0.5138670000000 1.0
C      1  0.5126600000000  0.5174400000000  0.4277070000000 1.0
C      1  0.5402890000000  0.5191710000000  0.4429070000000 1.0
C      1  0.4596720000000  0.5293900000000  0.5578940000000 1.0
C      1  0.4674740000000  0.4383030000000  0.4722860000000 1.0
C      1  0.5566530000000  0.5111170000000  0.5673410000000 1.0
C      1  0.4392400000000  0.4773080000000  0.5534250000000 1.0
C      1  0.5251880000000  0.5334490000000  0.3803500000000 1.0
C      1  0.4701810000000  0.5094320000000  0.4430540000000 1.0
C      1  0.4756070000000  0.5188550000000  0.5166770000000 1.0
C      1  0.4835590000000  0.4548570000000  0.5438400000000 1.0
C      1  0.5086480000000  0.5268770000000  0.5170880000000 1.0
C      1  0.3852630000000  0.4560100000000  0.4959920000000 1.0
C      1  0.5272530000000  0.5698180000000  0.4604480000000 1.0
C      1  0.5355410000000  0.5023930000000  0.4939740000000 1.0
C      1  0.4888800000000  0.4777500000000  0.5917200000000 1.0
C      1  0.5567470000000  0.4766330000000  0.4565660000000 1.0
C      1  0.4864670000000  0.5263580000000  0.5584800000000 1.0
C      1  0.5730120000000  0.4346640000000  0.5097730000000 1.0
C      1  0.5951590000000  0.5052920000000  0.5346230000000 1.0
C      1  0.4481320000000  0.4531040000000  0.4527340000000 1.0
C      1  0.4668300000000  0.5179930000000  0.4879640000000 1.0
C      1  0.5479760000000  0.5349940000000  0.5470320000000 1.0
C      1  0.5396530000000  0.4560710000000  0.4487590000000 1.0
C      1  0.4897940000000  0.4587630000000  0.4206640000000 1.0
C      1  0.5810430000000  0.5202360000000  0.5085220000000 1.0
C      1  0.5263110000000  0.5525010000000  0.5580650000000 1.0
C      1  0.5682030000000  0.5370300000000  0.4852720000000 1.0
C      1  0.4238400000000  0.4849080000000  0.5741820000000 1.0
C      1  0.4402270000000  0.4907980000000  0.5287570000000 1.0
C      1  0.4753140000000  0.5442520000000  0.4694600000000 1.0
C      1  0.4916430000000  0.4680960000000  0.4533070000000 1.0
END
