TITL C-2847953-8112-483 0.0337718583818671 125000 -173.912574573243 0 0 30 (C1) n - 1
REM
REM in /home/bkarasulu/work/CARBON/AIRSS/Generating-Clusters/AIREBO/with-SteepDescent/Only-C1/SD-CG-opt/Try1-1.4A-POS3A/HFTN-CG
REM
REM
REM
REM
REM
REM ./C.cell (11c1c37f851c82e70ff6c80c92926a4b)
REM
REM compiler GCC version 9.2.1 20190827 (Red Hat 9.2.1-1)
REM options -cpp -mtune=generic -march=x86-64 -g -O0 -fpre-include=/usr/include/finclude/math-vector-fortran.h
REM seed 1344265795 -1946421629 -1556792781 -602574328 -991084096 -85206420 -1303535803 -448481046 -619725998 -286043196 -1525390329 -359691969 522640373 -1659865056 -1728926191 -344664221 1467290100 -2051038382 -308185863 -374677808 1910616942 1453973529 983338728 1666128735 -39663539 1218843403 336053536 -1293921102 1313837791 -955853609 1061188954 -351737198 -1183680881
REM
CELL 1.54180   50.00000   50.00000   50.00000   90.00000   90.00000   90.00000
LATT -1
SFAC C  
C      1  0.4776820000000  0.5482930000000  0.5293090000000 1.0
C      1  0.5091050000000  0.5149810000000  0.5491660000000 1.0
C      1  0.4690760000000  0.4741970000000  0.4689850000000 1.0
C      1  0.5033330000000  0.5424420000000  0.5356470000000 1.0
C      1  0.5101580000000  0.4662730000000  0.5328240000000 1.0
C      1  0.5459300000000  0.4657880000000  0.4750870000000 1.0
C      1  0.5268280000000  0.5513830000000  0.5223600000000 1.0
C      1  0.5495730000000  0.4636850000000  0.5024120000000 1.0
C      1  0.5081680000000  0.4817690000000  0.5577260000000 1.0
C      1  0.5666140000000  0.5061590000000  0.4465050000000 1.0
C      1  0.4537860000000  0.5315430000000  0.5152950000000 1.0
C      1  0.5698590000000  0.5251710000000  0.4661270000000 1.0
C      1  0.4656740000000  0.4873010000000  0.5352970000000 1.0
C      1  0.4246940000000  0.4765910000000  0.4379220000000 1.0
C      1  0.5498290000000  0.4844480000000  0.4493250000000 1.0
C      1  0.4462290000000  0.4741130000000  0.4534020000000 1.0
C      1  0.5551050000000  0.5277670000000  0.4886560000000 1.0
C      1  0.5421240000000  0.5292780000000  0.5128800000000 1.0
C      1  0.4941800000000  0.4683280000000  0.4583730000000 1.0
C      1  0.4022250000000  0.4777140000000  0.4244710000000 1.0
C      1  0.4810760000000  0.4978740000000  0.5568310000000 1.0
C      1  0.4552180000000  0.5045580000000  0.5119670000000 1.0
C      1  0.4512690000000  0.5631920000000  0.5192630000000 1.0
C      1  0.5322880000000  0.4789260000000  0.5191230000000 1.0
C      1  0.5206310000000  0.4735550000000  0.4569230000000 1.0
C      1  0.4680330000000  0.4802020000000  0.4963340000000 1.0
C      1  0.5686320000000  0.4479380000000  0.5132260000000 1.0
C      1  0.4361760000000  0.5845070000000  0.5184620000000 1.0
C      1  0.4838580000000  0.4658760000000  0.5200330000000 1.0
C      1  0.5326460000000  0.5061480000000  0.5260700000000 1.0
END
