TITL C-2848501-3133-312 0.000925708810638265 125000 -186.431636988129 0 0 35 (C1) n - 1
REM
REM in /home/bkarasulu/work/CARBON/AIRSS/Generating-Clusters/AIREBO/with-SteepDescent/Only-C1/SD-CG-opt/Try1-1.4A-POS3A/HFTN-CG
REM
REM
REM
REM
REM
REM ./C.cell (11c1c37f851c82e70ff6c80c92926a4b)
REM
REM compiler GCC version 9.2.1 20190827 (Red Hat 9.2.1-1)
REM options -cpp -mtune=generic -march=x86-64 -g -O0 -fpre-include=/usr/include/finclude/math-vector-fortran.h
REM seed 1404259438 817948159 121906798 1560427940 1970264625 91892302 -901593390 -29421531 1049070653 -290727907 1337917718 617684918 -1272393922 -166813107 459769844 773137291 -300012346 170779192 1179520283 -1231106032 1091945305 -223378684 -1818157277 -2022160547 -1377026453 -1142451444 -274227920 -316532433 -591574981 -317532506 1311073090 -561382003 -791899172
REM
CELL 1.54180   50.00000   50.00000   50.00000   90.00000   90.00000   90.00000
LATT -1
SFAC C  
C      1  0.4460520000000  0.5020280000000  0.4994270000000 1.0
C      1  0.5596260000000  0.5289270000000  0.5695490000000 1.0
C      1  0.4969100000000  0.5361910000000  0.5002630000000 1.0
C      1  0.4302170000000  0.5191970000000  0.5155230000000 1.0
C      1  0.5268700000000  0.4914390000000  0.4820430000000 1.0
C      1  0.4674700000000  0.5288030000000  0.5256810000000 1.0
C      1  0.5167730000000  0.5552020000000  0.5185820000000 1.0
C      1  0.4966220000000  0.4671740000000  0.4506450000000 1.0
C      1  0.5368020000000  0.5196380000000  0.4832990000000 1.0
C      1  0.5170640000000  0.4804020000000  0.5086390000000 1.0
C      1  0.5057120000000  0.4980600000000  0.5553660000000 1.0
C      1  0.4638510000000  0.4752650000000  0.5343930000000 1.0
C      1  0.4943480000000  0.5411720000000  0.5365160000000 1.0
C      1  0.4518280000000  0.4990980000000  0.4485180000000 1.0
C      1  0.5398190000000  0.5323300000000  0.5518510000000 1.0
C      1  0.5424510000000  0.4736990000000  0.4641380000000 1.0
C      1  0.5228320000000  0.4602960000000  0.4439290000000 1.0
C      1  0.4918890000000  0.4890820000000  0.5286670000000 1.0
C      1  0.4795600000000  0.5070180000000  0.5025340000000 1.0
C      1  0.5121830000000  0.5245890000000  0.5552710000000 1.0
C      1  0.4792500000000  0.5031920000000  0.4504630000000 1.0
C      1  0.5162380000000  0.4574230000000  0.5298130000000 1.0
C      1  0.5423130000000  0.5434590000000  0.5251930000000 1.0
C      1  0.5157250000000  0.5370490000000  0.4767900000000 1.0
C      1  0.4485830000000  0.4737810000000  0.5116100000000 1.0
C      1  0.5543330000000  0.5300380000000  0.5030050000000 1.0
C      1  0.5075120000000  0.5422320000000  0.4508270000000 1.0
C      1  0.4941610000000  0.5225460000000  0.4372130000000 1.0
C      1  0.5038260000000  0.4429120000000  0.5062030000000 1.0
C      1  0.4580540000000  0.4543200000000  0.4937320000000 1.0
C      1  0.5524170000000  0.4474620000000  0.4477500000000 1.0
C      1  0.4933050000000  0.4879220000000  0.4773990000000 1.0
C      1  0.4858040000000  0.4569050000000  0.4891620000000 1.0
C      1  0.5135370000000  0.4689330000000  0.5556820000000 1.0
C      1  0.4360630000000  0.5022170000000  0.4703240000000 1.0
END
