TITL C-2848507-1641-152 1.55538420777454e-07 125000 -198.497512461523 0 0 34 (C1) n - 1
REM
REM in /home/bkarasulu/work/CARBON/AIRSS/Generating-Clusters/AIREBO/with-SteepDescent/Only-C1/SD-CG-opt/Try1-1.4A-POS3A/HFTN-CG
REM
REM
REM
REM
REM
REM ./C.cell (11c1c37f851c82e70ff6c80c92926a4b)
REM
REM compiler GCC version 9.2.1 20190827 (Red Hat 9.2.1-1)
REM options -cpp -mtune=generic -march=x86-64 -g -O0 -fpre-include=/usr/include/finclude/math-vector-fortran.h
REM seed -88918486 730116590 -1058406740 -1539009388 -1407185010 -247720747 -531229788 859589106 185357776 -2127546445 -1322415498 412527963 1902511010 251017595 -376180162 614991721 -709434960 -1082884667 -1535360811 1431925421 565387188 -1103286041 758189099 1923317218 -344508763 1092463732 938643967 -999372545 463416387 99078627 -939178668 367327194 554588333
REM
CELL 1.54180   50.00000   50.00000   50.00000   90.00000   90.00000   90.00000
LATT -1
SFAC C  
C      1  0.4707560000000  0.5051320000000  0.4482350000000 1.0
C      1  0.5156720000000  0.5449750000000  0.5216760000000 1.0
C      1  0.4598580000000  0.4504810000000  0.4598480000000 1.0
C      1  0.4369670000000  0.4349360000000  0.4610180000000 1.0
C      1  0.5551560000000  0.5191770000000  0.5341570000000 1.0
C      1  0.4753180000000  0.5263130000000  0.4641900000000 1.0
C      1  0.4361510000000  0.5557330000000  0.5395160000000 1.0
C      1  0.5313600000000  0.4361530000000  0.4680880000000 1.0
C      1  0.5282080000000  0.5309840000000  0.4774980000000 1.0
C      1  0.5388010000000  0.5102500000000  0.4642610000000 1.0
C      1  0.4982170000000  0.4883630000000  0.5668740000000 1.0
C      1  0.5543270000000  0.4286640000000  0.4465520000000 1.0
C      1  0.5082790000000  0.4382890000000  0.4832460000000 1.0
C      1  0.5165770000000  0.4593610000000  0.5315720000000 1.0
C      1  0.4837950000000  0.4411460000000  0.4704360000000 1.0
C      1  0.4422420000000  0.5628810000000  0.5139500000000 1.0
C      1  0.5486060000000  0.4595580000000  0.4542290000000 1.0
C      1  0.5390740000000  0.4992300000000  0.5449940000000 1.0
C      1  0.5434190000000  0.5444470000000  0.5291980000000 1.0
C      1  0.5089790000000  0.5420480000000  0.4944900000000 1.0
C      1  0.5810770000000  0.5146520000000  0.5281050000000 1.0
C      1  0.4629830000000  0.5590180000000  0.4970770000000 1.0
C      1  0.4599510000000  0.4747180000000  0.4466740000000 1.0
C      1  0.4825710000000  0.5436750000000  0.4847110000000 1.0
C      1  0.5183710000000  0.4809310000000  0.5489170000000 1.0
C      1  0.5574290000000  0.5673620000000  0.5318880000000 1.0
C      1  0.4842240000000  0.5108670000000  0.5729890000000 1.0
C      1  0.5102620000000  0.4442680000000  0.5103730000000 1.0
C      1  0.4147590000000  0.4214200000000  0.4643560000000 1.0
C      1  0.4967570000000  0.5443480000000  0.5420820000000 1.0
C      1  0.4772410000000  0.5342950000000  0.5594790000000 1.0
C      1  0.5491590000000  0.4860190000000  0.4597020000000 1.0
C      1  0.4608650000000  0.4928320000000  0.4199650000000 1.0
C      1  0.4525900000000  0.5474730000000  0.5596520000000 1.0
END
