TITL C-2847952-8118-301 -0.00222409542921764 125000 -625.321904563492 0 0 120 (C1) n - 1
REM
REM in /home/bkarasulu/work/CARBON/AIRSS/Generating-Clusters/AIREBO/with-SteepDescent/Only-C1/SD-CG-opt/Try1-1.4A-POS3A/HFTN-CG
REM
REM
REM
REM
REM
REM ./C.cell (11c1c37f851c82e70ff6c80c92926a4b)
REM
REM compiler GCC version 9.2.1 20190827 (Red Hat 9.2.1-1)
REM options -cpp -mtune=generic -march=x86-64 -g -O0 -fpre-include=/usr/include/finclude/math-vector-fortran.h
REM seed -1531450277 252144843 417887333 415092466 1946267010 -508068293 -1501166360 -1973123399 1813636143 -1043173934 -661424496 -906426806 286810735 -198753577 -1377987904 -1865337816 -1928749950 -1681742727 -546814891 301145139 -1464686627 -991649933 -1713181504 -687628254 464308438 1969653904 -1699221223 1823844243 -1736013647 640960452 1354897827 713767854 -1716857458
REM
CELL 1.54180   50.00000   50.00000   50.00000   90.00000   90.00000   90.00000
LATT -1
SFAC C  
C      1  0.4482080000000  0.5795050000000  0.4917400000000 1.0
C      1  0.4824270000000  0.5177470000000  0.5403100000000 1.0
C      1  0.4679100000000  0.4613280000000  0.5194180000000 1.0
C      1  0.5311830000000  0.4097930000000  0.4974730000000 1.0
C      1  0.4762110000000  0.4399100000000  0.5832670000000 1.0
C      1  0.5353680000000  0.5031710000000  0.4382390000000 1.0
C      1  0.4687460000000  0.5452320000000  0.5309780000000 1.0
C      1  0.4287970000000  0.4888540000000  0.4427500000000 1.0
C      1  0.5070980000000  0.6048200000000  0.5002300000000 1.0
C      1  0.4535030000000  0.5747140000000  0.5400220000000 1.0
C      1  0.4669200000000  0.4137960000000  0.4955320000000 1.0
C      1  0.4803910000000  0.4425220000000  0.4301800000000 1.0
C      1  0.5362940000000  0.5986050000000  0.4551570000000 1.0
C      1  0.3993240000000  0.5065350000000  0.4909010000000 1.0
C      1  0.5350380000000  0.4710060000000  0.5203580000000 1.0
C      1  0.4558680000000  0.5014810000000  0.5920740000000 1.0
C      1  0.5298920000000  0.4423010000000  0.5474120000000 1.0
C      1  0.5047160000000  0.5078240000000  0.5215770000000 1.0
C      1  0.5674920000000  0.4363140000000  0.4730110000000 1.0
C      1  0.4581340000000  0.5639400000000  0.4568220000000 1.0
C      1  0.5647290000000  0.4663410000000  0.4647680000000 1.0
C      1  0.4722050000000  0.5228000000000  0.5788280000000 1.0
C      1  0.4240250000000  0.4887110000000  0.4863170000000 1.0
C      1  0.5037530000000  0.5862730000000  0.5208050000000 1.0
C      1  0.5346130000000  0.5196880000000  0.5273500000000 1.0
C      1  0.5338420000000  0.4783450000000  0.4614590000000 1.0
C      1  0.5040870000000  0.4841660000000  0.5610010000000 1.0
C      1  0.5198690000000  0.4184380000000  0.5283650000000 1.0
C      1  0.5793980000000  0.4466310000000  0.5271170000000 1.0
C      1  0.5043350000000  0.4348740000000  0.4827940000000 1.0
C      1  0.5807550000000  0.4950830000000  0.4608460000000 1.0
C      1  0.4588720000000  0.5240940000000  0.4860340000000 1.0
C      1  0.5642270000000  0.4514820000000  0.5015890000000 1.0
C      1  0.5715030000000  0.4730490000000  0.5542970000000 1.0
C      1  0.4308300000000  0.4608760000000  0.4424080000000 1.0
C      1  0.4084240000000  0.5024880000000  0.5200870000000 1.0
C      1  0.4470100000000  0.4560250000000  0.4974500000000 1.0
C      1  0.4238000000000  0.5263910000000  0.5266780000000 1.0
C      1  0.4533220000000  0.5078860000000  0.4566620000000 1.0
C      1  0.4255450000000  0.5282090000000  0.4914150000000 1.0
C      1  0.4281780000000  0.4465790000000  0.4707560000000 1.0
C      1  0.4762650000000  0.5224470000000  0.4407760000000 1.0
C      1  0.4977260000000  0.4052030000000  0.4980250000000 1.0
C      1  0.5262500000000  0.4465990000000  0.4519450000000 1.0
C      1  0.4886790000000  0.4103200000000  0.5308020000000 1.0
C      1  0.4464970000000  0.4743850000000  0.5520760000000 1.0
C      1  0.5434990000000  0.5054030000000  0.5020640000000 1.0
C      1  0.4916570000000  0.4228050000000  0.4550470000000 1.0
C      1  0.5736620000000  0.5079940000000  0.5281720000000 1.0
C      1  0.4208870000000  0.5177800000000  0.4592160000000 1.0
C      1  0.5123450000000  0.5556880000000  0.5891890000000 1.0
C      1  0.5372180000000  0.5644660000000  0.4983550000000 1.0
C      1  0.5642560000000  0.5466710000000  0.4600620000000 1.0
C      1  0.4568550000000  0.5420850000000  0.5621130000000 1.0
C      1  0.4550610000000  0.4260250000000  0.4724650000000 1.0
C      1  0.5363900000000  0.4750130000000  0.5541090000000 1.0
C      1  0.4475620000000  0.4939900000000  0.5090590000000 1.0
C      1  0.5162820000000  0.5935250000000  0.4761370000000 1.0
C      1  0.5341890000000  0.5206220000000  0.4738720000000 1.0
C      1  0.5627310000000  0.4892580000000  0.4325180000000 1.0
C      1  0.5327160000000  0.4766730000000  0.5878860000000 1.0
C      1  0.5292500000000  0.5361340000000  0.4440040000000 1.0
C      1  0.5032630000000  0.4598630000000  0.4221750000000 1.0
C      1  0.5351780000000  0.5520150000000  0.5285180000000 1.0
C      1  0.4357060000000  0.4997470000000  0.5691050000000 1.0
C      1  0.4635790000000  0.5758290000000  0.4096030000000 1.0
C      1  0.4967200000000  0.4773050000000  0.5109450000000 1.0
C      1  0.5884440000000  0.4793730000000  0.5254570000000 1.0
C      1  0.4976920000000  0.4615740000000  0.4628040000000 1.0
C      1  0.4691550000000  0.5220690000000  0.4071630000000 1.0
C      1  0.5920090000000  0.4957200000000  0.4952360000000 1.0
C      1  0.5824730000000  0.5271500000000  0.5028060000000 1.0
C      1  0.4744360000000  0.4707800000000  0.5711500000000 1.0
C      1  0.5483630000000  0.5410920000000  0.4168290000000 1.0
C      1  0.5221510000000  0.5257560000000  0.5867700000000 1.0
C      1  0.4676720000000  0.4921560000000  0.5338100000000 1.0
C      1  0.5021220000000  0.4604740000000  0.5400040000000 1.0
C      1  0.4611210000000  0.4281490000000  0.5219300000000 1.0
C      1  0.4523200000000  0.4416480000000  0.5505280000000 1.0
C      1  0.5143770000000  0.4953820000000  0.5982890000000 1.0
C      1  0.4795970000000  0.5732780000000  0.4802480000000 1.0
C      1  0.4702280000000  0.5472380000000  0.5000030000000 1.0
C      1  0.5001280000000  0.4858880000000  0.4314090000000 1.0
C      1  0.4859990000000  0.4361560000000  0.5515760000000 1.0
C      1  0.4731320000000  0.5703590000000  0.5638400000000 1.0
C      1  0.4247970000000  0.4744780000000  0.5250990000000 1.0
C      1  0.5156840000000  0.5713240000000  0.5429090000000 1.0
C      1  0.5009820000000  0.5689240000000  0.5665430000000 1.0
C      1  0.5137900000000  0.5049580000000  0.4143630000000 1.0
C      1  0.5416310000000  0.4223320000000  0.4679650000000 1.0
C      1  0.5682440000000  0.5204910000000  0.4747240000000 1.0
C      1  0.4761980000000  0.4950200000000  0.4904080000000 1.0
C      1  0.4958760000000  0.5295090000000  0.4676710000000 1.0
C      1  0.4330570000000  0.5245580000000  0.5536310000000 1.0
C      1  0.4317730000000  0.5587520000000  0.4777740000000 1.0
C      1  0.4146780000000  0.4516640000000  0.5019870000000 1.0
C      1  0.4866550000000  0.4900210000000  0.5963820000000 1.0
C      1  0.5004190000000  0.5559690000000  0.5092790000000 1.0
C      1  0.5606270000000  0.4432410000000  0.5519270000000 1.0
C      1  0.4975070000000  0.4956300000000  0.4639030000000 1.0
C      1  0.5491710000000  0.5252350000000  0.5737830000000 1.0
C      1  0.4995060000000  0.5150800000000  0.5671330000000 1.0
C      1  0.5322610000000  0.4436580000000  0.5003100000000 1.0
C      1  0.5096610000000  0.5256550000000  0.4969450000000 1.0
C      1  0.4666460000000  0.4534000000000  0.4585570000000 1.0
C      1  0.5327250000000  0.4521910000000  0.4211970000000 1.0
C      1  0.5846730000000  0.5576980000000  0.5026010000000 1.0
C      1  0.5633390000000  0.4826660000000  0.4945280000000 1.0
C      1  0.4989290000000  0.5462770000000  0.4321180000000 1.0
C      1  0.5629230000000  0.5719070000000  0.4932260000000 1.0
C      1  0.5496060000000  0.5060540000000  0.5497790000000 1.0
C      1  0.4986390000000  0.5264550000000  0.4079420000000 1.0
C      1  0.4530670000000  0.4777560000000  0.4724380000000 1.0
C      1  0.5109450000000  0.5599550000000  0.4771880000000 1.0
C      1  0.5380890000000  0.5657350000000  0.4573940000000 1.0
C      1  0.5235820000000  0.4812480000000  0.4904630000000 1.0
C      1  0.5573710000000  0.4665470000000  0.4172340000000 1.0
C      1  0.4472600000000  0.4474870000000  0.4243130000000 1.0
C      1  0.4712680000000  0.5627920000000  0.4324310000000 1.0
C      1  0.5557400000000  0.5454190000000  0.5532890000000 1.0
END
