TITL C-2847955-7945-447 -0.000312565930024363 125000 -124.55349316093 0 0 25 (C1) n - 1
REM
REM in /home/bkarasulu/work/CARBON/AIRSS/Generating-Clusters/AIREBO/with-SteepDescent/Only-C1/SD-CG-opt/Try1-1.4A-POS3A/HFTN-CG
REM
REM
REM
REM
REM
REM ./C.cell (11c1c37f851c82e70ff6c80c92926a4b)
REM
REM compiler GCC version 9.2.1 20190827 (Red Hat 9.2.1-1)
REM options -cpp -mtune=generic -march=x86-64 -g -O0 -fpre-include=/usr/include/finclude/math-vector-fortran.h
REM seed 632334873 1029752159 1139852528 2076721322 -783592620 234847018 -2136258027 1637722932 -1750961649 59862271 286875156 -504172721 955387146 -1081486980 1140045194 203420791 1285664756 896649784 1965710339 -942521796 -406068504 -1386839532 361392848 907632651 -637236131 1213840439 1796896562 -1275743440 -829778814 2013280085 -523042623 -1665484666 -1201974736
REM
CELL 1.54180   50.00000   50.00000   50.00000   90.00000   90.00000   90.00000
LATT -1
SFAC C  
C      1  0.4647960000000  0.5633770000000  0.5208340000000 1.0
C      1  0.5125020000000  0.5240100000000  0.4826720000000 1.0
C      1  0.5221240000000  0.4849270000000  0.5087530000000 1.0
C      1  0.4846950000000  0.5131650000000  0.5541040000000 1.0
C      1  0.4640330000000  0.4755840000000  0.4671250000000 1.0
C      1  0.5541980000000  0.4833750000000  0.5123200000000 1.0
C      1  0.5183340000000  0.4712690000000  0.4778270000000 1.0
C      1  0.5656350000000  0.4655080000000  0.4939880000000 1.0
C      1  0.4551550000000  0.5810840000000  0.5051830000000 1.0
C      1  0.5242000000000  0.5030930000000  0.4633160000000 1.0
C      1  0.5450310000000  0.4512330000000  0.4801160000000 1.0
C      1  0.5253480000000  0.4375750000000  0.4986020000000 1.0
C      1  0.4921670000000  0.4524900000000  0.4668880000000 1.0
C      1  0.4637760000000  0.5331950000000  0.5676320000000 1.0
C      1  0.4926670000000  0.4919240000000  0.4693950000000 1.0
C      1  0.5121930000000  0.5133280000000  0.5085210000000 1.0
C      1  0.5092480000000  0.4559870000000  0.5136550000000 1.0
C      1  0.4677550000000  0.5080030000000  0.4575370000000 1.0
C      1  0.5286410000000  0.5411980000000  0.5450580000000 1.0
C      1  0.4760200000000  0.5411750000000  0.5366160000000 1.0
C      1  0.4940090000000  0.5430760000000  0.4720910000000 1.0
C      1  0.4697030000000  0.5344460000000  0.4613110000000 1.0
C      1  0.4694660000000  0.4515350000000  0.4886650000000 1.0
C      1  0.4812850000000  0.4515650000000  0.5141100000000 1.0
C      1  0.5070180000000  0.5278790000000  0.5336800000000 1.0
END
