TITL C-2848505-4874-324 0.00154976316644623 125000 -917.002530658801 0 0 168 (C1) n - 1
REM
REM in /home/bkarasulu/work/CARBON/AIRSS/Generating-Clusters/AIREBO/with-SteepDescent/Only-C1/SD-CG-opt/Try1-1.4A-POS3A/HFTN-CG
REM
REM
REM
REM
REM
REM ./C.cell (11c1c37f851c82e70ff6c80c92926a4b)
REM
REM compiler GCC version 9.2.1 20190827 (Red Hat 9.2.1-1)
REM options -cpp -mtune=generic -march=x86-64 -g -O0 -fpre-include=/usr/include/finclude/math-vector-fortran.h
REM seed 1443346300 1380058212 307996231 1263955932 -2100049695 -1972393939 448106010 1576075322 -1100128964 1442514340 1110650155 -1458191366 839214019 -1424753010 -2056498755 -1183184435 787864009 -176132663 -79533884 -82062416 -1002471300 334996026 871388243 -992900426 1297844175 -118919588 -1555843734 -1472053531 318569828 1034502706 785411239 977744404 706984520
REM
CELL 1.54180   50.00000   50.00000   50.00000   90.00000   90.00000   90.00000
LATT -1
SFAC C  
C      1  0.3905080000000  0.4821120000000  0.4888880000000 1.0
C      1  0.5357400000000  0.5876140000000  0.5399260000000 1.0
C      1  0.5635490000000  0.5155500000000  0.5347220000000 1.0
C      1  0.5538340000000  0.5492920000000  0.5610580000000 1.0
C      1  0.4470320000000  0.5398460000000  0.5112250000000 1.0
C      1  0.4114420000000  0.4979410000000  0.4380550000000 1.0
C      1  0.5001170000000  0.5870860000000  0.4450780000000 1.0
C      1  0.5401950000000  0.3771180000000  0.5357900000000 1.0
C      1  0.5156860000000  0.5167890000000  0.5121840000000 1.0
C      1  0.5737310000000  0.5074820000000  0.4405000000000 1.0
C      1  0.4734400000000  0.4641030000000  0.6162250000000 1.0
C      1  0.5463600000000  0.5441890000000  0.5282840000000 1.0
C      1  0.5473180000000  0.4678200000000  0.4538030000000 1.0
C      1  0.4598830000000  0.4714660000000  0.5431100000000 1.0
C      1  0.4670220000000  0.4666420000000  0.5011730000000 1.0
C      1  0.5369560000000  0.4365510000000  0.4547590000000 1.0
C      1  0.5747190000000  0.4529920000000  0.4287250000000 1.0
C      1  0.5508460000000  0.5190220000000  0.4619690000000 1.0
C      1  0.5310140000000  0.5191700000000  0.4146340000000 1.0
C      1  0.4740100000000  0.5325110000000  0.4261120000000 1.0
C      1  0.5846120000000  0.5691500000000  0.4776200000000 1.0
C      1  0.5491890000000  0.4804700000000  0.5771030000000 1.0
C      1  0.5990710000000  0.4979660000000  0.5016280000000 1.0
C      1  0.5458720000000  0.5016810000000  0.4908750000000 1.0
C      1  0.4371610000000  0.5435410000000  0.5538560000000 1.0
C      1  0.5761600000000  0.5329020000000  0.5683970000000 1.0
C      1  0.5136520000000  0.4564550000000  0.5320960000000 1.0
C      1  0.5989590000000  0.4697070000000  0.5053820000000 1.0
C      1  0.5267820000000  0.4946950000000  0.5558090000000 1.0
C      1  0.4871840000000  0.4684930000000  0.4016650000000 1.0
C      1  0.4607900000000  0.5117050000000  0.3946210000000 1.0
C      1  0.5015420000000  0.5353330000000  0.4094880000000 1.0
C      1  0.4545390000000  0.5678440000000  0.4739900000000 1.0
C      1  0.5038630000000  0.4720690000000  0.4661880000000 1.0
C      1  0.5138720000000  0.3788380000000  0.5343680000000 1.0
C      1  0.4360660000000  0.4784690000000  0.4623340000000 1.0
C      1  0.4179120000000  0.4433480000000  0.5382200000000 1.0
C      1  0.4613240000000  0.5576660000000  0.6098990000000 1.0
C      1  0.4375370000000  0.4712530000000  0.5174830000000 1.0
C      1  0.4109640000000  0.4591010000000  0.5015380000000 1.0
C      1  0.5223690000000  0.4265410000000  0.5279980000000 1.0
C      1  0.4527250000000  0.3966300000000  0.5109500000000 1.0
C      1  0.4703250000000  0.4493520000000  0.4224460000000 1.0
C      1  0.4183690000000  0.5443700000000  0.5256790000000 1.0
C      1  0.5921990000000  0.5135010000000  0.5243990000000 1.0
C      1  0.5341910000000  0.5639400000000  0.4706530000000 1.0
C      1  0.4841120000000  0.4474690000000  0.4788900000000 1.0
C      1  0.4321540000000  0.5032960000000  0.5056080000000 1.0
C      1  0.5334440000000  0.4739530000000  0.4828550000000 1.0
C      1  0.4785650000000  0.3943060000000  0.5016490000000 1.0
C      1  0.5239360000000  0.4885060000000  0.4440540000000 1.0
C      1  0.5712370000000  0.4557530000000  0.5163360000000 1.0
C      1  0.5870640000000  0.3916920000000  0.5344610000000 1.0
C      1  0.5581270000000  0.4683780000000  0.4114090000000 1.0
C      1  0.4248170000000  0.5722760000000  0.4672690000000 1.0
C      1  0.5895230000000  0.5603920000000  0.5315180000000 1.0
C      1  0.5053330000000  0.5532770000000  0.5831780000000 1.0
C      1  0.5125880000000  0.4476340000000  0.4090460000000 1.0
C      1  0.4703090000000  0.5505430000000  0.5567270000000 1.0
C      1  0.4592340000000  0.4556170000000  0.5926870000000 1.0
C      1  0.4350490000000  0.4144560000000  0.4929170000000 1.0
C      1  0.5600090000000  0.5747610000000  0.5223580000000 1.0
C      1  0.5009640000000  0.4035180000000  0.5211220000000 1.0
C      1  0.5082540000000  0.5868050000000  0.5277500000000 1.0
C      1  0.4971160000000  0.4982060000000  0.5016500000000 1.0
C      1  0.4901500000000  0.4731390000000  0.4350890000000 1.0
C      1  0.5023280000000  0.4725550000000  0.5598240000000 1.0
C      1  0.4471670000000  0.5042390000000  0.5614340000000 1.0
C      1  0.5211460000000  0.5757620000000  0.4982810000000 1.0
C      1  0.4408900000000  0.4249270000000  0.5253040000000 1.0
C      1  0.5422710000000  0.4663190000000  0.5217550000000 1.0
C      1  0.4252370000000  0.4414440000000  0.4521550000000 1.0
C      1  0.4617320000000  0.5934180000000  0.5220000000000 1.0
C      1  0.5195420000000  0.5173480000000  0.4544860000000 1.0
C      1  0.4527950000000  0.4899640000000  0.4856740000000 1.0
C      1  0.4094410000000  0.4624120000000  0.4699260000000 1.0
C      1  0.4410600000000  0.6129280000000  0.5309850000000 1.0
C      1  0.5122860000000  0.5454130000000  0.5265900000000 1.0
C      1  0.5894160000000  0.5350810000000  0.4736200000000 1.0
C      1  0.5114820000000  0.4256190000000  0.4350540000000 1.0
C      1  0.4474780000000  0.4722380000000  0.5729770000000 1.0
C      1  0.4020450000000  0.5166970000000  0.5280650000000 1.0
C      1  0.4391080000000  0.4166200000000  0.4656360000000 1.0
C      1  0.5013750000000  0.4731100000000  0.6100360000000 1.0
C      1  0.5362310000000  0.5568200000000  0.5792240000000 1.0
C      1  0.4985110000000  0.6077950000000  0.5045040000000 1.0
C      1  0.5585240000000  0.5322220000000  0.4988630000000 1.0
C      1  0.5285580000000  0.5374570000000  0.4912250000000 1.0
C      1  0.4715200000000  0.5596510000000  0.4458080000000 1.0
C      1  0.5954010000000  0.5362060000000  0.5468880000000 1.0
C      1  0.3998490000000  0.5568310000000  0.5029040000000 1.0
C      1  0.4275370000000  0.5398410000000  0.4272900000000 1.0
C      1  0.5687490000000  0.3682570000000  0.5372870000000 1.0
C      1  0.4468970000000  0.5350440000000  0.4803780000000 1.0
C      1  0.4347500000000  0.5122120000000  0.4582920000000 1.0
C      1  0.5467830000000  0.5378150000000  0.4338940000000 1.0
C      1  0.5845630000000  0.5495500000000  0.5033920000000 1.0
C      1  0.4393860000000  0.5096340000000  0.5998950000000 1.0
C      1  0.4879580000000  0.5093350000000  0.4470520000000 1.0
C      1  0.4899710000000  0.6065930000000  0.4659130000000 1.0
C      1  0.4086970000000  0.5803700000000  0.4893610000000 1.0
C      1  0.4890470000000  0.4858990000000  0.5866080000000 1.0
C      1  0.5375730000000  0.4485030000000  0.5761080000000 1.0
C      1  0.5322090000000  0.4678810000000  0.6037810000000 1.0
C      1  0.4941910000000  0.5670750000000  0.4700650000000 1.0
C      1  0.4778920000000  0.4215330000000  0.4316610000000 1.0
C      1  0.4469450000000  0.5119070000000  0.4266040000000 1.0
C      1  0.4743840000000  0.5479950000000  0.5896990000000 1.0
C      1  0.4783430000000  0.4995100000000  0.5369380000000 1.0
C      1  0.5312000000000  0.4993690000000  0.6121880000000 1.0
C      1  0.6011990000000  0.4902340000000  0.4353620000000 1.0
C      1  0.4136870000000  0.5478420000000  0.4536290000000 1.0
C      1  0.4825230000000  0.5801560000000  0.5451080000000 1.0
C      1  0.5394830000000  0.5972800000000  0.4665370000000 1.0
C      1  0.4838360000000  0.3974320000000  0.4742460000000 1.0
C      1  0.4000420000000  0.5096470000000  0.4968910000000 1.0
C      1  0.4659710000000  0.5622900000000  0.5137950000000 1.0
C      1  0.5496410000000  0.4943160000000  0.4239410000000 1.0
C      1  0.5625940000000  0.5567970000000  0.4572570000000 1.0
C      1  0.5158820000000  0.5237120000000  0.5700500000000 1.0
C      1  0.5396790000000  0.4979760000000  0.5241320000000 1.0
C      1  0.5650810000000  0.5103230000000  0.5807590000000 1.0
C      1  0.5489380000000  0.4437090000000  0.4854870000000 1.0
C      1  0.5342640000000  0.6064520000000  0.5047700000000 1.0
C      1  0.4818990000000  0.4959250000000  0.4764250000000 1.0
C      1  0.5801960000000  0.4532870000000  0.4835800000000 1.0
C      1  0.4932510000000  0.5277150000000  0.5463020000000 1.0
C      1  0.4728510000000  0.4338520000000  0.5802130000000 1.0
C      1  0.5458500000000  0.4301870000000  0.5525190000000 1.0
C      1  0.5381370000000  0.5158670000000  0.5919200000000 1.0
C      1  0.4673210000000  0.5028050000000  0.5888180000000 1.0
C      1  0.4091530000000  0.5000070000000  0.5499210000000 1.0
C      1  0.5590900000000  0.5864670000000  0.4921280000000 1.0
C      1  0.5171280000000  0.6194790000000  0.4785620000000 1.0
C      1  0.5044750000000  0.5372530000000  0.4715970000000 1.0
C      1  0.4908830000000  0.5804460000000  0.5736660000000 1.0
C      1  0.4676630000000  0.4405640000000  0.5312480000000 1.0
C      1  0.5073230000000  0.5107330000000  0.3916180000000 1.0
C      1  0.5710320000000  0.4471680000000  0.5453610000000 1.0
C      1  0.5370360000000  0.4542960000000  0.3989760000000 1.0
C      1  0.5560310000000  0.4057540000000  0.5328140000000 1.0
C      1  0.4997970000000  0.4216870000000  0.4667440000000 1.0
C      1  0.5854270000000  0.5016750000000  0.4719000000000 1.0
C      1  0.5430560000000  0.5701770000000  0.4251740000000 1.0
C      1  0.4838250000000  0.4959330000000  0.3897130000000 1.0
C      1  0.4933420000000  0.5590890000000  0.5031340000000 1.0
C      1  0.4494930000000  0.5132840000000  0.5309790000000 1.0
C      1  0.3956600000000  0.5370560000000  0.4805910000000 1.0
C      1  0.5274620000000  0.5874330000000  0.4390180000000 1.0
C      1  0.4641630000000  0.4090420000000  0.4538870000000 1.0
C      1  0.4161140000000  0.4732120000000  0.5438230000000 1.0
C      1  0.5467740000000  0.4232360000000  0.5063670000000 1.0
C      1  0.4918290000000  0.4741520000000  0.5199310000000 1.0
C      1  0.5621740000000  0.4284130000000  0.4348820000000 1.0
C      1  0.5734910000000  0.5662800000000  0.4261580000000 1.0
C      1  0.4733200000000  0.4085490000000  0.5889560000000 1.0
C      1  0.4876440000000  0.4324480000000  0.5092010000000 1.0
C      1  0.4414530000000  0.4570970000000  0.4289880000000 1.0
C      1  0.4566970000000  0.4519370000000  0.4597070000000 1.0
C      1  0.5402880000000  0.4093710000000  0.4258410000000 1.0
C      1  0.4711570000000  0.5932650000000  0.4893200000000 1.0
C      1  0.4514620000000  0.5433040000000  0.4030450000000 1.0
C      1  0.4851550000000  0.4439480000000  0.5571070000000 1.0
C      1  0.5809950000000  0.4717100000000  0.4564250000000 1.0
C      1  0.4304430000000  0.4827090000000  0.4198040000000 1.0
C      1  0.4214630000000  0.5204540000000  0.5733040000000 1.0
C      1  0.4733420000000  0.5334690000000  0.4660100000000 1.0
C      1  0.5767530000000  0.4654080000000  0.5652510000000 1.0
END
