TITL C-2848499-1157-571 0.00304683919142954 125000 -435.802569394858 0 0 80 (C1) n - 1
REM
REM in /home/bkarasulu/work/CARBON/AIRSS/Generating-Clusters/AIREBO/with-SteepDescent/Only-C1/SD-CG-opt/Try1-1.4A-POS3A/HFTN-CG
REM
REM
REM
REM
REM
REM ./C.cell (11c1c37f851c82e70ff6c80c92926a4b)
REM
REM compiler GCC version 9.2.1 20190827 (Red Hat 9.2.1-1)
REM options -cpp -mtune=generic -march=x86-64 -g -O0 -fpre-include=/usr/include/finclude/math-vector-fortran.h
REM seed 300670295 -1386214810 1515129284 -1462238167 -220963098 -570408998 -827296708 1447518865 -651418917 1169240283 -828620824 1835189594 -1896158369 1269099903 193892599 1583584103 -1857462083 -1598441452 -519974856 1908061593 239915788 266380259 871355365 518854325 -1730045253 -1739289242 110653827 1140725218 141440095 -1619452362 -1065829425 218171113 -1062399434
REM
CELL 1.54180   50.00000   50.00000   50.00000   90.00000   90.00000   90.00000
LATT -1
SFAC C  
C      1  0.5127950000000  0.4576400000000  0.5135060000000 1.0
C      1  0.5010810000000  0.4499330000000  0.4397400000000 1.0
C      1  0.5447470000000  0.5075780000000  0.5620830000000 1.0
C      1  0.4641500000000  0.5360590000000  0.4723640000000 1.0
C      1  0.4344640000000  0.5294600000000  0.5735830000000 1.0
C      1  0.5189320000000  0.4893050000000  0.5173170000000 1.0
C      1  0.5066310000000  0.4912980000000  0.5459740000000 1.0
C      1  0.5033360000000  0.5594490000000  0.5183910000000 1.0
C      1  0.4539600000000  0.4536730000000  0.5460560000000 1.0
C      1  0.5658700000000  0.4695650000000  0.4587760000000 1.0
C      1  0.4452840000000  0.4368490000000  0.4602590000000 1.0
C      1  0.5004770000000  0.5141640000000  0.5075860000000 1.0
C      1  0.4757920000000  0.4677130000000  0.4284430000000 1.0
C      1  0.5056320000000  0.4440030000000  0.5415440000000 1.0
C      1  0.5011880000000  0.5084360000000  0.4485770000000 1.0
C      1  0.4376400000000  0.5702930000000  0.5293610000000 1.0
C      1  0.4868730000000  0.5606020000000  0.4366300000000 1.0
C      1  0.5297230000000  0.5360240000000  0.5528370000000 1.0
C      1  0.4377940000000  0.5151130000000  0.4508830000000 1.0
C      1  0.4240210000000  0.5441400000000  0.5378900000000 1.0
C      1  0.4479850000000  0.5204270000000  0.4979190000000 1.0
C      1  0.4716440000000  0.5119300000000  0.4511820000000 1.0
C      1  0.4703460000000  0.4753520000000  0.4904420000000 1.0
C      1  0.5057470000000  0.5154720000000  0.5585700000000 1.0
C      1  0.5561170000000  0.5156870000000  0.5322940000000 1.0
C      1  0.4674870000000  0.4275690000000  0.4747450000000 1.0
C      1  0.4679120000000  0.4916640000000  0.5364850000000 1.0
C      1  0.5510710000000  0.5451370000000  0.4902460000000 1.0
C      1  0.5365290000000  0.4331860000000  0.5339170000000 1.0
C      1  0.4812220000000  0.5227180000000  0.5698250000000 1.0
C      1  0.4650590000000  0.5603050000000  0.4541400000000 1.0
C      1  0.5504990000000  0.4172140000000  0.5488520000000 1.0
C      1  0.5634460000000  0.5470910000000  0.5421270000000 1.0
C      1  0.4842940000000  0.4682950000000  0.5513440000000 1.0
C      1  0.5137580000000  0.5545720000000  0.4321480000000 1.0
C      1  0.5506560000000  0.4931410000000  0.5824760000000 1.0
C      1  0.4983000000000  0.4205160000000  0.5103770000000 1.0
C      1  0.5354420000000  0.5829700000000  0.5487810000000 1.0
C      1  0.5470090000000  0.4461620000000  0.4689370000000 1.0
C      1  0.5650590000000  0.4665710000000  0.5259450000000 1.0
C      1  0.4817960000000  0.5410750000000  0.4982780000000 1.0
C      1  0.5727590000000  0.4935790000000  0.4823930000000 1.0
C      1  0.5505220000000  0.5250680000000  0.4472940000000 1.0
C      1  0.4684240000000  0.4438530000000  0.4984430000000 1.0
C      1  0.4983700000000  0.4696570000000  0.4803220000000 1.0
C      1  0.5519030000000  0.4910800000000  0.5091540000000 1.0
C      1  0.5361080000000  0.4730350000000  0.4851180000000 1.0
C      1  0.5885040000000  0.5147660000000  0.4960930000000 1.0
C      1  0.4699140000000  0.5621800000000  0.5221410000000 1.0
C      1  0.4787570000000  0.5358030000000  0.5938480000000 1.0
C      1  0.5618770000000  0.5742020000000  0.5463400000000 1.0
C      1  0.5297620000000  0.5228670000000  0.4725350000000 1.0
C      1  0.4593030000000  0.4826740000000  0.4459240000000 1.0
C      1  0.4447660000000  0.4674000000000  0.4703610000000 1.0
C      1  0.5348130000000  0.5695940000000  0.4442570000000 1.0
C      1  0.4711810000000  0.4997920000000  0.5073130000000 1.0
C      1  0.5694640000000  0.5021350000000  0.4497030000000 1.0
C      1  0.4328800000000  0.4679060000000  0.5022360000000 1.0
C      1  0.4271840000000  0.4953190000000  0.5427180000000 1.0
C      1  0.5060310000000  0.4387090000000  0.4860680000000 1.0
C      1  0.5711080000000  0.5337050000000  0.5090940000000 1.0
C      1  0.4450350000000  0.5789240000000  0.4547830000000 1.0
C      1  0.5210660000000  0.5238950000000  0.4303060000000 1.0
C      1  0.4341090000000  0.4713680000000  0.5298300000000 1.0
C      1  0.5419250000000  0.4441380000000  0.5022950000000 1.0
C      1  0.4749660000000  0.4371780000000  0.5285360000000 1.0
C      1  0.4526350000000  0.5152040000000  0.5533820000000 1.0
C      1  0.5177400000000  0.5622750000000  0.5441150000000 1.0
C      1  0.4100070000000  0.5200290000000  0.5433910000000 1.0
C      1  0.5520980000000  0.4821040000000  0.4301480000000 1.0
C      1  0.4950900000000  0.4233610000000  0.4594320000000 1.0
C      1  0.5268310000000  0.4330360000000  0.4515970000000 1.0
C      1  0.5211200000000  0.5391680000000  0.5000090000000 1.0
C      1  0.4530140000000  0.5341690000000  0.5251630000000 1.0
C      1  0.4415760000000  0.4390120000000  0.5694880000000 1.0
C      1  0.5060770000000  0.4742060000000  0.4179390000000 1.0
C      1  0.4275520000000  0.5199830000000  0.4736280000000 1.0
C      1  0.5510990000000  0.5541410000000  0.4598310000000 1.0
C      1  0.5158530000000  0.4942450000000  0.4717750000000 1.0
C      1  0.5268100000000  0.4918960000000  0.4221640000000 1.0
END
