TITL C-2848506-1665-331 0.00281608922233839 125000 -604.925417622722 0 0 114 (C1) n - 1
REM
REM in /home/bkarasulu/work/CARBON/AIRSS/Generating-Clusters/AIREBO/with-SteepDescent/Only-C1/SD-CG-opt/Try1-1.4A-POS3A/HFTN-CG
REM
REM
REM
REM
REM
REM ./C.cell (11c1c37f851c82e70ff6c80c92926a4b)
REM
REM compiler GCC version 9.2.1 20190827 (Red Hat 9.2.1-1)
REM options -cpp -mtune=generic -march=x86-64 -g -O0 -fpre-include=/usr/include/finclude/math-vector-fortran.h
REM seed 79576730 156541991 1848948569 2046722832 -219647834 1272338635 3698356 -211272631 563132085 -1744151157 -961086957 610340136 2011357819 690997865 1857193084 328677453 -446032515 1629327226 -982927802 -533617508 1278469819 1865620550 -1465348129 471554426 1360400403 1234741861 -2063293597 -1518361426 1686035585 1298965467 1221877225 796772489 871184451
REM
CELL 1.54180   50.00000   50.00000   50.00000   90.00000   90.00000   90.00000
LATT -1
SFAC C  
C      1  0.3959430000000  0.4951510000000  0.5201670000000 1.0
C      1  0.4828110000000  0.5423880000000  0.4631990000000 1.0
C      1  0.4598540000000  0.4492930000000  0.4485690000000 1.0
C      1  0.5832610000000  0.5199160000000  0.5113510000000 1.0
C      1  0.5262090000000  0.5199400000000  0.4094740000000 1.0
C      1  0.4944820000000  0.4145910000000  0.4784540000000 1.0
C      1  0.5630470000000  0.4532340000000  0.5268830000000 1.0
C      1  0.4828240000000  0.5444400000000  0.4298590000000 1.0
C      1  0.4890060000000  0.4359870000000  0.5644440000000 1.0
C      1  0.5434470000000  0.4291450000000  0.5385220000000 1.0
C      1  0.4444010000000  0.5047980000000  0.5735410000000 1.0
C      1  0.4177960000000  0.5059410000000  0.5440940000000 1.0
C      1  0.4063130000000  0.4707900000000  0.5011660000000 1.0
C      1  0.5272740000000  0.4957090000000  0.5334550000000 1.0
C      1  0.4264730000000  0.4530430000000  0.5205100000000 1.0
C      1  0.4953670000000  0.5354490000000  0.5532410000000 1.0
C      1  0.5498550000000  0.4264070000000  0.4961370000000 1.0
C      1  0.4820860000000  0.5667460000000  0.5546940000000 1.0
C      1  0.4202160000000  0.5079810000000  0.5045620000000 1.0
C      1  0.5556000000000  0.5512040000000  0.4487690000000 1.0
C      1  0.5117720000000  0.4832170000000  0.5058840000000 1.0
C      1  0.5318870000000  0.5172060000000  0.5002160000000 1.0
C      1  0.4773600000000  0.5045970000000  0.5353860000000 1.0
C      1  0.5291540000000  0.5477740000000  0.5705200000000 1.0
C      1  0.5593410000000  0.4499310000000  0.4600450000000 1.0
C      1  0.5613530000000  0.5841620000000  0.4992760000000 1.0
C      1  0.5209720000000  0.5629360000000  0.4792460000000 1.0
C      1  0.5391820000000  0.4230260000000  0.4535180000000 1.0
C      1  0.4882930000000  0.4743180000000  0.4044100000000 1.0
C      1  0.4984020000000  0.4545130000000  0.4934930000000 1.0
C      1  0.5002590000000  0.6085170000000  0.4613650000000 1.0
C      1  0.4757250000000  0.5515550000000  0.5099130000000 1.0
C      1  0.5055050000000  0.5286650000000  0.5821810000000 1.0
C      1  0.4785460000000  0.4337740000000  0.5096740000000 1.0
C      1  0.4310960000000  0.4774610000000  0.4788580000000 1.0
C      1  0.5779690000000  0.4784640000000  0.5394670000000 1.0
C      1  0.5412040000000  0.4549280000000  0.4317220000000 1.0
C      1  0.5710840000000  0.4945070000000  0.4409640000000 1.0
C      1  0.4824120000000  0.4571940000000  0.5314070000000 1.0
C      1  0.5485220000000  0.5797210000000  0.5232010000000 1.0
C      1  0.4456200000000  0.5011780000000  0.4603420000000 1.0
C      1  0.5138510000000  0.5265070000000  0.5282210000000 1.0
C      1  0.4824170000000  0.4670450000000  0.5766600000000 1.0
C      1  0.5220900000000  0.4246280000000  0.5055100000000 1.0
C      1  0.5600360000000  0.4580770000000  0.4933530000000 1.0
C      1  0.4251870000000  0.5593020000000  0.5115820000000 1.0
C      1  0.5426300000000  0.4857890000000  0.4918340000000 1.0
C      1  0.4465930000000  0.4777920000000  0.4377140000000 1.0
C      1  0.5299230000000  0.5293010000000  0.4481680000000 1.0
C      1  0.4781740000000  0.4841230000000  0.5110670000000 1.0
C      1  0.5103950000000  0.5343990000000  0.4712420000000 1.0
C      1  0.5293630000000  0.5631570000000  0.4338450000000 1.0
C      1  0.5910460000000  0.5300900000000  0.4819500000000 1.0
C      1  0.5125050000000  0.5446060000000  0.4158280000000 1.0
C      1  0.5404910000000  0.5469080000000  0.5271020000000 1.0
C      1  0.4912590000000  0.4566300000000  0.4511340000000 1.0
C      1  0.4364110000000  0.5590680000000  0.5367930000000 1.0
C      1  0.4883960000000  0.4893730000000  0.4598470000000 1.0
C      1  0.4453110000000  0.4350590000000  0.5025670000000 1.0
C      1  0.4447090000000  0.4328510000000  0.4703630000000 1.0
C      1  0.4344980000000  0.5489220000000  0.4832230000000 1.0
C      1  0.5094690000000  0.5034620000000  0.4786620000000 1.0
C      1  0.4253120000000  0.5193840000000  0.4797200000000 1.0
C      1  0.5404860000000  0.4674980000000  0.5469220000000 1.0
C      1  0.4734480000000  0.4993150000000  0.5825340000000 1.0
C      1  0.4336910000000  0.4569020000000  0.5496190000000 1.0
C      1  0.5312100000000  0.4960830000000  0.4410220000000 1.0
C      1  0.5703010000000  0.5276580000000  0.4640760000000 1.0
C      1  0.4454310000000  0.4753700000000  0.5071090000000 1.0
C      1  0.4601810000000  0.5744900000000  0.5386600000000 1.0
C      1  0.4700950000000  0.4131150000000  0.4659740000000 1.0
C      1  0.4561250000000  0.5254060000000  0.4389060000000 1.0
C      1  0.4456130000000  0.5024940000000  0.5248490000000 1.0
C      1  0.4399600000000  0.5308890000000  0.5521080000000 1.0
C      1  0.5574250000000  0.5109920000000  0.5297140000000 1.0
C      1  0.4970570000000  0.4053010000000  0.5113850000000 1.0
C      1  0.5520740000000  0.5020470000000  0.4672150000000 1.0
C      1  0.5895090000000  0.4749870000000  0.4921200000000 1.0
C      1  0.5115910000000  0.5717940000000  0.5540430000000 1.0
C      1  0.5583330000000  0.4921920000000  0.5638020000000 1.0
C      1  0.5135220000000  0.4360910000000  0.4352280000000 1.0
C      1  0.5067050000000  0.4961620000000  0.4174410000000 1.0
C      1  0.5177170000000  0.4521090000000  0.5654200000000 1.0
C      1  0.5052330000000  0.4974260000000  0.5949520000000 1.0
C      1  0.5563900000000  0.5374680000000  0.5002590000000 1.0
C      1  0.5195150000000  0.4667800000000  0.5912660000000 1.0
C      1  0.4699640000000  0.5030800000000  0.4840210000000 1.0
C      1  0.4273090000000  0.4806230000000  0.5629290000000 1.0
C      1  0.4156700000000  0.4471370000000  0.4785970000000 1.0
C      1  0.4595380000000  0.4477730000000  0.5532260000000 1.0
C      1  0.5130130000000  0.4420850000000  0.5332570000000 1.0
C      1  0.4683750000000  0.5847450000000  0.5109120000000 1.0
C      1  0.4830730000000  0.5066150000000  0.4350820000000 1.0
C      1  0.4364420000000  0.5480660000000  0.4501760000000 1.0
C      1  0.4682350000000  0.5351310000000  0.5347820000000 1.0
C      1  0.5905370000000  0.4905310000000  0.5160630000000 1.0
C      1  0.5183490000000  0.4385260000000  0.4746930000000 1.0
C      1  0.5799440000000  0.4738320000000  0.4625320000000 1.0
C      1  0.5552650000000  0.5041660000000  0.4164150000000 1.0
C      1  0.5570270000000  0.5583640000000  0.5545170000000 1.0
C      1  0.5035070000000  0.5719010000000  0.5045770000000 1.0
C      1  0.4686010000000  0.4642100000000  0.4191380000000 1.0
C      1  0.5526110000000  0.5254810000000  0.5585940000000 1.0
C      1  0.5250180000000  0.4980430000000  0.5673020000000 1.0
C      1  0.4806940000000  0.5724590000000  0.4495810000000 1.0
C      1  0.5529890000000  0.5608230000000  0.4800950000000 1.0
C      1  0.4838980000000  0.5860830000000  0.4806910000000 1.0
C      1  0.5196190000000  0.5807920000000  0.5288780000000 1.0
C      1  0.4644970000000  0.5366330000000  0.4857600000000 1.0
C      1  0.4574360000000  0.4110910000000  0.5237100000000 1.0
C      1  0.4935440000000  0.4927480000000  0.5573190000000 1.0
C      1  0.4855570000000  0.4125050000000  0.5427750000000 1.0
C      1  0.5128490000000  0.5802330000000  0.4537570000000 1.0
C      1  0.5228330000000  0.4674860000000  0.4574330000000 1.0
END
