TITL C-2848508-1660-449 7.43926758302276e-05 125000 -213.866356021047 0 0 41 (C1) n - 1
REM
REM in /home/bkarasulu/work/CARBON/AIRSS/Generating-Clusters/AIREBO/with-SteepDescent/Only-C1/SD-CG-opt/Try1-1.4A-POS3A/HFTN-CG
REM
REM
REM
REM
REM
REM ./C.cell (11c1c37f851c82e70ff6c80c92926a4b)
REM
REM compiler GCC version 9.2.1 20190827 (Red Hat 9.2.1-1)
REM options -cpp -mtune=generic -march=x86-64 -g -O0 -fpre-include=/usr/include/finclude/math-vector-fortran.h
REM seed -1179985906 882233882 -562645769 -1410313970 1366716238 291674537 1345696657 -16902626 1329272756 1938556164 -1107330846 386461798 117681806 1833660494 51107026 -1113865508 1812837749 -1576228971 -1355113514 720350754 -1842507577 116606393 -1954752016 -511414101 -1772976853 240883507 947319413 -237421930 1092146427 365488183 -1005150591 -807476540 -83558872
REM
CELL 1.54180   50.00000   50.00000   50.00000   90.00000   90.00000   90.00000
LATT -1
SFAC C  
C      1  0.5269650000000  0.4584780000000  0.4496450000000 1.0
C      1  0.5455080000000  0.5016830000000  0.4743300000000 1.0
C      1  0.4813490000000  0.5498470000000  0.5412050000000 1.0
C      1  0.4991060000000  0.5016460000000  0.4968870000000 1.0
C      1  0.5362220000000  0.5323820000000  0.4634330000000 1.0
C      1  0.5634870000000  0.4796390000000  0.4901500000000 1.0
C      1  0.4855960000000  0.4586250000000  0.4733680000000 1.0
C      1  0.5299770000000  0.4982650000000  0.5014630000000 1.0
C      1  0.4440010000000  0.4907640000000  0.4753150000000 1.0
C      1  0.5291690000000  0.5428530000000  0.5362410000000 1.0
C      1  0.4774230000000  0.5201840000000  0.5250580000000 1.0
C      1  0.4838230000000  0.4448780000000  0.5283990000000 1.0
C      1  0.4896270000000  0.5428510000000  0.5028380000000 1.0
C      1  0.4675160000000  0.4701140000000  0.4556190000000 1.0
C      1  0.4754270000000  0.4896890000000  0.5614860000000 1.0
C      1  0.4585300000000  0.4562780000000  0.5292530000000 1.0
C      1  0.5397590000000  0.4779100000000  0.5269650000000 1.0
C      1  0.4957700000000  0.4950620000000  0.5379740000000 1.0
C      1  0.4849900000000  0.5213390000000  0.4769080000000 1.0
C      1  0.5535840000000  0.4910040000000  0.5464220000000 1.0
C      1  0.5244590000000  0.4509730000000  0.4969860000000 1.0
C      1  0.5559970000000  0.5480860000000  0.4516240000000 1.0
C      1  0.4454300000000  0.4989700000000  0.5524470000000 1.0
C      1  0.4532190000000  0.4785820000000  0.5059960000000 1.0
C      1  0.5452220000000  0.5192320000000  0.5515320000000 1.0
C      1  0.5338550000000  0.4853300000000  0.4477640000000 1.0
C      1  0.5077430000000  0.4679610000000  0.5212490000000 1.0
C      1  0.5203410000000  0.5113300000000  0.4449660000000 1.0
C      1  0.4322490000000  0.5105610000000  0.4952320000000 1.0
C      1  0.5204070000000  0.5124990000000  0.5297150000000 1.0
C      1  0.4835680000000  0.4748290000000  0.4983380000000 1.0
C      1  0.5075890000000  0.5579590000000  0.5280760000000 1.0
C      1  0.5156500000000  0.5467840000000  0.4800090000000 1.0
C      1  0.4888590000000  0.5526310000000  0.4641760000000 1.0
C      1  0.4940050000000  0.5137240000000  0.4387270000000 1.0
C      1  0.4690070000000  0.5029620000000  0.4566070000000 1.0
C      1  0.4525400000000  0.4680340000000  0.5545610000000 1.0
C      1  0.5116820000000  0.4493610000000  0.4717670000000 1.0
C      1  0.4491890000000  0.5077880000000  0.5229710000000 1.0
C      1  0.4687550000000  0.5637040000000  0.4976830000000 1.0
C      1  0.5524040000000  0.4552110000000  0.4966130000000 1.0
END
