TITL C-2847953-8112-543 0.000217629785132109 125000 -359.667296268418 0 0 67 (C1) n - 1
REM
REM in /home/bkarasulu/work/CARBON/AIRSS/Generating-Clusters/AIREBO/with-SteepDescent/Only-C1/SD-CG-opt/Try1-1.4A-POS3A/HFTN-CG
REM
REM
REM
REM
REM
REM ./C.cell (11c1c37f851c82e70ff6c80c92926a4b)
REM
REM compiler GCC version 9.2.1 20190827 (Red Hat 9.2.1-1)
REM options -cpp -mtune=generic -march=x86-64 -g -O0 -fpre-include=/usr/include/finclude/math-vector-fortran.h
REM seed -510727091 -1130081503 1166807549 -1033493685 -1954792676 -1021390296 -756993804 -299781181 1994602630 -752197101 1930568145 -1137180187 1922293566 -151535824 1225569954 -960528000 490937756 -1788847013 635287010 1913018232 351936751 -440307661 697479770 2087371736 -949036069 1214129323 472444360 871716394 2110395254 -1663445355 -1849944883 -1813692713 2048291996
REM
CELL 1.54180   50.00000   50.00000   50.00000   90.00000   90.00000   90.00000
LATT -1
SFAC C  
C      1  0.5284250000000  0.5126430000000  0.5048120000000 1.0
C      1  0.5367480000000  0.5249180000000  0.4526340000000 1.0
C      1  0.6098330000000  0.4932370000000  0.5243350000000 1.0
C      1  0.5100000000000  0.5666660000000  0.4839370000000 1.0
C      1  0.4829460000000  0.5144170000000  0.4853670000000 1.0
C      1  0.4976450000000  0.5960110000000  0.4953640000000 1.0
C      1  0.4801600000000  0.4060420000000  0.5756630000000 1.0
C      1  0.4346290000000  0.4922730000000  0.5081360000000 1.0
C      1  0.4826410000000  0.4863150000000  0.5180820000000 1.0
C      1  0.5509830000000  0.5133300000000  0.5543880000000 1.0
C      1  0.5008590000000  0.4325750000000  0.4624070000000 1.0
C      1  0.4064130000000  0.4861350000000  0.4901840000000 1.0
C      1  0.5144340000000  0.4849030000000  0.5152620000000 1.0
C      1  0.4928610000000  0.5271670000000  0.4334610000000 1.0
C      1  0.4740270000000  0.5342490000000  0.5572890000000 1.0
C      1  0.5346710000000  0.5371910000000  0.5392500000000 1.0
C      1  0.4817230000000  0.5521290000000  0.5352140000000 1.0
C      1  0.5651800000000  0.4745840000000  0.4945410000000 1.0
C      1  0.5510370000000  0.4508890000000  0.5114170000000 1.0
C      1  0.4997320000000  0.4856630000000  0.4784760000000 1.0
C      1  0.5418900000000  0.4921740000000  0.5643670000000 1.0
C      1  0.4847860000000  0.4350770000000  0.4910900000000 1.0
C      1  0.5098820000000  0.4846050000000  0.4243330000000 1.0
C      1  0.5370620000000  0.5558330000000  0.4936550000000 1.0
C      1  0.4860290000000  0.4219370000000  0.5568130000000 1.0
C      1  0.4719100000000  0.4570830000000  0.4450750000000 1.0
C      1  0.4424310000000  0.5680850000000  0.5298510000000 1.0
C      1  0.5328900000000  0.4964250000000  0.4345440000000 1.0
C      1  0.4770200000000  0.4613860000000  0.4763750000000 1.0
C      1  0.5883390000000  0.5323620000000  0.4626270000000 1.0
C      1  0.4302530000000  0.5450090000000  0.4667240000000 1.0
C      1  0.4662820000000  0.4869420000000  0.4395880000000 1.0
C      1  0.5664310000000  0.4875240000000  0.4664210000000 1.0
C      1  0.4526070000000  0.4992700000000  0.4603220000000 1.0
C      1  0.4693540000000  0.4076420000000  0.5035410000000 1.0
C      1  0.4360730000000  0.5021410000000  0.5407800000000 1.0
C      1  0.4422880000000  0.5243710000000  0.4541030000000 1.0
C      1  0.4811550000000  0.5316170000000  0.4617650000000 1.0
C      1  0.5183560000000  0.4750570000000  0.5537140000000 1.0
C      1  0.5288620000000  0.4585780000000  0.5262830000000 1.0
C      1  0.4287110000000  0.5414610000000  0.4940970000000 1.0
C      1  0.4907640000000  0.5701480000000  0.5123650000000 1.0
C      1  0.4988490000000  0.5228980000000  0.5696510000000 1.0
C      1  0.4104710000000  0.5126580000000  0.5326050000000 1.0
C      1  0.4709130000000  0.4868400000000  0.5698530000000 1.0
C      1  0.4870060000000  0.4279690000000  0.5242950000000 1.0
C      1  0.5064590000000  0.5218740000000  0.5278780000000 1.0
C      1  0.4130800000000  0.5176810000000  0.5013270000000 1.0
C      1  0.5219940000000  0.5366330000000  0.5689820000000 1.0
C      1  0.4515850000000  0.4370380000000  0.4355070000000 1.0
C      1  0.5441110000000  0.5589350000000  0.5198320000000 1.0
C      1  0.4871080000000  0.5005750000000  0.4256710000000 1.0
C      1  0.5317410000000  0.4768420000000  0.4880400000000 1.0
C      1  0.4795890000000  0.5320060000000  0.5096130000000 1.0
C      1  0.5379520000000  0.5293190000000  0.4854170000000 1.0
C      1  0.5103020000000  0.5458900000000  0.4571610000000 1.0
C      1  0.6302590000000  0.5020750000000  0.5381660000000 1.0
C      1  0.5495910000000  0.4760680000000  0.4481290000000 1.0
C      1  0.4499720000000  0.5487110000000  0.5112050000000 1.0
C      1  0.5891890000000  0.4844450000000  0.5104600000000 1.0
C      1  0.5202130000000  0.4673380000000  0.4588070000000 1.0
C      1  0.5073170000000  0.4440230000000  0.5450760000000 1.0
C      1  0.5032110000000  0.4534590000000  0.4356780000000 1.0
C      1  0.5671300000000  0.5152600000000  0.4622370000000 1.0
C      1  0.4568020000000  0.5101120000000  0.5566510000000 1.0
C      1  0.4948790000000  0.4969920000000  0.5479690000000 1.0
C      1  0.4619550000000  0.4882970000000  0.4911360000000 1.0
END
