TITL C-2848504-8560-133 0.000485361112188311 125000 -621.42620903193 0 0 113 (C1) n - 1
REM
REM in /home/bkarasulu/work/CARBON/AIRSS/Generating-Clusters/AIREBO/with-SteepDescent/Only-C1/SD-CG-opt/Try1-1.4A-POS3A/HFTN-CG
REM
REM
REM
REM
REM
REM ./C.cell (11c1c37f851c82e70ff6c80c92926a4b)
REM
REM compiler GCC version 9.2.1 20190827 (Red Hat 9.2.1-1)
REM options -cpp -mtune=generic -march=x86-64 -g -O0 -fpre-include=/usr/include/finclude/math-vector-fortran.h
REM seed -1746755426 -181425779 1102232326 1679871069 27114912 -443953663 -948567854 -735252572 578825646 -695795545 -1712608783 806674229 -1252923194 981882983 -196926962 -96297294 604332662 1683044390 -208482056 1842283901 1260721969 -693422927 -1665017551 2038969318 -2051731802 622519513 -69941818 373036478 2072862331 1775722727 -1113571916 -1620862542 1080511983
REM
CELL 1.54180   50.00000   50.00000   50.00000   90.00000   90.00000   90.00000
LATT -1
SFAC C  
C      1  0.5274290000000  0.4554720000000  0.4612450000000 1.0
C      1  0.5017480000000  0.5111480000000  0.5496010000000 1.0
C      1  0.5408160000000  0.4455860000000  0.5427890000000 1.0
C      1  0.4494390000000  0.5713260000000  0.4681910000000 1.0
C      1  0.5604930000000  0.5288480000000  0.5067870000000 1.0
C      1  0.5253610000000  0.5827750000000  0.4612190000000 1.0
C      1  0.5110300000000  0.4552720000000  0.5295420000000 1.0
C      1  0.5462670000000  0.5478640000000  0.4314590000000 1.0
C      1  0.4348250000000  0.5165030000000  0.5470250000000 1.0
C      1  0.5246680000000  0.4951520000000  0.4367400000000 1.0
C      1  0.5490340000000  0.5463540000000  0.5659610000000 1.0
C      1  0.5531960000000  0.5679910000000  0.5041140000000 1.0
C      1  0.4516800000000  0.4417760000000  0.5533840000000 1.0
C      1  0.4787250000000  0.5431400000000  0.4903380000000 1.0
C      1  0.4249990000000  0.5635920000000  0.5511770000000 1.0
C      1  0.4967950000000  0.4613840000000  0.5570390000000 1.0
C      1  0.4763170000000  0.4186280000000  0.4527140000000 1.0
C      1  0.4336270000000  0.5585150000000  0.4412820000000 1.0
C      1  0.4696740000000  0.5429790000000  0.5393320000000 1.0
C      1  0.5627650000000  0.5017550000000  0.4457000000000 1.0
C      1  0.6123040000000  0.4919870000000  0.4915750000000 1.0
C      1  0.4662410000000  0.5529080000000  0.5777630000000 1.0
C      1  0.5484100000000  0.5684150000000  0.4567050000000 1.0
C      1  0.4474500000000  0.5310410000000  0.4557830000000 1.0
C      1  0.5165900000000  0.5143550000000  0.5865190000000 1.0
C      1  0.4927920000000  0.4388860000000  0.4938990000000 1.0
C      1  0.4454240000000  0.5694070000000  0.4976140000000 1.0
C      1  0.5117400000000  0.3969720000000  0.4854960000000 1.0
C      1  0.5157470000000  0.4680760000000  0.5782840000000 1.0
C      1  0.5417200000000  0.4667610000000  0.5671880000000 1.0
C      1  0.4906560000000  0.5154510000000  0.5025110000000 1.0
C      1  0.6114200000000  0.4715630000000  0.5060950000000 1.0
C      1  0.4648820000000  0.4548750000000  0.4828790000000 1.0
C      1  0.5033420000000  0.4737820000000  0.4768600000000 1.0
C      1  0.5735330000000  0.5298100000000  0.4783550000000 1.0
C      1  0.5207500000000  0.5246720000000  0.4780780000000 1.0
C      1  0.5143620000000  0.4999810000000  0.5200500000000 1.0
C      1  0.3977650000000  0.4875140000000  0.4907930000000 1.0
C      1  0.5254410000000  0.5690630000000  0.5567930000000 1.0
C      1  0.5891850000000  0.5030170000000  0.4752370000000 1.0
C      1  0.5696350000000  0.5567370000000  0.5819050000000 1.0
C      1  0.4691750000000  0.5130860000000  0.5265580000000 1.0
C      1  0.4969690000000  0.5518250000000  0.4465160000000 1.0
C      1  0.4578640000000  0.3771380000000  0.4238120000000 1.0
C      1  0.4714400000000  0.4449910000000  0.4448220000000 1.0
C      1  0.4155100000000  0.4663600000000  0.5306110000000 1.0
C      1  0.4805890000000  0.4347610000000  0.5495930000000 1.0
C      1  0.5036480000000  0.5791260000000  0.5267990000000 1.0
C      1  0.4773040000000  0.4875810000000  0.5475400000000 1.0
C      1  0.4164380000000  0.4669050000000  0.4870260000000 1.0
C      1  0.5296000000000  0.4642070000000  0.4307180000000 1.0
C      1  0.5648900000000  0.4839540000000  0.5172880000000 1.0
C      1  0.4527700000000  0.4693840000000  0.5625090000000 1.0
C      1  0.4791880000000  0.5892160000000  0.5155850000000 1.0
C      1  0.5211750000000  0.5356410000000  0.5365590000000 1.0
C      1  0.4800230000000  0.4618030000000  0.4224650000000 1.0
C      1  0.5209240000000  0.5672940000000  0.5053210000000 1.0
C      1  0.4811610000000  0.5901480000000  0.4879030000000 1.0
C      1  0.5448550000000  0.4342570000000  0.4813330000000 1.0
C      1  0.4969170000000  0.5549620000000  0.5456150000000 1.0
C      1  0.4352700000000  0.4919740000000  0.5241250000000 1.0
C      1  0.4675410000000  0.5554130000000  0.4438060000000 1.0
C      1  0.5269070000000  0.4948690000000  0.4677090000000 1.0
C      1  0.5189070000000  0.5105080000000  0.4003620000000 1.0
C      1  0.4520760000000  0.5058420000000  0.4980120000000 1.0
C      1  0.5323370000000  0.4105420000000  0.4994570000000 1.0
C      1  0.5628740000000  0.5600150000000  0.4790170000000 1.0
C      1  0.4589310000000  0.5050990000000  0.5941400000000 1.0
C      1  0.5027960000000  0.5205720000000  0.4426450000000 1.0
C      1  0.4560580000000  0.5714020000000  0.5273130000000 1.0
C      1  0.5543890000000  0.4926190000000  0.5678730000000 1.0
C      1  0.5014320000000  0.5649840000000  0.4775570000000 1.0
C      1  0.5930360000000  0.4969200000000  0.4420100000000 1.0
C      1  0.5702760000000  0.5095170000000  0.5229660000000 1.0
C      1  0.5300510000000  0.5354340000000  0.5050930000000 1.0
C      1  0.5843320000000  0.4612350000000  0.5141410000000 1.0
C      1  0.5715150000000  0.4364820000000  0.4961330000000 1.0
C      1  0.5467080000000  0.5285480000000  0.4591360000000 1.0
C      1  0.4921270000000  0.5301290000000  0.5761880000000 1.0
C      1  0.4957050000000  0.4762020000000  0.5075610000000 1.0
C      1  0.5409010000000  0.5175600000000  0.5733020000000 1.0
C      1  0.4165040000000  0.4425550000000  0.5070440000000 1.0
C      1  0.4097290000000  0.5067550000000  0.5072110000000 1.0
C      1  0.4905980000000  0.5109450000000  0.4703530000000 1.0
C      1  0.4915240000000  0.4142880000000  0.4759630000000 1.0
C      1  0.5072600000000  0.4889980000000  0.5950920000000 1.0
C      1  0.4801070000000  0.4902280000000  0.6045810000000 1.0
C      1  0.4477870000000  0.4316430000000  0.5012170000000 1.0
C      1  0.5352530000000  0.4163660000000  0.5262450000000 1.0
C      1  0.4226650000000  0.5401260000000  0.5357260000000 1.0
C      1  0.4429770000000  0.4772210000000  0.4853650000000 1.0
C      1  0.4944240000000  0.5088050000000  0.4147200000000 1.0
C      1  0.5244360000000  0.4496410000000  0.5003810000000 1.0
C      1  0.4476580000000  0.4933140000000  0.4028240000000 1.0
C      1  0.4356030000000  0.4320700000000  0.5331470000000 1.0
C      1  0.4657190000000  0.3973090000000  0.4385850000000 1.0
C      1  0.4764550000000  0.4750210000000  0.4599480000000 1.0
C      1  0.4694440000000  0.4905400000000  0.4203530000000 1.0
C      1  0.4640020000000  0.5045770000000  0.4509730000000 1.0
C      1  0.5536390000000  0.4558920000000  0.4185060000000 1.0
C      1  0.5686980000000  0.4371880000000  0.5294590000000 1.0
C      1  0.4524350000000  0.5716720000000  0.5611250000000 1.0
C      1  0.4611920000000  0.5219240000000  0.5646680000000 1.0
C      1  0.5573360000000  0.4915890000000  0.4788240000000 1.0
C      1  0.4454020000000  0.5368050000000  0.4879500000000 1.0
C      1  0.5174170000000  0.5622070000000  0.4278870000000 1.0
C      1  0.4638570000000  0.4741690000000  0.5193390000000 1.0
C      1  0.4179750000000  0.5340290000000  0.5078600000000 1.0
C      1  0.5447350000000  0.5168980000000  0.4211300000000 1.0
C      1  0.5367390000000  0.4802860000000  0.5034710000000 1.0
C      1  0.5049410000000  0.4566660000000  0.4134910000000 1.0
C      1  0.4732540000000  0.4431550000000  0.5197730000000 1.0
C      1  0.5473510000000  0.5572810000000  0.5336410000000 1.0
END
