TITL C-2848497-6229-576 0.000333839575986677 125000 -237.070061751583 0 0 46 (C1) n - 1
REM
REM in /home/bkarasulu/work/CARBON/AIRSS/Generating-Clusters/AIREBO/with-SteepDescent/Only-C1/SD-CG-opt/Try1-1.4A-POS3A/HFTN-CG
REM
REM
REM
REM
REM
REM ./C.cell (11c1c37f851c82e70ff6c80c92926a4b)
REM
REM compiler GCC version 9.2.1 20190827 (Red Hat 9.2.1-1)
REM options -cpp -mtune=generic -march=x86-64 -g -O0 -fpre-include=/usr/include/finclude/math-vector-fortran.h
REM seed 984465687 2096095529 349824655 -1126923611 -199166516 -304041405 1554926263 704075295 -1028099815 -1272768135 412205109 -241075241 295463351 -1292859644 2125158903 -2018288430 -1900360366 911014932 -2023251126 -1476470892 1256089917 1730172461 1386729177 1777378659 -1623755797 -1771886628 -1251612302 1859651182 670708384 -274657115 227746545 -633686184 -919899941
REM
CELL 1.54180   50.00000   50.00000   50.00000   90.00000   90.00000   90.00000
LATT -1
SFAC C  
C      1  0.4760050000000  0.4412660000000  0.4910420000000 1.0
C      1  0.5335390000000  0.5307330000000  0.5533470000000 1.0
C      1  0.5289190000000  0.4560610000000  0.4494190000000 1.0
C      1  0.4392070000000  0.5193480000000  0.5069490000000 1.0
C      1  0.4683210000000  0.5277130000000  0.4467420000000 1.0
C      1  0.4378950000000  0.4929850000000  0.4942150000000 1.0
C      1  0.4670950000000  0.5502360000000  0.4634140000000 1.0
C      1  0.4182630000000  0.4748370000000  0.5071660000000 1.0
C      1  0.4901100000000  0.5725220000000  0.4688710000000 1.0
C      1  0.4943020000000  0.5371200000000  0.5227940000000 1.0
C      1  0.5060040000000  0.5464980000000  0.4709050000000 1.0
C      1  0.5090020000000  0.4817080000000  0.5038590000000 1.0
C      1  0.5389390000000  0.4835440000000  0.4898440000000 1.0
C      1  0.4262980000000  0.5205320000000  0.5333640000000 1.0
C      1  0.5323980000000  0.5086100000000  0.4462820000000 1.0
C      1  0.5045800000000  0.4392240000000  0.5340160000000 1.0
C      1  0.5701640000000  0.4785420000000  0.5210650000000 1.0
C      1  0.4738710000000  0.5486340000000  0.4961250000000 1.0
C      1  0.4667070000000  0.4809400000000  0.4887060000000 1.0
C      1  0.5260050000000  0.5494220000000  0.5259480000000 1.0
C      1  0.4341790000000  0.4885290000000  0.5337150000000 1.0
C      1  0.5469420000000  0.4848150000000  0.5415460000000 1.0
C      1  0.5426700000000  0.5432320000000  0.5013910000000 1.0
C      1  0.5520350000000  0.5103620000000  0.5590230000000 1.0
C      1  0.5145320000000  0.4338860000000  0.4837430000000 1.0
C      1  0.5338130000000  0.5550440000000  0.4786940000000 1.0
C      1  0.5096560000000  0.5167810000000  0.5413940000000 1.0
C      1  0.4792600000000  0.4612580000000  0.5408110000000 1.0
C      1  0.5753420000000  0.4990150000000  0.5038500000000 1.0
C      1  0.4811270000000  0.4756020000000  0.4439490000000 1.0
C      1  0.4989830000000  0.4504070000000  0.4582010000000 1.0
C      1  0.4808380000000  0.5030030000000  0.4517910000000 1.0
C      1  0.5488180000000  0.5142410000000  0.4951480000000 1.0
C      1  0.4500690000000  0.4678370000000  0.5537050000000 1.0
C      1  0.4730600000000  0.5162290000000  0.5063960000000 1.0
C      1  0.5444090000000  0.4608350000000  0.5133810000000 1.0
C      1  0.5258910000000  0.4386380000000  0.5109110000000 1.0
C      1  0.4656200000000  0.4863610000000  0.5222630000000 1.0
C      1  0.5199850000000  0.4934280000000  0.5297750000000 1.0
C      1  0.5429850000000  0.4727050000000  0.4617040000000 1.0
C      1  0.4913880000000  0.4583590000000  0.5105040000000 1.0
C      1  0.4925150000000  0.5021520000000  0.4823150000000 1.0
C      1  0.5221110000000  0.5170630000000  0.4742650000000 1.0
C      1  0.5087080000000  0.5764140000000  0.5213020000000 1.0
C      1  0.4913530000000  0.5763230000000  0.5006900000000 1.0
C      1  0.4660880000000  0.4570110000000  0.4654600000000 1.0
END
