TITL C-2847944-5688-483 -0.00325906843570299 125000 -846.20975137915 0 0 152 (C1) n - 1
REM
REM in /home/bkarasulu/work/CARBON/AIRSS/Generating-Clusters/AIREBO/with-SteepDescent/Only-C1/SD-CG-opt/Try1-1.4A-POS3A/HFTN-CG
REM
REM
REM
REM
REM
REM ./C.cell (11c1c37f851c82e70ff6c80c92926a4b)
REM
REM compiler GCC version 9.2.1 20190827 (Red Hat 9.2.1-1)
REM options -cpp -mtune=generic -march=x86-64 -g -O0 -fpre-include=/usr/include/finclude/math-vector-fortran.h
REM seed 409447901 -778807656 142443339 -895407295 -334314456 922613987 519496625 -1175087478 -760406739 1876632779 1401046574 1678908748 1135957923 1965519342 1053776879 424057814 -23433258 -682930317 -1597734665 1952248607 -248646878 260640217 -1737533422 -1729779639 1396175551 -820766891 858613389 -151718667 -246435061 -1809062678 261665203 -719172245 -307983750
REM
CELL 1.54180   50.00000   50.00000   50.00000   90.00000   90.00000   90.00000
LATT -1
SFAC C  
C      1  0.4715790000000  0.4563470000000  0.4294560000000 1.0
C      1  0.4180700000000  0.5489200000000  0.4744040000000 1.0
C      1  0.5604740000000  0.5543020000000  0.5030290000000 1.0
C      1  0.5624950000000  0.5405080000000  0.4197870000000 1.0
C      1  0.5348060000000  0.5687760000000  0.5065220000000 1.0
C      1  0.5545580000000  0.5019090000000  0.5909170000000 1.0
C      1  0.5707850000000  0.5306170000000  0.4609530000000 1.0
C      1  0.6053420000000  0.4640270000000  0.4750570000000 1.0
C      1  0.4769370000000  0.5555830000000  0.5048570000000 1.0
C      1  0.5188570000000  0.5627390000000  0.4242460000000 1.0
C      1  0.5131880000000  0.4878250000000  0.4658320000000 1.0
C      1  0.5597480000000  0.5246230000000  0.5153980000000 1.0
C      1  0.5965990000000  0.5036720000000  0.5626260000000 1.0
C      1  0.5128290000000  0.4595170000000  0.5547790000000 1.0
C      1  0.5203400000000  0.5625670000000  0.4583180000000 1.0
C      1  0.4462010000000  0.4714970000000  0.4865220000000 1.0
C      1  0.4113880000000  0.4396950000000  0.5071010000000 1.0
C      1  0.4429090000000  0.4331080000000  0.5439200000000 1.0
C      1  0.5265790000000  0.6070960000000  0.5006360000000 1.0
C      1  0.4506950000000  0.4879590000000  0.4417010000000 1.0
C      1  0.5233760000000  0.5023930000000  0.4067060000000 1.0
C      1  0.3981510000000  0.4863710000000  0.5137520000000 1.0
C      1  0.5054480000000  0.5680420000000  0.5335790000000 1.0
C      1  0.4700600000000  0.5491070000000  0.4250500000000 1.0
C      1  0.4874120000000  0.5570770000000  0.5733810000000 1.0
C      1  0.5368190000000  0.4780350000000  0.5807200000000 1.0
C      1  0.4097000000000  0.4668980000000  0.4462620000000 1.0
C      1  0.4683590000000  0.4039600000000  0.5134990000000 1.0
C      1  0.4970090000000  0.4952220000000  0.5228440000000 1.0
C      1  0.5089700000000  0.5018850000000  0.5513220000000 1.0
C      1  0.3946580000000  0.4620890000000  0.4917610000000 1.0
C      1  0.5456130000000  0.5150940000000  0.5427710000000 1.0
C      1  0.4422870000000  0.4480930000000  0.4155870000000 1.0
C      1  0.5174740000000  0.5908760000000  0.5557190000000 1.0
C      1  0.5004630000000  0.4954630000000  0.4386970000000 1.0
C      1  0.5149030000000  0.4078500000000  0.4927420000000 1.0
C      1  0.4227400000000  0.4903890000000  0.5651910000000 1.0
C      1  0.5435630000000  0.4595450000000  0.4335040000000 1.0
C      1  0.4708320000000  0.4155140000000  0.4641760000000 1.0
C      1  0.5062140000000  0.5377320000000  0.4123810000000 1.0
C      1  0.5122430000000  0.5257960000000  0.5719470000000 1.0
C      1  0.5472980000000  0.4868110000000  0.4670630000000 1.0
C      1  0.5125890000000  0.5671470000000  0.5729250000000 1.0
C      1  0.4730850000000  0.5655990000000  0.5371340000000 1.0
C      1  0.5210960000000  0.4496090000000  0.4955710000000 1.0
C      1  0.5503110000000  0.5786270000000  0.4582580000000 1.0
C      1  0.4379560000000  0.4256470000000  0.4642320000000 1.0
C      1  0.5200010000000  0.4716410000000  0.4136310000000 1.0
C      1  0.6026250000000  0.5202220000000  0.4976990000000 1.0
C      1  0.5454700000000  0.4460210000000  0.5733480000000 1.0
C      1  0.5847440000000  0.4527470000000  0.4891990000000 1.0
C      1  0.4545810000000  0.4621790000000  0.5840370000000 1.0
C      1  0.5039980000000  0.5935500000000  0.5110290000000 1.0
C      1  0.4444760000000  0.5468570000000  0.4957450000000 1.0
C      1  0.4782060000000  0.5775240000000  0.4299500000000 1.0
C      1  0.4875420000000  0.4575510000000  0.5156370000000 1.0
C      1  0.5423570000000  0.5610610000000  0.5469510000000 1.0
C      1  0.5177970000000  0.5317450000000  0.5025100000000 1.0
C      1  0.6011630000000  0.4960600000000  0.4730660000000 1.0
C      1  0.4990660000000  0.4445640000000  0.5891920000000 1.0
C      1  0.5395910000000  0.5346790000000  0.4571890000000 1.0
C      1  0.5259300000000  0.4250720000000  0.4448240000000 1.0
C      1  0.5067580000000  0.4715990000000  0.5944980000000 1.0
C      1  0.5308550000000  0.4074540000000  0.5230590000000 1.0
C      1  0.5708990000000  0.4702090000000  0.4225700000000 1.0
C      1  0.4800180000000  0.5223380000000  0.5113230000000 1.0
C      1  0.4977790000000  0.4590420000000  0.4726790000000 1.0
C      1  0.4301930000000  0.5642510000000  0.5461220000000 1.0
C      1  0.4987270000000  0.4297780000000  0.5117960000000 1.0
C      1  0.4209570000000  0.5296110000000  0.4489600000000 1.0
C      1  0.4160060000000  0.4820800000000  0.4744180000000 1.0
C      1  0.4889260000000  0.5227200000000  0.4352580000000 1.0
C      1  0.5466930000000  0.4294970000000  0.5032690000000 1.0
C      1  0.5771380000000  0.5249640000000  0.5511140000000 1.0
C      1  0.4379980000000  0.5788010000000  0.5054430000000 1.0
C      1  0.4160230000000  0.4447000000000  0.5356530000000 1.0
C      1  0.4422840000000  0.5295770000000  0.4224790000000 1.0
C      1  0.4083130000000  0.5110100000000  0.4716770000000 1.0
C      1  0.5596760000000  0.5263020000000  0.5784290000000 1.0
C      1  0.4854840000000  0.4127490000000  0.5382160000000 1.0
C      1  0.4254210000000  0.5426290000000  0.5238040000000 1.0
C      1  0.4721590000000  0.4377780000000  0.5848440000000 1.0
C      1  0.4552530000000  0.4859410000000  0.5402610000000 1.0
C      1  0.4596730000000  0.5196930000000  0.4499760000000 1.0
C      1  0.4765470000000  0.4983940000000  0.3953600000000 1.0
C      1  0.4306310000000  0.5169900000000  0.5455270000000 1.0
C      1  0.4170370000000  0.4747330000000  0.5381870000000 1.0
C      1  0.5669490000000  0.4330110000000  0.4824610000000 1.0
C      1  0.5032150000000  0.4261780000000  0.4665360000000 1.0
C      1  0.5588250000000  0.4220680000000  0.5328620000000 1.0
C      1  0.5911230000000  0.4798260000000  0.5576360000000 1.0
C      1  0.5815100000000  0.5204010000000  0.4137870000000 1.0
C      1  0.4825390000000  0.4009820000000  0.4894180000000 1.0
C      1  0.5904300000000  0.5371170000000  0.5230610000000 1.0
C      1  0.5231560000000  0.4379930000000  0.4173840000000 1.0
C      1  0.4688910000000  0.5054800000000  0.4769750000000 1.0
C      1  0.4898330000000  0.5223340000000  0.5952100000000 1.0
C      1  0.5347670000000  0.5261260000000  0.4266870000000 1.0
C      1  0.5004080000000  0.5095510000000  0.4858450000000 1.0
C      1  0.5366130000000  0.4825590000000  0.5469950000000 1.0
C      1  0.4867080000000  0.4906600000000  0.6004160000000 1.0
C      1  0.5527280000000  0.5901060000000  0.4870320000000 1.0
C      1  0.5426890000000  0.5205950000000  0.4873850000000 1.0
C      1  0.5494000000000  0.4894950000000  0.4993870000000 1.0
C      1  0.4492350000000  0.5135350000000  0.5005990000000 1.0
C      1  0.5395270000000  0.5886840000000  0.5336780000000 1.0
C      1  0.5615950000000  0.4429270000000  0.5507870000000 1.0
C      1  0.4574430000000  0.5739370000000  0.4537180000000 1.0
C      1  0.4687940000000  0.4676790000000  0.4613930000000 1.0
C      1  0.4795610000000  0.5264710000000  0.5626800000000 1.0
C      1  0.4092380000000  0.4437310000000  0.4664350000000 1.0
C      1  0.4810080000000  0.5877230000000  0.4945060000000 1.0
C      1  0.4307360000000  0.4718920000000  0.4287530000000 1.0
C      1  0.5790600000000  0.4956140000000  0.4279180000000 1.0
C      1  0.4591380000000  0.4589210000000  0.5536270000000 1.0
C      1  0.5012350000000  0.5888390000000  0.4488650000000 1.0
C      1  0.5730160000000  0.4737550000000  0.5108790000000 1.0
C      1  0.4378770000000  0.4879480000000  0.5147940000000 1.0
C      1  0.5951420000000  0.5652370000000  0.5195880000000 1.0
C      1  0.4879480000000  0.4767850000000  0.4159790000000 1.0
C      1  0.5367950000000  0.5448640000000  0.5743570000000 1.0
C      1  0.4643270000000  0.5163140000000  0.5408880000000 1.0
C      1  0.5072710000000  0.5581070000000  0.4896480000000 1.0
C      1  0.4564110000000  0.5484540000000  0.4640810000000 1.0
C      1  0.4535510000000  0.5875360000000  0.5235260000000 1.0
C      1  0.4083520000000  0.5300860000000  0.4981160000000 1.0
C      1  0.5481930000000  0.5660450000000  0.4298750000000 1.0
C      1  0.4588910000000  0.5096220000000  0.5931900000000 1.0
C      1  0.5137700000000  0.4086070000000  0.5483270000000 1.0
C      1  0.4875540000000  0.4618710000000  0.5432300000000 1.0
C      1  0.4775310000000  0.5921050000000  0.4671600000000 1.0
C      1  0.5382440000000  0.4560180000000  0.4669030000000 1.0
C      1  0.4998440000000  0.5139420000000  0.3906050000000 1.0
C      1  0.4002070000000  0.5102720000000  0.5318680000000 1.0
C      1  0.4757580000000  0.4814960000000  0.5000760000000 1.0
C      1  0.5245080000000  0.5394020000000  0.5313990000000 1.0
C      1  0.5248820000000  0.4774530000000  0.5148770000000 1.0
C      1  0.4664370000000  0.4206690000000  0.5623590000000 1.0
C      1  0.5675480000000  0.4701540000000  0.5400580000000 1.0
C      1  0.5189150000000  0.4306140000000  0.5690530000000 1.0
C      1  0.4417110000000  0.5311750000000  0.5743810000000 1.0
C      1  0.5845630000000  0.5435510000000  0.4840270000000 1.0
C      1  0.5836560000000  0.5769080000000  0.4926550000000 1.0
C      1  0.5755420000000  0.5011550000000  0.4570210000000 1.0
C      1  0.4392410000000  0.4398410000000  0.4922020000000 1.0
C      1  0.4522070000000  0.5106240000000  0.3984290000000 1.0
C      1  0.4568040000000  0.4271090000000  0.4369960000000 1.0
C      1  0.5991040000000  0.4889230000000  0.5055510000000 1.0
C      1  0.4401810000000  0.4854560000000  0.5869350000000 1.0
C      1  0.4458510000000  0.4206410000000  0.5154540000000 1.0
C      1  0.5538880000000  0.4278400000000  0.4560720000000 1.0
C      1  0.4559260000000  0.5585180000000  0.5656360000000 1.0
END
