TITL C-2848500-1637-206 0.00056146441061268 125000 -95.6726918450998 0 0 18 (C1) n - 1
REM
REM in /home/bkarasulu/work/CARBON/AIRSS/Generating-Clusters/AIREBO/with-SteepDescent/Only-C1/SD-CG-opt/Try1-1.4A-POS3A/HFTN-CG
REM
REM
REM
REM
REM
REM ./C.cell (11c1c37f851c82e70ff6c80c92926a4b)
REM
REM compiler GCC version 9.2.1 20190827 (Red Hat 9.2.1-1)
REM options -cpp -mtune=generic -march=x86-64 -g -O0 -fpre-include=/usr/include/finclude/math-vector-fortran.h
REM seed 332371068 590813970 1657950788 -1124520744 -990676913 -1685223345 1969013656 -1874889752 -2145756138 -787610723 23121451 -1844012787 1254415730 -45286543 -249415642 -356765023 1162374777 -2001439372 878249299 -1852009921 -407501949 1857250316 -1729456285 -408152307 103352101 229963308 1342763406 962172947 -736622229 -255687938 -955974556 710018929 -1781833842
REM
CELL 1.54180   50.00000   50.00000   50.00000   90.00000   90.00000   90.00000
LATT -1
SFAC C  
C      1  0.5136650000000  0.5281340000000  0.4645490000000 1.0
C      1  0.4574560000000  0.5158800000000  0.5093050000000 1.0
C      1  0.5310590000000  0.4687740000000  0.5039220000000 1.0
C      1  0.4449860000000  0.5436340000000  0.5016990000000 1.0
C      1  0.5724010000000  0.4866150000000  0.4786120000000 1.0
C      1  0.5550830000000  0.4706230000000  0.4921900000000 1.0
C      1  0.4436300000000  0.4599100000000  0.5555160000000 1.0
C      1  0.4595000000000  0.5252410000000  0.4770130000000 1.0
C      1  0.5083050000000  0.4674120000000  0.5178090000000 1.0
C      1  0.4878620000000  0.5324820000000  0.4686830000000 1.0
C      1  0.4631520000000  0.4797430000000  0.5538820000000 1.0
C      1  0.5641140000000  0.5132890000000  0.4625970000000 1.0
C      1  0.4430650000000  0.5146550000000  0.4572790000000 1.0
C      1  0.4703860000000  0.4924780000000  0.5776090000000 1.0
C      1  0.4866760000000  0.4763350000000  0.5307970000000 1.0
C      1  0.4643800000000  0.4976410000000  0.5258040000000 1.0
C      1  0.5952710000000  0.5046680000000  0.4645510000000 1.0
C      1  0.5390070000000  0.5224860000000  0.4581830000000 1.0
END
