TITL C-2847953-8112-229 -0.000921573585551316 125000 -996.554254926153 0 0 183 (C1) n - 1
REM
REM in /home/bkarasulu/work/CARBON/AIRSS/Generating-Clusters/AIREBO/with-SteepDescent/Only-C1/SD-CG-opt/Try1-1.4A-POS3A/HFTN-CG
REM
REM
REM
REM
REM
REM ./C.cell (11c1c37f851c82e70ff6c80c92926a4b)
REM
REM compiler GCC version 9.2.1 20190827 (Red Hat 9.2.1-1)
REM options -cpp -mtune=generic -march=x86-64 -g -O0 -fpre-include=/usr/include/finclude/math-vector-fortran.h
REM seed 816433793 1682891248 410755502 2084895230 -1463094698 -508305790 1663208428 1721568526 186418081 247189430 1758594370 -1742689591 -1882658031 -2135120100 1537642237 257399191 2136952636 2080454974 -2057403706 34882915 -344613588 1842457688 -626525839 -1999664165 1370173262 819303189 1761732063 -41384110 -612944941 -1662131861 82750455 -1060119878 940145821
REM
CELL 1.54180   50.00000   50.00000   50.00000   90.00000   90.00000   90.00000
LATT -1
SFAC C  
C      1  0.4443720000000  0.4599280000000  0.5162510000000 1.0
C      1  0.5960390000000  0.4860490000000  0.4875130000000 1.0
C      1  0.5104990000000  0.4491320000000  0.3943670000000 1.0
C      1  0.5735610000000  0.4110220000000  0.4765720000000 1.0
C      1  0.4140690000000  0.5084900000000  0.4333800000000 1.0
C      1  0.4447300000000  0.5007050000000  0.5627750000000 1.0
C      1  0.5383400000000  0.5482390000000  0.5883880000000 1.0
C      1  0.5770830000000  0.5369430000000  0.4266260000000 1.0
C      1  0.5471550000000  0.4754200000000  0.4917190000000 1.0
C      1  0.4869390000000  0.5655490000000  0.5296040000000 1.0
C      1  0.5026550000000  0.5400020000000  0.3974280000000 1.0
C      1  0.5355900000000  0.4635690000000  0.5909980000000 1.0
C      1  0.4884300000000  0.5899190000000  0.5532800000000 1.0
C      1  0.5110940000000  0.5243500000000  0.4439870000000 1.0
C      1  0.5039370000000  0.5911190000000  0.4624810000000 1.0
C      1  0.5084130000000  0.4208140000000  0.4629970000000 1.0
C      1  0.4532020000000  0.4624870000000  0.4414840000000 1.0
C      1  0.5523590000000  0.4738580000000  0.5253080000000 1.0
C      1  0.4371660000000  0.4819240000000  0.5864240000000 1.0
C      1  0.5383680000000  0.6105440000000  0.4914890000000 1.0
C      1  0.4948820000000  0.4751410000000  0.4775200000000 1.0
C      1  0.5489380000000  0.5736310000000  0.4187120000000 1.0
C      1  0.5505930000000  0.3945500000000  0.5200620000000 1.0
C      1  0.5419760000000  0.4280330000000  0.5579110000000 1.0
C      1  0.4866600000000  0.4731340000000  0.5941420000000 1.0
C      1  0.4308030000000  0.4149540000000  0.5170990000000 1.0
C      1  0.5473230000000  0.5069000000000  0.5327980000000 1.0
C      1  0.5312260000000  0.5611980000000  0.4448560000000 1.0
C      1  0.5765820000000  0.5524530000000  0.5485230000000 1.0
C      1  0.5422040000000  0.4623990000000  0.4606860000000 1.0
C      1  0.5252770000000  0.5983030000000  0.5649910000000 1.0
C      1  0.4506980000000  0.4294480000000  0.5413690000000 1.0
C      1  0.5384950000000  0.4546340000000  0.3980000000000 1.0
C      1  0.4616310000000  0.5918110000000  0.4896150000000 1.0
C      1  0.5224890000000  0.5825150000000  0.5338510000000 1.0
C      1  0.5284440000000  0.4040760000000  0.5439800000000 1.0
C      1  0.4222090000000  0.5172420000000  0.4012140000000 1.0
C      1  0.3957130000000  0.4964640000000  0.5098790000000 1.0
C      1  0.3918210000000  0.5370330000000  0.4677850000000 1.0
C      1  0.5950760000000  0.5364370000000  0.5368180000000 1.0
C      1  0.5054110000000  0.4710420000000  0.5658320000000 1.0
C      1  0.5125770000000  0.4969980000000  0.4238440000000 1.0
C      1  0.4699530000000  0.4501460000000  0.4960870000000 1.0
C      1  0.5897370000000  0.5126290000000  0.5770120000000 1.0
C      1  0.5866260000000  0.4390010000000  0.4650790000000 1.0
C      1  0.5059280000000  0.5165470000000  0.3812460000000 1.0
C      1  0.5793950000000  0.5138290000000  0.4877730000000 1.0
C      1  0.5218420000000  0.4432570000000  0.4412690000000 1.0
C      1  0.5262400000000  0.4385990000000  0.5824910000000 1.0
C      1  0.4403730000000  0.5129520000000  0.5250930000000 1.0
C      1  0.4454030000000  0.5458540000000  0.5191550000000 1.0
C      1  0.4665230000000  0.5171570000000  0.6091170000000 1.0
C      1  0.5622270000000  0.5630690000000  0.5759370000000 1.0
C      1  0.5024650000000  0.5831400000000  0.5837880000000 1.0
C      1  0.5393720000000  0.5340790000000  0.5139300000000 1.0
C      1  0.4927440000000  0.4604840000000  0.4469130000000 1.0
C      1  0.5889680000000  0.5636240000000  0.4941560000000 1.0
C      1  0.4327440000000  0.5284390000000  0.5526690000000 1.0
C      1  0.6170550000000  0.4879120000000  0.4684040000000 1.0
C      1  0.5194320000000  0.4035380000000  0.5117340000000 1.0
C      1  0.4691980000000  0.5389450000000  0.5837210000000 1.0
C      1  0.3964940000000  0.5126560000000  0.4568060000000 1.0
C      1  0.4996870000000  0.4157970000000  0.5509890000000 1.0
C      1  0.5182960000000  0.5451180000000  0.4699980000000 1.0
C      1  0.5602270000000  0.5047610000000  0.5801350000000 1.0
C      1  0.4500010000000  0.5691820000000  0.4714440000000 1.0
C      1  0.5501590000000  0.5269850000000  0.4364560000000 1.0
C      1  0.4262510000000  0.4885380000000  0.5194020000000 1.0
C      1  0.4732550000000  0.5470410000000  0.4741530000000 1.0
C      1  0.4279410000000  0.5599260000000  0.4935940000000 1.0
C      1  0.4578290000000  0.5558280000000  0.4239590000000 1.0
C      1  0.5161780000000  0.6087950000000  0.5132220000000 1.0
C      1  0.5671690000000  0.4399860000000  0.5442670000000 1.0
C      1  0.5114400000000  0.4839910000000  0.5058700000000 1.0
C      1  0.4278510000000  0.5816420000000  0.5160460000000 1.0
C      1  0.4561210000000  0.4855260000000  0.4089430000000 1.0
C      1  0.4897060000000  0.6003900000000  0.5011390000000 1.0
C      1  0.5626470000000  0.5436670000000  0.4910470000000 1.0
C      1  0.5598950000000  0.4160220000000  0.4461920000000 1.0
C      1  0.4280340000000  0.4805350000000  0.4274530000000 1.0
C      1  0.5760920000000  0.5651250000000  0.4270830000000 1.0
C      1  0.4990790000000  0.4289010000000  0.5798820000000 1.0
C      1  0.4035080000000  0.5342950000000  0.5423330000000 1.0
C      1  0.5325990000000  0.4594710000000  0.5489720000000 1.0
C      1  0.5037980000000  0.5068060000000  0.4712830000000 1.0
C      1  0.5186970000000  0.5074180000000  0.6028650000000 1.0
C      1  0.5297830000000  0.4908880000000  0.4592120000000 1.0
C      1  0.4619340000000  0.4706870000000  0.4702060000000 1.0
C      1  0.5115530000000  0.5598580000000  0.6001690000000 1.0
C      1  0.6258620000000  0.5303650000000  0.4994820000000 1.0
C      1  0.5447750000000  0.5505980000000  0.5423220000000 1.0
C      1  0.5006810000000  0.4431400000000  0.4874470000000 1.0
C      1  0.5429680000000  0.5206570000000  0.5993660000000 1.0
C      1  0.4468180000000  0.5787590000000  0.5702580000000 1.0
C      1  0.4969880000000  0.5193570000000  0.5838220000000 1.0
C      1  0.5246520000000  0.5420150000000  0.4195230000000 1.0
C      1  0.4766070000000  0.4448650000000  0.5860190000000 1.0
C      1  0.4237110000000  0.4498420000000  0.4420210000000 1.0
C      1  0.3922490000000  0.4699330000000  0.5282790000000 1.0
C      1  0.4701290000000  0.4906820000000  0.5496550000000 1.0
C      1  0.4744570000000  0.4061110000000  0.5382820000000 1.0
C      1  0.4051810000000  0.4799270000000  0.5806040000000 1.0
C      1  0.5984270000000  0.5349910000000  0.5064020000000 1.0
C      1  0.5407660000000  0.4194090000000  0.4733570000000 1.0
C      1  0.4954750000000  0.4467550000000  0.5443460000000 1.0
C      1  0.5191060000000  0.3684520000000  0.4720870000000 1.0
C      1  0.4821460000000  0.4877570000000  0.4307150000000 1.0
C      1  0.6097530000000  0.4940410000000  0.4423580000000 1.0
C      1  0.5031220000000  0.3878670000000  0.4925800000000 1.0
C      1  0.5073000000000  0.4282730000000  0.4144300000000 1.0
C      1  0.5712750000000  0.4679980000000  0.5535090000000 1.0
C      1  0.5338330000000  0.5119200000000  0.5597460000000 1.0
C      1  0.4607390000000  0.5756260000000  0.4426200000000 1.0
C      1  0.4522470000000  0.4132370000000  0.4670490000000 1.0
C      1  0.4886040000000  0.5491510000000  0.5580430000000 1.0
C      1  0.4823750000000  0.5943010000000  0.4442140000000 1.0
C      1  0.5194400000000  0.5427150000000  0.5609390000000 1.0
C      1  0.4938090000000  0.5371210000000  0.6127500000000 1.0
C      1  0.4948750000000  0.5698040000000  0.4872090000000 1.0
C      1  0.5492300000000  0.4373930000000  0.4219900000000 1.0
C      1  0.5693630000000  0.4616080000000  0.4471490000000 1.0
C      1  0.4701040000000  0.5919290000000  0.5809450000000 1.0
C      1  0.4806780000000  0.4230260000000  0.4213090000000 1.0
C      1  0.4560440000000  0.5169960000000  0.3978290000000 1.0
C      1  0.5523190000000  0.5687020000000  0.4704520000000 1.0
C      1  0.4390060000000  0.5887200000000  0.5444440000000 1.0
C      1  0.5706090000000  0.4119810000000  0.5073500000000 1.0
C      1  0.4775950000000  0.4305190000000  0.4523920000000 1.0
C      1  0.4627380000000  0.4902400000000  0.6032550000000 1.0
C      1  0.4810930000000  0.5344610000000  0.4484070000000 1.0
C      1  0.4330550000000  0.4010960000000  0.4909920000000 1.0
C      1  0.4657990000000  0.4830220000000  0.5183480000000 1.0
C      1  0.6049850000000  0.5175090000000  0.5548420000000 1.0
C      1  0.4755720000000  0.5441810000000  0.4037990000000 1.0
C      1  0.5159800000000  0.4798590000000  0.6033700000000 1.0
C      1  0.4229560000000  0.4297750000000  0.4650830000000 1.0
C      1  0.5978350000000  0.5875340000000  0.4933790000000 1.0
C      1  0.4555400000000  0.5529130000000  0.5509010000000 1.0
C      1  0.5460120000000  0.4945240000000  0.4295460000000 1.0
C      1  0.3997660000000  0.4651730000000  0.5565600000000 1.0
C      1  0.5616410000000  0.4440660000000  0.5117630000000 1.0
C      1  0.5353450000000  0.5058760000000  0.4953590000000 1.0
C      1  0.5022960000000  0.5303380000000  0.4960010000000 1.0
C      1  0.4670960000000  0.4579870000000  0.5495080000000 1.0
C      1  0.5024490000000  0.5093140000000  0.5221670000000 1.0
C      1  0.5795840000000  0.5757910000000  0.4537660000000 1.0
C      1  0.4118980000000  0.4448570000000  0.4896520000000 1.0
C      1  0.5535990000000  0.5118280000000  0.4672450000000 1.0
C      1  0.5789790000000  0.4868370000000  0.4328770000000 1.0
C      1  0.4353920000000  0.5332860000000  0.4276110000000 1.0
C      1  0.4225010000000  0.4771710000000  0.4876780000000 1.0
C      1  0.4788620000000  0.3948800000000  0.4702400000000 1.0
C      1  0.4629460000000  0.4239560000000  0.5115570000000 1.0
C      1  0.5149000000000  0.5576500000000  0.5118830000000 1.0
C      1  0.5821120000000  0.4351880000000  0.4310500000000 1.0
C      1  0.4453490000000  0.4512550000000  0.5742130000000 1.0
C      1  0.3853920000000  0.4609790000000  0.4815790000000 1.0
C      1  0.5158160000000  0.4583380000000  0.5211460000000 1.0
C      1  0.5305040000000  0.4342380000000  0.5021840000000 1.0
C      1  0.5020140000000  0.4933720000000  0.3950200000000 1.0
C      1  0.5321390000000  0.5957580000000  0.4649520000000 1.0
C      1  0.5012440000000  0.5030770000000  0.5556110000000 1.0
C      1  0.5461600000000  0.4806450000000  0.3989820000000 1.0
C      1  0.5052680000000  0.3888950000000  0.4531840000000 1.0
C      1  0.4613770000000  0.5823890000000  0.5216150000000 1.0
C      1  0.5064070000000  0.6168070000000  0.5435950000000 1.0
C      1  0.4648930000000  0.5171210000000  0.4311390000000 1.0
C      1  0.4675290000000  0.4487950000000  0.4182880000000 1.0
C      1  0.4823150000000  0.4681390000000  0.3957980000000 1.0
C      1  0.4182030000000  0.4417970000000  0.5572320000000 1.0
C      1  0.4517650000000  0.4946720000000  0.4895780000000 1.0
C      1  0.3941850000000  0.4916050000000  0.4766270000000 1.0
C      1  0.5837520000000  0.4593690000000  0.4908730000000 1.0
C      1  0.5590350000000  0.4749390000000  0.5784120000000 1.0
C      1  0.4569440000000  0.5281880000000  0.4920460000000 1.0
C      1  0.5393380000000  0.5777980000000  0.4994680000000 1.0
C      1  0.4158450000000  0.4448150000000  0.5234370000000 1.0
C      1  0.4721540000000  0.5150290000000  0.5171910000000 1.0
C      1  0.5943030000000  0.5161200000000  0.4259650000000 1.0
C      1  0.3853940000000  0.5455440000000  0.5595860000000 1.0
C      1  0.3972590000000  0.5271670000000  0.5155150000000 1.0
C      1  0.5508500000000  0.5825780000000  0.5524860000000 1.0
C      1  0.4028370000000  0.5432200000000  0.4928960000000 1.0
END
