TITL C-2848504-8560-583 0.00117707271725674 125000 -819.82270463463 0 0 156 (C1) n - 1
REM
REM in /home/bkarasulu/work/CARBON/AIRSS/Generating-Clusters/AIREBO/with-SteepDescent/Only-C1/SD-CG-opt/Try1-1.4A-POS3A/HFTN-CG
REM
REM
REM
REM
REM
REM ./C.cell (11c1c37f851c82e70ff6c80c92926a4b)
REM
REM compiler GCC version 9.2.1 20190827 (Red Hat 9.2.1-1)
REM options -cpp -mtune=generic -march=x86-64 -g -O0 -fpre-include=/usr/include/finclude/math-vector-fortran.h
REM seed -457296895 -1145345276 -946462240 -192057562 -1845501588 -1021609690 1671832598 467148972 82420157 -2121103986 -1931646583 -325983711 -1029415142 1691482131 -934164702 -1556363197 1085376185 -1990691049 -368163559 1577337136 1289223613 1474667637 -687733153 943491626 -1824805426 -694310448 -577589403 1308808593 884116486 -1163609475 1789657343 -96517112 1257508149
REM
CELL 1.54180   50.00000   50.00000   50.00000   90.00000   90.00000   90.00000
LATT -1
SFAC C  
C      1  0.5242940000000  0.5809490000000  0.4838400000000 1.0
C      1  0.5815130000000  0.5078510000000  0.5135330000000 1.0
C      1  0.5701140000000  0.4781070000000  0.5576020000000 1.0
C      1  0.6029380000000  0.5077550000000  0.4415820000000 1.0
C      1  0.5737910000000  0.5175300000000  0.4331450000000 1.0
C      1  0.5580930000000  0.4450320000000  0.6161050000000 1.0
C      1  0.4986240000000  0.3954790000000  0.5526370000000 1.0
C      1  0.4148430000000  0.4886670000000  0.5384520000000 1.0
C      1  0.4924950000000  0.5727480000000  0.4749980000000 1.0
C      1  0.4942070000000  0.5108190000000  0.5704850000000 1.0
C      1  0.4466930000000  0.4995420000000  0.4880720000000 1.0
C      1  0.5325820000000  0.4335780000000  0.4921170000000 1.0
C      1  0.4599000000000  0.5782600000000  0.4831800000000 1.0
C      1  0.5154350000000  0.4101690000000  0.5099490000000 1.0
C      1  0.5261860000000  0.4994510000000  0.4111750000000 1.0
C      1  0.4691090000000  0.5283650000000  0.5039110000000 1.0
C      1  0.5159130000000  0.4946330000000  0.5563830000000 1.0
C      1  0.4490770000000  0.4929290000000  0.5185690000000 1.0
C      1  0.4221940000000  0.4586640000000  0.4492050000000 1.0
C      1  0.4564140000000  0.4640010000000  0.5079840000000 1.0
C      1  0.4764900000000  0.5073770000000  0.5296520000000 1.0
C      1  0.4753570000000  0.5986420000000  0.4615410000000 1.0
C      1  0.4983470000000  0.5352300000000  0.4873930000000 1.0
C      1  0.5607190000000  0.4617530000000  0.4906820000000 1.0
C      1  0.4624840000000  0.4604130000000  0.4760710000000 1.0
C      1  0.4144430000000  0.4963370000000  0.4838580000000 1.0
C      1  0.3872950000000  0.5166380000000  0.4874240000000 1.0
C      1  0.5813860000000  0.5247170000000  0.5613300000000 1.0
C      1  0.4944860000000  0.5911110000000  0.5348440000000 1.0
C      1  0.5229880000000  0.4587360000000  0.4712560000000 1.0
C      1  0.4162060000000  0.4494070000000  0.4775560000000 1.0
C      1  0.4947060000000  0.5338830000000  0.3973050000000 1.0
C      1  0.4642100000000  0.5137620000000  0.5985550000000 1.0
C      1  0.5160360000000  0.5542990000000  0.5914570000000 1.0
C      1  0.4611150000000  0.5127450000000  0.4247530000000 1.0
C      1  0.5011980000000  0.5490980000000  0.5140610000000 1.0
C      1  0.3775950000000  0.4580420000000  0.5320790000000 1.0
C      1  0.5802460000000  0.5641720000000  0.4923880000000 1.0
C      1  0.4641490000000  0.4985410000000  0.5603660000000 1.0
C      1  0.4654440000000  0.4895210000000  0.4048970000000 1.0
C      1  0.5418220000000  0.4097940000000  0.5522110000000 1.0
C      1  0.4223380000000  0.5415110000000  0.5301810000000 1.0
C      1  0.5450930000000  0.4387790000000  0.5615980000000 1.0
C      1  0.5053990000000  0.5984320000000  0.4351860000000 1.0
C      1  0.4111360000000  0.5387830000000  0.4789170000000 1.0
C      1  0.5167430000000  0.6037560000000  0.4597730000000 1.0
C      1  0.4436760000000  0.4749870000000  0.5468540000000 1.0
C      1  0.5209850000000  0.4003390000000  0.4716030000000 1.0
C      1  0.4918260000000  0.4666330000000  0.4600270000000 1.0
C      1  0.4930630000000  0.4001580000000  0.4521990000000 1.0
C      1  0.5559040000000  0.5882660000000  0.4942830000000 1.0
C      1  0.5474330000000  0.4756160000000  0.4179230000000 1.0
C      1  0.5204770000000  0.4018620000000  0.5380700000000 1.0
C      1  0.4914460000000  0.4218040000000  0.4303910000000 1.0
C      1  0.5157320000000  0.5006880000000  0.5258600000000 1.0
C      1  0.5396940000000  0.4766500000000  0.5727390000000 1.0
C      1  0.5480200000000  0.5023570000000  0.5159320000000 1.0
C      1  0.5712940000000  0.5761490000000  0.5220800000000 1.0
C      1  0.4567250000000  0.4452270000000  0.5363340000000 1.0
C      1  0.4754150000000  0.5825280000000  0.4330830000000 1.0
C      1  0.4466130000000  0.4279470000000  0.5659050000000 1.0
C      1  0.5613530000000  0.4382170000000  0.5096380000000 1.0
C      1  0.4218900000000  0.5673460000000  0.5151750000000 1.0
C      1  0.4747910000000  0.3815430000000  0.4696730000000 1.0
C      1  0.5852800000000  0.4991280000000  0.5461990000000 1.0
C      1  0.4880930000000  0.4469020000000  0.5493640000000 1.0
C      1  0.4534580000000  0.4658520000000  0.4164900000000 1.0
C      1  0.4422370000000  0.5313860000000  0.4832920000000 1.0
C      1  0.5111180000000  0.5138390000000  0.4457300000000 1.0
C      1  0.5722970000000  0.5477080000000  0.5407220000000 1.0
C      1  0.4851700000000  0.4230120000000  0.5017200000000 1.0
C      1  0.5569490000000  0.5130010000000  0.4623660000000 1.0
C      1  0.3984200000000  0.4717840000000  0.5218610000000 1.0
C      1  0.4508780000000  0.4057300000000  0.5361110000000 1.0
C      1  0.5505670000000  0.5412300000000  0.5831670000000 1.0
C      1  0.4381140000000  0.4307670000000  0.4872250000000 1.0
C      1  0.5744900000000  0.4325570000000  0.4578890000000 1.0
C      1  0.5589500000000  0.5050090000000  0.4117820000000 1.0
C      1  0.4059410000000  0.4697040000000  0.4944650000000 1.0
C      1  0.4997690000000  0.4572710000000  0.4139030000000 1.0
C      1  0.4699020000000  0.4373840000000  0.5873980000000 1.0
C      1  0.4917090000000  0.4847980000000  0.3972030000000 1.0
C      1  0.4068530000000  0.5656490000000  0.4924180000000 1.0
C      1  0.4997250000000  0.4770090000000  0.5074420000000 1.0
C      1  0.5750380000000  0.4594780000000  0.4671230000000 1.0
C      1  0.5516460000000  0.4516100000000  0.5923960000000 1.0
C      1  0.4420840000000  0.5370350000000  0.4359460000000 1.0
C      1  0.4879410000000  0.5455150000000  0.4583270000000 1.0
C      1  0.4950280000000  0.3922570000000  0.4910860000000 1.0
C      1  0.4546590000000  0.5461560000000  0.5259490000000 1.0
C      1  0.5299490000000  0.5261020000000  0.4787030000000 1.0
C      1  0.4205650000000  0.4264570000000  0.5747360000000 1.0
C      1  0.6025790000000  0.4811640000000  0.5128610000000 1.0
C      1  0.5335470000000  0.5601510000000  0.5634580000000 1.0
C      1  0.5063190000000  0.5097650000000  0.3911430000000 1.0
C      1  0.4687360000000  0.4875570000000  0.4463300000000 1.0
C      1  0.4031100000000  0.5139000000000  0.4573020000000 1.0
C      1  0.5079020000000  0.4299400000000  0.4611750000000 1.0
C      1  0.4181770000000  0.5169450000000  0.5451980000000 1.0
C      1  0.4750280000000  0.4494740000000  0.4359360000000 1.0
C      1  0.6069520000000  0.5109510000000  0.4668510000000 1.0
C      1  0.4360450000000  0.4839940000000  0.4367160000000 1.0
C      1  0.4483680000000  0.4395360000000  0.4559680000000 1.0
C      1  0.5519690000000  0.5206860000000  0.5443430000000 1.0
C      1  0.5125340000000  0.4970900000000  0.4753860000000 1.0
C      1  0.4493180000000  0.5831310000000  0.5117970000000 1.0
C      1  0.4815250000000  0.5385130000000  0.4279950000000 1.0
C      1  0.5476030000000  0.5092500000000  0.5757800000000 1.0
C      1  0.4632930000000  0.5406640000000  0.5878420000000 1.0
C      1  0.4761790000000  0.4154970000000  0.5546380000000 1.0
C      1  0.5207830000000  0.5558680000000  0.4183410000000 1.0
C      1  0.5147190000000  0.4538030000000  0.5693570000000 1.0
C      1  0.5381640000000  0.5343750000000  0.5100670000000 1.0
C      1  0.5660940000000  0.4827260000000  0.4507910000000 1.0
C      1  0.4837410000000  0.4745910000000  0.5350840000000 1.0
C      1  0.5374090000000  0.5119190000000  0.6066800000000 1.0
C      1  0.5886000000000  0.5411070000000  0.5143960000000 1.0
C      1  0.4862680000000  0.4593560000000  0.5871990000000 1.0
C      1  0.5091810000000  0.4818370000000  0.4344040000000 1.0
C      1  0.5377370000000  0.5553360000000  0.4664100000000 1.0
C      1  0.5233020000000  0.4565260000000  0.5151310000000 1.0
C      1  0.4555340000000  0.4233280000000  0.5103300000000 1.0
C      1  0.4229470000000  0.5111340000000  0.4361470000000 1.0
C      1  0.4629980000000  0.5720300000000  0.5745470000000 1.0
C      1  0.4527050000000  0.5745540000000  0.5445440000000 1.0
C      1  0.5545510000000  0.5804950000000  0.5490760000000 1.0
C      1  0.5230670000000  0.5857550000000  0.4166870000000 1.0
C      1  0.5238750000000  0.5406300000000  0.4415620000000 1.0
C      1  0.4457130000000  0.5566620000000  0.4638040000000 1.0
C      1  0.4389230000000  0.5190380000000  0.5652670000000 1.0
C      1  0.4463150000000  0.5701740000000  0.4326040000000 1.0
C      1  0.5407680000000  0.4313990000000  0.4359450000000 1.0
C      1  0.5015990000000  0.5291860000000  0.5357930000000 1.0
C      1  0.5981890000000  0.4599310000000  0.5261710000000 1.0
C      1  0.5422440000000  0.4606020000000  0.4444070000000 1.0
C      1  0.5134290000000  0.5773730000000  0.5156230000000 1.0
C      1  0.4896060000000  0.5654570000000  0.4087490000000 1.0
C      1  0.5209610000000  0.5303840000000  0.6112810000000 1.0
C      1  0.5685170000000  0.4507210000000  0.5399930000000 1.0
C      1  0.4902330000000  0.5769770000000  0.5578460000000 1.0
C      1  0.5687080000000  0.5508000000000  0.4679030000000 1.0
C      1  0.5097910000000  0.5787470000000  0.6056410000000 1.0
C      1  0.5186600000000  0.4297280000000  0.4164860000000 1.0
C      1  0.4891010000000  0.4501000000000  0.4900290000000 1.0
C      1  0.4723490000000  0.4839180000000  0.5899570000000 1.0
C      1  0.5453440000000  0.4703820000000  0.5271770000000 1.0
C      1  0.4803640000000  0.5137890000000  0.4593520000000 1.0
C      1  0.5359070000000  0.5595790000000  0.5297710000000 1.0
C      1  0.5822130000000  0.5193820000000  0.4815480000000 1.0
C      1  0.4961570000000  0.5444280000000  0.5656950000000 1.0
C      1  0.5462270000000  0.4179750000000  0.4651440000000 1.0
C      1  0.4722210000000  0.6028230000000  0.5242790000000 1.0
C      1  0.5780670000000  0.5479180000000  0.4409850000000 1.0
C      1  0.5375200000000  0.4835350000000  0.4895640000000 1.0
C      1  0.4646970000000  0.5379970000000  0.5544850000000 1.0
C      1  0.4803080000000  0.4947640000000  0.4859870000000 1.0
END
