TITL C-2847950-6905-45 0.00214134108227055 125000 -534.330510119489 0 0 100 (C1) n - 1
REM
REM in /home/bkarasulu/work/CARBON/AIRSS/Generating-Clusters/AIREBO/with-SteepDescent/Only-C1/SD-CG-opt/Try1-1.4A-POS3A/HFTN-CG
REM
REM
REM
REM
REM
REM ./C.cell (11c1c37f851c82e70ff6c80c92926a4b)
REM
REM compiler GCC version 9.2.1 20190827 (Red Hat 9.2.1-1)
REM options -cpp -mtune=generic -march=x86-64 -g -O0 -fpre-include=/usr/include/finclude/math-vector-fortran.h
REM seed 2000205518 612011811 935316203 -2115645580 -147679503 -460717220 2063874212 -1987295447 1258485146 1507750632 1363600726 1810705736 -1927811606 -751368236 264155626 -1482331244 -660083844 294762438 -321678907 -2119695686 716489700 2120774346 -1410561783 61157281 -898218162 -1957733083 365019152 -1855903355 -429557193 92116439 700630190 -355144297 1454423209
REM
CELL 1.54180   50.00000   50.00000   50.00000   90.00000   90.00000   90.00000
LATT -1
SFAC C  
C      1  0.4820890000000  0.4954180000000  0.4750900000000 1.0
C      1  0.4946500000000  0.5036430000000  0.5236910000000 1.0
C      1  0.4973590000000  0.4231170000000  0.4831350000000 1.0
C      1  0.5035400000000  0.5249460000000  0.4546140000000 1.0
C      1  0.5602510000000  0.4218730000000  0.4827520000000 1.0
C      1  0.5180300000000  0.4812690000000  0.5874130000000 1.0
C      1  0.5109450000000  0.4846040000000  0.4728660000000 1.0
C      1  0.5715770000000  0.4929290000000  0.4529940000000 1.0
C      1  0.4251770000000  0.5453570000000  0.4792230000000 1.0
C      1  0.5066920000000  0.5378260000000  0.5559240000000 1.0
C      1  0.5470510000000  0.4968850000000  0.5581780000000 1.0
C      1  0.5208930000000  0.4032250000000  0.5096100000000 1.0
C      1  0.5177250000000  0.4433090000000  0.5448210000000 1.0
C      1  0.5234300000000  0.4923570000000  0.5378860000000 1.0
C      1  0.5018350000000  0.4485310000000  0.4374740000000 1.0
C      1  0.5060230000000  0.5532970000000  0.5022940000000 1.0
C      1  0.5155290000000  0.5304600000000  0.5247640000000 1.0
C      1  0.4543700000000  0.4463170000000  0.4254750000000 1.0
C      1  0.5149520000000  0.5145890000000  0.5793970000000 1.0
C      1  0.5734650000000  0.5145250000000  0.5486360000000 1.0
C      1  0.5395630000000  0.5929870000000  0.4898540000000 1.0
C      1  0.4090720000000  0.5003280000000  0.4937470000000 1.0
C      1  0.5388330000000  0.5402850000000  0.4267900000000 1.0
C      1  0.5456580000000  0.5298890000000  0.5250880000000 1.0
C      1  0.5527880000000  0.4698910000000  0.5716750000000 1.0
C      1  0.5301570000000  0.4107480000000  0.4806510000000 1.0
C      1  0.4773560000000  0.5775140000000  0.4815860000000 1.0
C      1  0.4700260000000  0.5240540000000  0.5937710000000 1.0
C      1  0.5559940000000  0.4631710000000  0.4509880000000 1.0
C      1  0.4270320000000  0.5342790000000  0.5273970000000 1.0
C      1  0.5428890000000  0.5272860000000  0.5691520000000 1.0
C      1  0.5546450000000  0.5426600000000  0.4532130000000 1.0
C      1  0.5649580000000  0.5447140000000  0.5568080000000 1.0
C      1  0.5359510000000  0.4754360000000  0.5173540000000 1.0
C      1  0.5032190000000  0.4786040000000  0.5574550000000 1.0
C      1  0.5486910000000  0.4299240000000  0.4509620000000 1.0
C      1  0.4317980000000  0.5704910000000  0.4902860000000 1.0
C      1  0.4484060000000  0.4667340000000  0.5663300000000 1.0
C      1  0.4776440000000  0.5587370000000  0.4531340000000 1.0
C      1  0.5290300000000  0.4525540000000  0.5728600000000 1.0
C      1  0.5286420000000  0.5590090000000  0.5493980000000 1.0
C      1  0.4740770000000  0.4269610000000  0.5203450000000 1.0
C      1  0.5795600000000  0.4634570000000  0.5022760000000 1.0
C      1  0.4357860000000  0.4576650000000  0.4939000000000 1.0
C      1  0.4606470000000  0.4469490000000  0.5442260000000 1.0
C      1  0.5161970000000  0.4603460000000  0.4961140000000 1.0
C      1  0.4943680000000  0.5640730000000  0.5285470000000 1.0
C      1  0.4845360000000  0.4996550000000  0.5765340000000 1.0
C      1  0.4880710000000  0.4728550000000  0.5105650000000 1.0
C      1  0.4567200000000  0.5390260000000  0.5738250000000 1.0
C      1  0.5406450000000  0.4492150000000  0.4777790000000 1.0
C      1  0.5171460000000  0.5555780000000  0.4480590000000 1.0
C      1  0.5265840000000  0.5106440000000  0.4340980000000 1.0
C      1  0.4675970000000  0.4495740000000  0.4961950000000 1.0
C      1  0.5597000000000  0.5687360000000  0.4998790000000 1.0
C      1  0.4581050000000  0.5482010000000  0.5236780000000 1.0
C      1  0.5614700000000  0.5158310000000  0.4697000000000 1.0
C      1  0.4713790000000  0.5193600000000  0.4450990000000 1.0
C      1  0.4524850000000  0.5160480000000  0.5141350000000 1.0
C      1  0.5104500000000  0.5818260000000  0.4882070000000 1.0
C      1  0.4220170000000  0.4806680000000  0.4752260000000 1.0
C      1  0.4802590000000  0.5191280000000  0.4970360000000 1.0
C      1  0.4567890000000  0.5712500000000  0.5021850000000 1.0
C      1  0.4379510000000  0.4596640000000  0.5282480000000 1.0
C      1  0.4938570000000  0.4646080000000  0.4097510000000 1.0
C      1  0.4659460000000  0.5401400000000  0.4781660000000 1.0
C      1  0.4420600000000  0.5195350000000  0.5524930000000 1.0
C      1  0.4654850000000  0.3981360000000  0.5205560000000 1.0
C      1  0.4106080000000  0.4716780000000  0.5119990000000 1.0
C      1  0.4318980000000  0.4906330000000  0.4523230000000 1.0
C      1  0.5719990000000  0.5123130000000  0.5173670000000 1.0
C      1  0.5747910000000  0.5451520000000  0.4806260000000 1.0
C      1  0.4617220000000  0.4886550000000  0.4513330000000 1.0
C      1  0.5001110000000  0.5835960000000  0.4570660000000 1.0
C      1  0.5437760000000  0.4449090000000  0.5241400000000 1.0
C      1  0.5553340000000  0.5602070000000  0.5283480000000 1.0
C      1  0.5908430000000  0.5282690000000  0.4991470000000 1.0
C      1  0.5069680000000  0.4330530000000  0.5142040000000 1.0
C      1  0.4888460000000  0.4589350000000  0.5388730000000 1.0
C      1  0.5492250000000  0.4882570000000  0.4305300000000 1.0
C      1  0.4431730000000  0.5364680000000  0.4534720000000 1.0
C      1  0.4926910000000  0.5487400000000  0.4243810000000 1.0
C      1  0.4970780000000  0.4938650000000  0.4134220000000 1.0
C      1  0.4644570000000  0.4595910000000  0.4454090000000 1.0
C      1  0.4329230000000  0.4878910000000  0.5561190000000 1.0
C      1  0.4753660000000  0.5496880000000  0.5514950000000 1.0
C      1  0.5363410000000  0.5038460000000  0.4850190000000 1.0
C      1  0.5118980000000  0.4808000000000  0.4411900000000 1.0
C      1  0.5420110000000  0.5653030000000  0.4702670000000 1.0
C      1  0.5152980000000  0.4262940000000  0.4543130000000 1.0
C      1  0.4655420000000  0.4746710000000  0.5861630000000 1.0
C      1  0.5603090000000  0.4886790000000  0.5032420000000 1.0
C      1  0.5660130000000  0.4399170000000  0.5072620000000 1.0
C      1  0.5118280000000  0.5243000000000  0.4855010000000 1.0
C      1  0.4731840000000  0.5099910000000  0.5477270000000 1.0
C      1  0.4878790000000  0.5194860000000  0.4178180000000 1.0
C      1  0.4173360000000  0.5260440000000  0.4978880000000 1.0
C      1  0.4346070000000  0.4931370000000  0.5235850000000 1.0
C      1  0.4842420000000  0.4482720000000  0.4665750000000 1.0
C      1  0.4238780000000  0.5144630000000  0.4416380000000 1.0
END
