TITL C-2848496-4490-192 -0.00128935632872505 125000 -376.977246644148 0 0 68 (C1) n - 1
REM
REM in /home/bkarasulu/work/CARBON/AIRSS/Generating-Clusters/AIREBO/with-SteepDescent/Only-C1/SD-CG-opt/Try1-1.4A-POS3A/HFTN-CG
REM
REM
REM
REM
REM
REM ./C.cell (11c1c37f851c82e70ff6c80c92926a4b)
REM
REM compiler GCC version 9.2.1 20190827 (Red Hat 9.2.1-1)
REM options -cpp -mtune=generic -march=x86-64 -g -O0 -fpre-include=/usr/include/finclude/math-vector-fortran.h
REM seed 1663468922 -804429346 917784466 2074954294 1330780882 -2112892879 -229252497 1698292432 -1592557679 1094673578 -1304447122 950744484 1982356876 1311203882 -518131343 304203146 -1396453607 760815649 -1688777361 -1867584786 432575138 -1868391905 -1233842055 277023631 1607481658 415507797 -480423026 -688608169 148152746 975979158 -778034594 -1852966099 -1718375609
REM
CELL 1.54180   50.00000   50.00000   50.00000   90.00000   90.00000   90.00000
LATT -1
SFAC C  
C      1  0.5250290000000  0.5578850000000  0.4713780000000 1.0
C      1  0.4554400000000  0.4839770000000  0.5196580000000 1.0
C      1  0.5516390000000  0.4577980000000  0.5012220000000 1.0
C      1  0.4972500000000  0.4957970000000  0.4293740000000 1.0
C      1  0.4795760000000  0.4808880000000  0.5416700000000 1.0
C      1  0.4257630000000  0.5244150000000  0.4977140000000 1.0
C      1  0.5094360000000  0.4286070000000  0.5468010000000 1.0
C      1  0.4617240000000  0.5477190000000  0.4993090000000 1.0
C      1  0.4481340000000  0.5451450000000  0.5277000000000 1.0
C      1  0.4481050000000  0.5459320000000  0.5547100000000 1.0
C      1  0.5408780000000  0.5481560000000  0.5190530000000 1.0
C      1  0.5363840000000  0.5209040000000  0.5591970000000 1.0
C      1  0.4558760000000  0.5196650000000  0.4150430000000 1.0
C      1  0.4732400000000  0.5162120000000  0.4371660000000 1.0
C      1  0.5567780000000  0.5023380000000  0.5478360000000 1.0
C      1  0.5662060000000  0.4745240000000  0.4763760000000 1.0
C      1  0.5814150000000  0.5178250000000  0.4782960000000 1.0
C      1  0.5567540000000  0.4746200000000  0.5547560000000 1.0
C      1  0.5338470000000  0.4440550000000  0.4792900000000 1.0
C      1  0.4448570000000  0.5611900000000  0.4726070000000 1.0
C      1  0.4782230000000  0.4523260000000  0.4449730000000 1.0
C      1  0.4352580000000  0.4686270000000  0.4498140000000 1.0
C      1  0.4489030000000  0.5140520000000  0.5166440000000 1.0
C      1  0.5157190000000  0.4791080000000  0.4487930000000 1.0
C      1  0.5063940000000  0.5828140000000  0.5096770000000 1.0
C      1  0.4554220000000  0.4494690000000  0.5412450000000 1.0
C      1  0.4497340000000  0.5000800000000  0.5755780000000 1.0
C      1  0.4523370000000  0.4520220000000  0.4360160000000 1.0
C      1  0.5550050000000  0.4527000000000  0.5311400000000 1.0
C      1  0.5255850000000  0.5257470000000  0.5057770000000 1.0
C      1  0.4621400000000  0.4442220000000  0.5083250000000 1.0
C      1  0.4769130000000  0.5206460000000  0.4890870000000 1.0
C      1  0.5103900000000  0.4971090000000  0.5160570000000 1.0
C      1  0.4902180000000  0.4718560000000  0.4700920000000 1.0
C      1  0.5382490000000  0.4895890000000  0.4691600000000 1.0
C      1  0.4864930000000  0.5419890000000  0.4480080000000 1.0
C      1  0.4626080000000  0.5246290000000  0.5671260000000 1.0
C      1  0.5114580000000  0.5082390000000  0.5609780000000 1.0
C      1  0.5046090000000  0.4960770000000  0.4039100000000 1.0
C      1  0.4353360000000  0.5325600000000  0.4733800000000 1.0
C      1  0.5784720000000  0.5231340000000  0.5060520000000 1.0
C      1  0.5274010000000  0.4538730000000  0.5478590000000 1.0
C      1  0.5704530000000  0.5493920000000  0.5124410000000 1.0
C      1  0.4982450000000  0.4659980000000  0.5099310000000 1.0
C      1  0.5129900000000  0.4812070000000  0.5460180000000 1.0
C      1  0.4824220000000  0.5154770000000  0.5222450000000 1.0
C      1  0.4468980000000  0.4843380000000  0.4683890000000 1.0
C      1  0.4570370000000  0.5120680000000  0.4638200000000 1.0
C      1  0.5873160000000  0.4907640000000  0.4721790000000 1.0
C      1  0.4857540000000  0.4285820000000  0.5035070000000 1.0
C      1  0.4634050000000  0.4714080000000  0.4910490000000 1.0
C      1  0.4891450000000  0.4504610000000  0.5368210000000 1.0
C      1  0.5218370000000  0.5711850000000  0.5297160000000 1.0
C      1  0.5409160000000  0.4890260000000  0.5034180000000 1.0
C      1  0.5278800000000  0.5216910000000  0.4734150000000 1.0
C      1  0.5147440000000  0.5402010000000  0.4480850000000 1.0
C      1  0.4980820000000  0.4135610000000  0.5243950000000 1.0
C      1  0.4872950000000  0.5202240000000  0.5531800000000 1.0
C      1  0.4298420000000  0.4686600000000  0.5296930000000 1.0
C      1  0.5037410000000  0.5721520000000  0.4835160000000 1.0
C      1  0.5595540000000  0.5291730000000  0.4635390000000 1.0
C      1  0.4775660000000  0.5605670000000  0.4721060000000 1.0
C      1  0.4533050000000  0.4784790000000  0.5597480000000 1.0
C      1  0.5620780000000  0.5047130000000  0.5197460000000 1.0
C      1  0.5358920000000  0.4532430000000  0.4527620000000 1.0
C      1  0.5054260000000  0.4462960000000  0.4865750000000 1.0
C      1  0.4984790000000  0.5046040000000  0.4742530000000 1.0
C      1  0.5344980000000  0.5480070000000  0.5506050000000 1.0
END
