TITL C-2847951-7423-538 -0.0369483715271543 125000 -117.287714741998 0 0 22 (C1) n - 1
REM
REM in /home/bkarasulu/work/CARBON/AIRSS/Generating-Clusters/AIREBO/with-SteepDescent/Only-C1/SD-CG-opt/Try1-1.4A-POS3A/HFTN-CG
REM
REM
REM
REM
REM
REM ./C.cell (11c1c37f851c82e70ff6c80c92926a4b)
REM
REM compiler GCC version 9.2.1 20190827 (Red Hat 9.2.1-1)
REM options -cpp -mtune=generic -march=x86-64 -g -O0 -fpre-include=/usr/include/finclude/math-vector-fortran.h
REM seed 483087239 1394005163 -1342459692 1189219258 1519555727 1011118861 840022739 -2072664902 -888218676 598716631 -1447727060 383133672 1402880817 1019638675 -89037228 -914033213 -1155801034 690132405 -339324838 -291819547 2004445079 -422899440 -1129217490 447090156 -43087717 444859247 1461366888 909363397 -420314381 1612746712 1736840771 -1281833587 -969730846
REM
CELL 1.54180   50.00000   50.00000   50.00000   90.00000   90.00000   90.00000
LATT -1
SFAC C  
C      1  0.5158270000000  0.4838610000000  0.4915940000000 1.0
C      1  0.4579470000000  0.4963530000000  0.4641480000000 1.0
C      1  0.5487210000000  0.4312640000000  0.5010110000000 1.0
C      1  0.5198730000000  0.4998890000000  0.4685160000000 1.0
C      1  0.4556770000000  0.4956130000000  0.5122290000000 1.0
C      1  0.4636880000000  0.5211160000000  0.4542660000000 1.0
C      1  0.4901980000000  0.5545560000000  0.4832530000000 1.0
C      1  0.4730950000000  0.5031510000000  0.5382980000000 1.0
C      1  0.4634440000000  0.5265960000000  0.5177470000000 1.0
C      1  0.4809280000000  0.5412900000000  0.4602650000000 1.0
C      1  0.4877570000000  0.4681920000000  0.4901610000000 1.0
C      1  0.5122580000000  0.5339890000000  0.5509600000000 1.0
C      1  0.5348200000000  0.4592070000000  0.4917240000000 1.0
C      1  0.5019850000000  0.5787340000000  0.4820660000000 1.0
C      1  0.4909660000000  0.4399870000000  0.4913240000000 1.0
C      1  0.5676990000000  0.4948940000000  0.5404420000000 1.0
C      1  0.4875090000000  0.5401260000000  0.5065800000000 1.0
C      1  0.4644060000000  0.4835660000000  0.4883580000000 1.0
C      1  0.5009430000000  0.5194800000000  0.5294000000000 1.0
C      1  0.5204170000000  0.4994910000000  0.5173310000000 1.0
C      1  0.5180290000000  0.4324470000000  0.4906050000000 1.0
C      1  0.5438130000000  0.4961970000000  0.5297230000000 1.0
END
