TITL C-2848500-1637-166 -0.00106274901287697 125000 -622.158621972943 0 0 113 (C1) n - 1
REM
REM in /home/bkarasulu/work/CARBON/AIRSS/Generating-Clusters/AIREBO/with-SteepDescent/Only-C1/SD-CG-opt/Try1-1.4A-POS3A/HFTN-CG
REM
REM
REM
REM
REM
REM ./C.cell (11c1c37f851c82e70ff6c80c92926a4b)
REM
REM compiler GCC version 9.2.1 20190827 (Red Hat 9.2.1-1)
REM options -cpp -mtune=generic -march=x86-64 -g -O0 -fpre-include=/usr/include/finclude/math-vector-fortran.h
REM seed -1410933337 702746824 1670358156 -815152105 -675977516 1494524068 1170137107 -84536590 -715777602 685003618 -1904897303 -1184555199 1666389501 -1447529716 -55477223 -862554852 -1680320693 -1561775945 -797443142 -1007785013 1426450281 1846143518 -1723153158 -274618316 1022027079 274654996 -198497145 -675514110 -1252267090 -1932862459 418639084 -456594213 508505564
REM
CELL 1.54180   50.00000   50.00000   50.00000   90.00000   90.00000   90.00000
LATT -1
SFAC C  
C      1  0.4577600000000  0.5205280000000  0.5104570000000 1.0
C      1  0.5756440000000  0.5133160000000  0.4966190000000 1.0
C      1  0.5444250000000  0.5683570000000  0.4812260000000 1.0
C      1  0.5703390000000  0.4239340000000  0.5099270000000 1.0
C      1  0.5224790000000  0.5335510000000  0.4133910000000 1.0
C      1  0.5465520000000  0.4785040000000  0.5214650000000 1.0
C      1  0.4117110000000  0.5194100000000  0.4884950000000 1.0
C      1  0.4934800000000  0.5196000000000  0.5749930000000 1.0
C      1  0.5415200000000  0.4128190000000  0.5115340000000 1.0
C      1  0.5394360000000  0.4602120000000  0.5723770000000 1.0
C      1  0.5887610000000  0.5353990000000  0.5037540000000 1.0
C      1  0.4741600000000  0.4915510000000  0.4507650000000 1.0
C      1  0.5810510000000  0.4433320000000  0.4950720000000 1.0
C      1  0.4665020000000  0.4839340000000  0.5331040000000 1.0
C      1  0.4971650000000  0.4438360000000  0.5390530000000 1.0
C      1  0.5723560000000  0.4897450000000  0.5306230000000 1.0
C      1  0.4840060000000  0.4681950000000  0.5543300000000 1.0
C      1  0.5957460000000  0.4710430000000  0.4710220000000 1.0
C      1  0.5658810000000  0.5369680000000  0.4502590000000 1.0
C      1  0.4356530000000  0.5583490000000  0.4709350000000 1.0
C      1  0.5282230000000  0.4410930000000  0.4696180000000 1.0
C      1  0.5353070000000  0.4663090000000  0.4916170000000 1.0
C      1  0.5433150000000  0.5194120000000  0.4940100000000 1.0
C      1  0.4954610000000  0.5288920000000  0.4781590000000 1.0
C      1  0.4261010000000  0.4432150000000  0.5162030000000 1.0
C      1  0.4525510000000  0.5313980000000  0.4255490000000 1.0
C      1  0.5005420000000  0.4626620000000  0.5109300000000 1.0
C      1  0.5173220000000  0.4209570000000  0.4444760000000 1.0
C      1  0.5188050000000  0.4339900000000  0.5147360000000 1.0
C      1  0.4928750000000  0.4921660000000  0.5937670000000 1.0
C      1  0.4514460000000  0.5614410000000  0.4176060000000 1.0
C      1  0.5710620000000  0.5098590000000  0.5531720000000 1.0
C      1  0.4640830000000  0.5167000000000  0.4707380000000 1.0
C      1  0.5038560000000  0.5929850000000  0.4704900000000 1.0
C      1  0.3962110000000  0.5228600000000  0.4666220000000 1.0
C      1  0.4825860000000  0.5026660000000  0.4955750000000 1.0
C      1  0.5610560000000  0.4850140000000  0.4850430000000 1.0
C      1  0.4618790000000  0.4960940000000  0.5799780000000 1.0
C      1  0.5143090000000  0.5545500000000  0.4388570000000 1.0
C      1  0.4553410000000  0.5422290000000  0.5511120000000 1.0
C      1  0.5164960000000  0.4883420000000  0.5224400000000 1.0
C      1  0.5577540000000  0.5427090000000  0.4763430000000 1.0
C      1  0.5155700000000  0.5104650000000  0.3988780000000 1.0
C      1  0.4646500000000  0.5637330000000  0.5360470000000 1.0
C      1  0.5093530000000  0.5437260000000  0.5774130000000 1.0
C      1  0.5292880000000  0.4137730000000  0.4818930000000 1.0
C      1  0.4391650000000  0.5322250000000  0.4861500000000 1.0
C      1  0.4549750000000  0.4501550000000  0.5237690000000 1.0
C      1  0.4665050000000  0.4385210000000  0.4603940000000 1.0
C      1  0.5727970000000  0.5508210000000  0.5211980000000 1.0
C      1  0.4372090000000  0.4840290000000  0.5598700000000 1.0
C      1  0.5589690000000  0.4501700000000  0.4441110000000 1.0
C      1  0.4489340000000  0.5800400000000  0.5208770000000 1.0
C      1  0.4253200000000  0.4993570000000  0.4378330000000 1.0
C      1  0.4536890000000  0.5812460000000  0.4870730000000 1.0
C      1  0.5247600000000  0.3940660000000  0.4428510000000 1.0
C      1  0.4396320000000  0.4350370000000  0.4691680000000 1.0
C      1  0.5227590000000  0.5466110000000  0.5254410000000 1.0
C      1  0.5245830000000  0.4598480000000  0.4122660000000 1.0
C      1  0.4907790000000  0.5712420000000  0.4396310000000 1.0
C      1  0.5369560000000  0.4407420000000  0.4295360000000 1.0
C      1  0.4523930000000  0.5050930000000  0.4323190000000 1.0
C      1  0.5557870000000  0.5601170000000  0.5644590000000 1.0
C      1  0.4350860000000  0.4767560000000  0.4968110000000 1.0
C      1  0.4858350000000  0.4258630000000  0.4465420000000 1.0
C      1  0.5305810000000  0.5430500000000  0.5548880000000 1.0
C      1  0.5000030000000  0.4962920000000  0.5510930000000 1.0
C      1  0.5359010000000  0.5823940000000  0.5595050000000 1.0
C      1  0.4238170000000  0.4742130000000  0.5301150000000 1.0
C      1  0.5876790000000  0.4755370000000  0.5037930000000 1.0
C      1  0.4893130000000  0.3952450000000  0.5628980000000 1.0
C      1  0.5257440000000  0.4708190000000  0.4532030000000 1.0
C      1  0.5161270000000  0.5830200000000  0.5404010000000 1.0
C      1  0.5509020000000  0.4385020000000  0.5816210000000 1.0
C      1  0.4260260000000  0.4616300000000  0.4722110000000 1.0
C      1  0.5041840000000  0.4707970000000  0.4786540000000 1.0
C      1  0.4884180000000  0.5165050000000  0.5260860000000 1.0
C      1  0.4824130000000  0.4185210000000  0.5515030000000 1.0
C      1  0.4939120000000  0.5627490000000  0.5259050000000 1.0
C      1  0.5034100000000  0.4938380000000  0.4418220000000 1.0
C      1  0.5811000000000  0.4441880000000  0.4634920000000 1.0
C      1  0.4234090000000  0.5919590000000  0.5107480000000 1.0
C      1  0.5565680000000  0.4824900000000  0.4454960000000 1.0
C      1  0.5166230000000  0.5232450000000  0.4519380000000 1.0
C      1  0.5140600000000  0.4860000000000  0.4135370000000 1.0
C      1  0.5329230000000  0.5146640000000  0.5636930000000 1.0
C      1  0.5180050000000  0.5183690000000  0.5094380000000 1.0
C      1  0.4744650000000  0.4660060000000  0.4689580000000 1.0
C      1  0.4562780000000  0.4588460000000  0.5704780000000 1.0
C      1  0.4133670000000  0.5118970000000  0.5381480000000 1.0
C      1  0.5561510000000  0.5007130000000  0.5823450000000 1.0
C      1  0.4684360000000  0.4723750000000  0.5018110000000 1.0
C      1  0.5421510000000  0.5050530000000  0.4651040000000 1.0
C      1  0.5386120000000  0.3888720000000  0.5256240000000 1.0
C      1  0.4922820000000  0.5552840000000  0.4951220000000 1.0
C      1  0.4594590000000  0.4370410000000  0.5501140000000 1.0
C      1  0.4821490000000  0.5782260000000  0.4805100000000 1.0
C      1  0.4193020000000  0.5852280000000  0.4826070000000 1.0
C      1  0.4235270000000  0.4280810000000  0.4938420000000 1.0
C      1  0.5061460000000  0.5634780000000  0.5940200000000 1.0
C      1  0.5710150000000  0.5399580000000  0.5481230000000 1.0
C      1  0.5449600000000  0.5296600000000  0.4338570000000 1.0
C      1  0.4108890000000  0.5237740000000  0.4424190000000 1.0
C      1  0.4627370000000  0.5266620000000  0.5744640000000 1.0
C      1  0.4300970000000  0.5503700000000  0.4421240000000 1.0
C      1  0.5473240000000  0.5603880000000  0.5106210000000 1.0
C      1  0.4175450000000  0.4753030000000  0.4495100000000 1.0
C      1  0.5875680000000  0.4885680000000  0.4506400000000 1.0
C      1  0.5287870000000  0.4810320000000  0.5608500000000 1.0
C      1  0.4129190000000  0.4982750000000  0.5087020000000 1.0
C      1  0.4472050000000  0.5107130000000  0.5412610000000 1.0
C      1  0.5253450000000  0.5762990000000  0.4617400000000 1.0
C      1  0.5239680000000  0.5021080000000  0.5939980000000 1.0
END
