TITL C-2848495-5024-293 0.00749094198102274 125000 -1077.09557138643 0 0 194 (C1) n - 1
REM
REM in /home/bkarasulu/work/CARBON/AIRSS/Generating-Clusters/AIREBO/with-SteepDescent/Only-C1/SD-CG-opt/Try1-1.4A-POS3A/HFTN-CG
REM
REM
REM
REM
REM
REM ./C.cell (11c1c37f851c82e70ff6c80c92926a4b)
REM
REM compiler GCC version 9.2.1 20190827 (Red Hat 9.2.1-1)
REM options -cpp -mtune=generic -march=x86-64 -g -O0 -fpre-include=/usr/include/finclude/math-vector-fortran.h
REM seed 85160622 -1055463648 -1324643870 519688522 1312884591 -368173481 -1392133786 893827402 -708883472 -774403776 -538298676 275695020 -161828425 -1087629619 1479170314 604708795 -550279297 2096702624 1120891287 943204112 1042688049 1985016241 -150321210 -1896069926 1683751502 1657350279 1644615845 -382832328 -328432573 -1794706180 278228700 -1660782086 504843149
REM
CELL 1.54180   50.00000   50.00000   50.00000   90.00000   90.00000   90.00000
LATT -1
SFAC C  
C      1  0.4442290000000  0.5103380000000  0.4916140000000 1.0
C      1  0.5603430000000  0.4717040000000  0.5995720000000 1.0
C      1  0.5200550000000  0.4634770000000  0.5255720000000 1.0
C      1  0.5062720000000  0.5782810000000  0.5373910000000 1.0
C      1  0.5598890000000  0.4241320000000  0.4703810000000 1.0
C      1  0.4834520000000  0.4902820000000  0.5983560000000 1.0
C      1  0.5074390000000  0.4309540000000  0.4141060000000 1.0
C      1  0.4163010000000  0.4164300000000  0.4887040000000 1.0
C      1  0.4532410000000  0.5611230000000  0.5275310000000 1.0
C      1  0.5957840000000  0.5111770000000  0.5558090000000 1.0
C      1  0.4884940000000  0.5581260000000  0.4574390000000 1.0
C      1  0.6197890000000  0.4872590000000  0.4511350000000 1.0
C      1  0.5207690000000  0.4821170000000  0.4902640000000 1.0
C      1  0.5422550000000  0.5217380000000  0.4916280000000 1.0
C      1  0.5629190000000  0.5476710000000  0.5711730000000 1.0
C      1  0.5953280000000  0.5440520000000  0.4357310000000 1.0
C      1  0.5047510000000  0.4248100000000  0.4808950000000 1.0
C      1  0.4582650000000  0.5395170000000  0.4111660000000 1.0
C      1  0.5015310000000  0.5863630000000  0.5831450000000 1.0
C      1  0.5256410000000  0.5572060000000  0.5190170000000 1.0
C      1  0.4675670000000  0.5934100000000  0.4272060000000 1.0
C      1  0.4764690000000  0.5288270000000  0.5904680000000 1.0
C      1  0.5455500000000  0.5910290000000  0.4737800000000 1.0
C      1  0.4519940000000  0.4158360000000  0.4203300000000 1.0
C      1  0.4690600000000  0.4168890000000  0.5752580000000 1.0
C      1  0.5051100000000  0.5209820000000  0.4159640000000 1.0
C      1  0.5097400000000  0.5379730000000  0.4424300000000 1.0
C      1  0.5140370000000  0.5264540000000  0.5774770000000 1.0
C      1  0.5649410000000  0.5094550000000  0.4494520000000 1.0
C      1  0.4162350000000  0.5292460000000  0.4276690000000 1.0
C      1  0.5354290000000  0.4228310000000  0.4268380000000 1.0
C      1  0.4924280000000  0.5862320000000  0.4762110000000 1.0
C      1  0.3874540000000  0.5148280000000  0.5654420000000 1.0
C      1  0.5923480000000  0.5342810000000  0.5072800000000 1.0
C      1  0.3748580000000  0.4806450000000  0.5318320000000 1.0
C      1  0.4771100000000  0.5084030000000  0.4415950000000 1.0
C      1  0.4032050000000  0.5214460000000  0.5163880000000 1.0
C      1  0.4915080000000  0.4346190000000  0.5854340000000 1.0
C      1  0.5838090000000  0.4212830000000  0.5331160000000 1.0
C      1  0.4331910000000  0.4348070000000  0.4373130000000 1.0
C      1  0.4805990000000  0.6061400000000  0.5242450000000 1.0
C      1  0.4876170000000  0.4276910000000  0.4534350000000 1.0
C      1  0.5828380000000  0.4838500000000  0.4896430000000 1.0
C      1  0.5506950000000  0.5692160000000  0.4993720000000 1.0
C      1  0.4621560000000  0.4921990000000  0.5519120000000 1.0
C      1  0.5753500000000  0.4630970000000  0.4146290000000 1.0
C      1  0.5226670000000  0.5428070000000  0.4735030000000 1.0
C      1  0.4747430000000  0.3959130000000  0.5528770000000 1.0
C      1  0.4563160000000  0.5911690000000  0.5374650000000 1.0
C      1  0.5346520000000  0.4941300000000  0.6127020000000 1.0
C      1  0.5514910000000  0.5166210000000  0.4007080000000 1.0
C      1  0.5367840000000  0.4911100000000  0.5301570000000 1.0
C      1  0.4292940000000  0.5048900000000  0.4230680000000 1.0
C      1  0.4975740000000  0.4578100000000  0.4849230000000 1.0
C      1  0.5790410000000  0.4939330000000  0.5981530000000 1.0
C      1  0.4791360000000  0.4178580000000  0.4242930000000 1.0
C      1  0.5453860000000  0.5463770000000  0.5414000000000 1.0
C      1  0.4741420000000  0.5474100000000  0.5081110000000 1.0
C      1  0.5789250000000  0.4513160000000  0.5470750000000 1.0
C      1  0.5131550000000  0.5404980000000  0.3911540000000 1.0
C      1  0.4843660000000  0.5321090000000  0.4726680000000 1.0
C      1  0.4938380000000  0.4820210000000  0.3924280000000 1.0
C      1  0.4517950000000  0.4632660000000  0.4368760000000 1.0
C      1  0.5371140000000  0.5487350000000  0.6013730000000 1.0
C      1  0.5374950000000  0.5136730000000  0.3745230000000 1.0
C      1  0.5770070000000  0.5582460000000  0.5442660000000 1.0
C      1  0.5061350000000  0.5030200000000  0.5389320000000 1.0
C      1  0.5447400000000  0.4619620000000  0.5035230000000 1.0
C      1  0.5352210000000  0.5907050000000  0.4413780000000 1.0
C      1  0.5387340000000  0.4708740000000  0.4507030000000 1.0
C      1  0.5596430000000  0.4546530000000  0.4609480000000 1.0
C      1  0.6025490000000  0.5121060000000  0.4351270000000 1.0
C      1  0.5399710000000  0.5896560000000  0.5492080000000 1.0
C      1  0.4507840000000  0.4676940000000  0.6010030000000 1.0
C      1  0.5838240000000  0.5306970000000  0.4648140000000 1.0
C      1  0.5471940000000  0.5476820000000  0.4525010000000 1.0
C      1  0.5256700000000  0.5971240000000  0.5192650000000 1.0
C      1  0.4821950000000  0.4409340000000  0.5369540000000 1.0
C      1  0.3829470000000  0.5077710000000  0.5379520000000 1.0
C      1  0.4638270000000  0.5847690000000  0.5700020000000 1.0
C      1  0.5352220000000  0.3944590000000  0.5064590000000 1.0
C      1  0.5891860000000  0.4990740000000  0.5255420000000 1.0
C      1  0.4453500000000  0.4476190000000  0.5133450000000 1.0
C      1  0.5891080000000  0.4392510000000  0.4683350000000 1.0
C      1  0.5690260000000  0.5146190000000  0.5765160000000 1.0
C      1  0.5372150000000  0.4737650000000  0.4198760000000 1.0
C      1  0.4996420000000  0.5087270000000  0.4920710000000 1.0
C      1  0.5267530000000  0.4037940000000  0.4793430000000 1.0
C      1  0.5890960000000  0.5690410000000  0.4548840000000 1.0
C      1  0.4526650000000  0.5321610000000  0.4438920000000 1.0
C      1  0.3847620000000  0.5245750000000  0.4691610000000 1.0
C      1  0.4272740000000  0.5112490000000  0.6029860000000 1.0
C      1  0.5260420000000  0.5650020000000  0.3987050000000 1.0
C      1  0.4918310000000  0.4548190000000  0.4326280000000 1.0
C      1  0.4036520000000  0.5644870000000  0.5467330000000 1.0
C      1  0.4366850000000  0.6013180000000  0.5634750000000 1.0
C      1  0.5091180000000  0.4421150000000  0.5577860000000 1.0
C      1  0.4647590000000  0.5734760000000  0.4913180000000 1.0
C      1  0.4704180000000  0.4315230000000  0.5000500000000 1.0
C      1  0.4903770000000  0.5997830000000  0.5559730000000 1.0
C      1  0.6026880000000  0.5081460000000  0.4956740000000 1.0
C      1  0.5827750000000  0.4844990000000  0.4368640000000 1.0
C      1  0.4351470000000  0.4282900000000  0.4679040000000 1.0
C      1  0.4653020000000  0.4236800000000  0.4744880000000 1.0
C      1  0.5029060000000  0.5594990000000  0.4945820000000 1.0
C      1  0.4231870000000  0.5486260000000  0.4479830000000 1.0
C      1  0.5592920000000  0.5298770000000  0.4261810000000 1.0
C      1  0.4493600000000  0.4632290000000  0.5406910000000 1.0
C      1  0.5485220000000  0.4931690000000  0.5598770000000 1.0
C      1  0.4246220000000  0.4846010000000  0.5634230000000 1.0
C      1  0.4954330000000  0.3811650000000  0.5415570000000 1.0
C      1  0.6058640000000  0.4248270000000  0.5150320000000 1.0
C      1  0.5527360000000  0.4442950000000  0.4195740000000 1.0
C      1  0.5184810000000  0.5241110000000  0.5158300000000 1.0
C      1  0.4891960000000  0.5261570000000  0.6148850000000 1.0
C      1  0.5414770000000  0.5187560000000  0.5960230000000 1.0
C      1  0.5355050000000  0.5225440000000  0.5566700000000 1.0
C      1  0.4438560000000  0.4561090000000  0.4831700000000 1.0
C      1  0.4316230000000  0.5793190000000  0.4984250000000 1.0
C      1  0.4007470000000  0.4393620000000  0.5084120000000 1.0
C      1  0.5070870000000  0.5097590000000  0.3778990000000 1.0
C      1  0.5042480000000  0.5555510000000  0.5798830000000 1.0
C      1  0.4020130000000  0.4531820000000  0.4806330000000 1.0
C      1  0.5151960000000  0.4606800000000  0.4010350000000 1.0
C      1  0.5190680000000  0.3928570000000  0.5312670000000 1.0
C      1  0.4477580000000  0.4589340000000  0.4033780000000 1.0
C      1  0.5281650000000  0.4647370000000  0.6023220000000 1.0
C      1  0.4564740000000  0.4186780000000  0.5378950000000 1.0
C      1  0.5592790000000  0.4985820000000  0.5093710000000 1.0
C      1  0.5312010000000  0.4652340000000  0.5686940000000 1.0
C      1  0.5105620000000  0.4622850000000  0.4554360000000 1.0
C      1  0.4226280000000  0.5729660000000  0.5265130000000 1.0
C      1  0.3948940000000  0.4620600000000  0.5276350000000 1.0
C      1  0.4696370000000  0.5164760000000  0.5060880000000 1.0
C      1  0.6142440000000  0.5158210000000  0.4679380000000 1.0
C      1  0.5374060000000  0.4995730000000  0.4662850000000 1.0
C      1  0.5090210000000  0.5075560000000  0.4533090000000 1.0
C      1  0.4359080000000  0.5162640000000  0.4677520000000 1.0
C      1  0.5210470000000  0.5950570000000  0.4923490000000 1.0
C      1  0.4996890000000  0.4288170000000  0.5123480000000 1.0
C      1  0.5757590000000  0.4626210000000  0.5150680000000 1.0
C      1  0.4512460000000  0.4967670000000  0.6076950000000 1.0
C      1  0.5284290000000  0.4314870000000  0.5232250000000 1.0
C      1  0.4392100000000  0.5133930000000  0.5546330000000 1.0
C      1  0.4047280000000  0.4446830000000  0.4478260000000 1.0
C      1  0.4206400000000  0.4771790000000  0.5316530000000 1.0
C      1  0.4503140000000  0.5440580000000  0.5533650000000 1.0
C      1  0.4420870000000  0.5774120000000  0.4671020000000 1.0
C      1  0.4234370000000  0.4782530000000  0.4800210000000 1.0
C      1  0.4904880000000  0.4672000000000  0.5168370000000 1.0
C      1  0.3916210000000  0.4745060000000  0.4562580000000 1.0
C      1  0.5967320000000  0.4777230000000  0.5487190000000 1.0
C      1  0.4769640000000  0.5179990000000  0.4028200000000 1.0
C      1  0.5681330000000  0.5437710000000  0.4905820000000 1.0
C      1  0.5403040000000  0.4089100000000  0.4513660000000 1.0
C      1  0.5615600000000  0.4094520000000  0.5205430000000 1.0
C      1  0.5447030000000  0.5758250000000  0.4190490000000 1.0
C      1  0.4144700000000  0.5602520000000  0.4776030000000 1.0
C      1  0.4885330000000  0.5058070000000  0.5685220000000 1.0
C      1  0.5619700000000  0.4512070000000  0.5722830000000 1.0
C      1  0.4508580000000  0.5005560000000  0.4059900000000 1.0
C      1  0.4098380000000  0.5060580000000  0.5805990000000 1.0
C      1  0.4355420000000  0.4616460000000  0.5788970000000 1.0
C      1  0.3966040000000  0.5390150000000  0.4903040000000 1.0
C      1  0.4831780000000  0.4910280000000  0.4681560000000 1.0
C      1  0.5215010000000  0.4356320000000  0.5951890000000 1.0
C      1  0.4221440000000  0.4970760000000  0.5083160000000 1.0
C      1  0.4848620000000  0.6110480000000  0.4982060000000 1.0
C      1  0.4794530000000  0.4941110000000  0.5252850000000 1.0
C      1  0.4459860000000  0.4379250000000  0.5631500000000 1.0
C      1  0.4288660000000  0.4834970000000  0.4465180000000 1.0
C      1  0.4191800000000  0.5357630000000  0.5407780000000 1.0
C      1  0.4671000000000  0.5617910000000  0.4354570000000 1.0
C      1  0.5283430000000  0.5010440000000  0.4112500000000 1.0
C      1  0.4705360000000  0.5550530000000  0.5747170000000 1.0
C      1  0.5354750000000  0.5676170000000  0.5736320000000 1.0
C      1  0.5630530000000  0.5695930000000  0.4605910000000 1.0
C      1  0.4052780000000  0.5052620000000  0.4577570000000 1.0
C      1  0.5052330000000  0.5016630000000  0.6194300000000 1.0
C      1  0.5941940000000  0.4705650000000  0.4645710000000 1.0
C      1  0.5609680000000  0.5804350000000  0.5279500000000 1.0
C      1  0.4691450000000  0.4635080000000  0.4671410000000 1.0
C      1  0.4785990000000  0.4576430000000  0.5995780000000 1.0
C      1  0.5985220000000  0.4452050000000  0.4977290000000 1.0
C      1  0.5948220000000  0.5375880000000  0.5345770000000 1.0
C      1  0.4274750000000  0.4209790000000  0.5200490000000 1.0
C      1  0.5499440000000  0.4304270000000  0.4980550000000 1.0
C      1  0.4642290000000  0.4667760000000  0.3856720000000 1.0
C      1  0.4653580000000  0.5953000000000  0.4570010000000 1.0
C      1  0.4752070000000  0.4820790000000  0.4208820000000 1.0
C      1  0.5689600000000  0.5603630000000  0.4215660000000 1.0
C      1  0.5091090000000  0.5983460000000  0.4491580000000 1.0
C      1  0.5412760000000  0.4273030000000  0.5762700000000 1.0
C      1  0.5290040000000  0.4154520000000  0.5506820000000 1.0
END
