TITL C-2848499-1157-425 0.000435179187723906 125000 -410.350684602979 0 0 71 (C1) n - 1
REM
REM in /home/bkarasulu/work/CARBON/AIRSS/Generating-Clusters/AIREBO/with-SteepDescent/Only-C1/SD-CG-opt/Try1-1.4A-POS3A/HFTN-CG
REM
REM
REM
REM
REM
REM ./C.cell (11c1c37f851c82e70ff6c80c92926a4b)
REM
REM compiler GCC version 9.2.1 20190827 (Red Hat 9.2.1-1)
REM options -cpp -mtune=generic -march=x86-64 -g -O0 -fpre-include=/usr/include/finclude/math-vector-fortran.h
REM seed -471967057 -1861632044 -881533515 -707176755 -1506431443 -1217359871 441366902 -1781064666 -885654534 -1270522793 -1948103824 -1345726760 176510247 333571701 1338252324 -1543713137 1677446393 1624559754 1013294146 577427697 105632144 -1477240432 -1021845708 -933609147 -1640028151 -120072195 1024086633 247787765 -1381936563 -563569578 909621956 -1152983537 -484509915
REM
CELL 1.54180   50.00000   50.00000   50.00000   90.00000   90.00000   90.00000
LATT -1
SFAC C  
C      1  0.5450470000000  0.4804050000000  0.4397200000000 1.0
C      1  0.4292060000000  0.4683690000000  0.4737500000000 1.0
C      1  0.5532640000000  0.4155210000000  0.4921210000000 1.0
C      1  0.5049590000000  0.4111550000000  0.4975410000000 1.0
C      1  0.5981320000000  0.5145690000000  0.5103370000000 1.0
C      1  0.5321530000000  0.5075590000000  0.4460240000000 1.0
C      1  0.5357300000000  0.5313110000000  0.4930070000000 1.0
C      1  0.5520060000000  0.5104200000000  0.5926970000000 1.0
C      1  0.5504720000000  0.5535270000000  0.4505550000000 1.0
C      1  0.4547870000000  0.5544090000000  0.4482100000000 1.0
C      1  0.4748370000000  0.4970110000000  0.4369820000000 1.0
C      1  0.4775120000000  0.4395230000000  0.5232970000000 1.0
C      1  0.5115360000000  0.5045110000000  0.5338410000000 1.0
C      1  0.4964000000000  0.4494090000000  0.4896600000000 1.0
C      1  0.4759030000000  0.5690510000000  0.4878330000000 1.0
C      1  0.4321740000000  0.4699710000000  0.5694930000000 1.0
C      1  0.4977110000000  0.5672560000000  0.5076400000000 1.0
C      1  0.4962610000000  0.4568380000000  0.5530600000000 1.0
C      1  0.4599960000000  0.5419590000000  0.4233550000000 1.0
C      1  0.5161580000000  0.5203120000000  0.4209590000000 1.0
C      1  0.4179020000000  0.5281750000000  0.4804120000000 1.0
C      1  0.5249350000000  0.5244850000000  0.5530910000000 1.0
C      1  0.5233330000000  0.5608110000000  0.4912580000000 1.0
C      1  0.5287310000000  0.4808490000000  0.5180040000000 1.0
C      1  0.5394770000000  0.5468620000000  0.5368110000000 1.0
C      1  0.5545910000000  0.5350860000000  0.5165070000000 1.0
C      1  0.4543680000000  0.5135030000000  0.5558080000000 1.0
C      1  0.5318210000000  0.4573380000000  0.4445400000000 1.0
C      1  0.5037700000000  0.5048320000000  0.4633070000000 1.0
C      1  0.4940710000000  0.5602480000000  0.5408930000000 1.0
C      1  0.5471350000000  0.5273050000000  0.4638340000000 1.0
C      1  0.4789000000000  0.5155700000000  0.5973010000000 1.0
C      1  0.4457810000000  0.5433620000000  0.4002050000000 1.0
C      1  0.4867490000000  0.4483990000000  0.4279340000000 1.0
C      1  0.4777300000000  0.5121640000000  0.4966590000000 1.0
C      1  0.4957990000000  0.5376660000000  0.5577460000000 1.0
C      1  0.5119540000000  0.4423300000000  0.5685980000000 1.0
C      1  0.4743180000000  0.4346080000000  0.4493810000000 1.0
C      1  0.5244730000000  0.4532970000000  0.4728610000000 1.0
C      1  0.5746030000000  0.5178170000000  0.5240190000000 1.0
C      1  0.5916820000000  0.4899150000000  0.5594960000000 1.0
C      1  0.4801720000000  0.5606490000000  0.4611130000000 1.0
C      1  0.4254090000000  0.4960460000000  0.5253570000000 1.0
C      1  0.4716920000000  0.4958560000000  0.4690240000000 1.0
C      1  0.5147910000000  0.4452230000000  0.4258070000000 1.0
C      1  0.4694340000000  0.4700150000000  0.5368360000000 1.0
C      1  0.5168430000000  0.4831890000000  0.4861410000000 1.0
C      1  0.4732130000000  0.4485630000000  0.4740440000000 1.0
C      1  0.5676790000000  0.4979970000000  0.5463190000000 1.0
C      1  0.5227890000000  0.5588370000000  0.4618840000000 1.0
C      1  0.5531560000000  0.4742340000000  0.5340150000000 1.0
C      1  0.4516010000000  0.5566620000000  0.4935770000000 1.0
C      1  0.4547980000000  0.5302830000000  0.5066020000000 1.0
C      1  0.4461080000000  0.5308690000000  0.5369830000000 1.0
C      1  0.5391850000000  0.4395020000000  0.5671080000000 1.0
C      1  0.4350870000000  0.5498520000000  0.4698300000000 1.0
C      1  0.5041500000000  0.4604190000000  0.5201730000000 1.0
C      1  0.4834970000000  0.4943590000000  0.5221760000000 1.0
C      1  0.5225240000000  0.5684430000000  0.5308580000000 1.0
C      1  0.4840890000000  0.5239810000000  0.4276450000000 1.0
C      1  0.4836630000000  0.4145820000000  0.5151260000000 1.0
C      1  0.4761270000000  0.5222970000000  0.5713420000000 1.0
C      1  0.5481250000000  0.5108640000000  0.5669270000000 1.0
C      1  0.5014040000000  0.5376120000000  0.4535400000000 1.0
C      1  0.4757940000000  0.4739780000000  0.4231960000000 1.0
C      1  0.4564070000000  0.4708810000000  0.4744590000000 1.0
C      1  0.5118980000000  0.5129320000000  0.5012880000000 1.0
C      1  0.5277330000000  0.4247700000000  0.4878790000000 1.0
C      1  0.4452380000000  0.4840600000000  0.5491390000000 1.0
C      1  0.4269830000000  0.5146490000000  0.5058600000000 1.0
C      1  0.5540460000000  0.4506880000000  0.5470070000000 1.0
END
