TITL C-2848506-1665-249 0.00148363261392774 125000 -1044.43059459747 0 0 192 (C1) n - 1
REM
REM in /home/bkarasulu/work/CARBON/AIRSS/Generating-Clusters/AIREBO/with-SteepDescent/Only-C1/SD-CG-opt/Try1-1.4A-POS3A/HFTN-CG
REM
REM
REM
REM
REM
REM ./C.cell (11c1c37f851c82e70ff6c80c92926a4b)
REM
REM compiler GCC version 9.2.1 20190827 (Red Hat 9.2.1-1)
REM options -cpp -mtune=generic -march=x86-64 -g -O0 -fpre-include=/usr/include/finclude/math-vector-fortran.h
REM seed 746865114 349243056 508717312 -559374507 -871934705 -240759320 1510405146 -905132342 -132287501 2119201449 1282132837 -1250833004 917460874 292582132 1604422365 756954831 -1959140552 568828056 226418602 -1796368768 900030719 826827623 457875366 -706725318 1357524978 -2082160704 1371827934 -1248959071 755608728 845763031 -594953234 -456664025 2019891918
REM
CELL 1.54180   50.00000   50.00000   50.00000   90.00000   90.00000   90.00000
LATT -1
SFAC C  
C      1  0.5875080000000  0.5327620000000  0.4556580000000 1.0
C      1  0.5297070000000  0.4175220000000  0.5510270000000 1.0
C      1  0.4091040000000  0.3942040000000  0.5069880000000 1.0
C      1  0.5049480000000  0.5567690000000  0.4598740000000 1.0
C      1  0.5103480000000  0.4709410000000  0.5040820000000 1.0
C      1  0.5537530000000  0.4408950000000  0.5566970000000 1.0
C      1  0.5660370000000  0.6063260000000  0.4572620000000 1.0
C      1  0.4318460000000  0.5369880000000  0.5838360000000 1.0
C      1  0.5658890000000  0.5225390000000  0.5362370000000 1.0
C      1  0.4614410000000  0.4898310000000  0.5244570000000 1.0
C      1  0.5463130000000  0.4032500000000  0.5024380000000 1.0
C      1  0.5099190000000  0.5411570000000  0.5698440000000 1.0
C      1  0.5112170000000  0.5059340000000  0.3900090000000 1.0
C      1  0.5159600000000  0.5124460000000  0.5560570000000 1.0
C      1  0.4860270000000  0.4704970000000  0.6090730000000 1.0
C      1  0.4434150000000  0.5732880000000  0.5531840000000 1.0
C      1  0.4724010000000  0.4018930000000  0.5440380000000 1.0
C      1  0.5671130000000  0.5155570000000  0.4390150000000 1.0
C      1  0.4576300000000  0.5005690000000  0.6060070000000 1.0
C      1  0.5655470000000  0.4892440000000  0.4605300000000 1.0
C      1  0.5718850000000  0.5239460000000  0.5027970000000 1.0
C      1  0.5846490000000  0.4790520000000  0.4867700000000 1.0
C      1  0.5688120000000  0.5208640000000  0.5911960000000 1.0
C      1  0.5038560000000  0.4462150000000  0.4855790000000 1.0
C      1  0.3981940000000  0.5515140000000  0.4761470000000 1.0
C      1  0.5620400000000  0.5581640000000  0.4180040000000 1.0
C      1  0.5590910000000  0.5506160000000  0.5668430000000 1.0
C      1  0.4358550000000  0.4331110000000  0.5654300000000 1.0
C      1  0.4715390000000  0.5275380000000  0.4824410000000 1.0
C      1  0.5705830000000  0.5621740000000  0.5384520000000 1.0
C      1  0.5257250000000  0.5671070000000  0.5851250000000 1.0
C      1  0.4663500000000  0.4245510000000  0.5664930000000 1.0
C      1  0.5765100000000  0.5575200000000  0.4703310000000 1.0
C      1  0.4488990000000  0.5471220000000  0.4561890000000 1.0
C      1  0.5140420000000  0.5914130000000  0.5802740000000 1.0
C      1  0.4467450000000  0.5115220000000  0.4789960000000 1.0
C      1  0.5002930000000  0.5877480000000  0.4620460000000 1.0
C      1  0.4363320000000  0.3905490000000  0.5015380000000 1.0
C      1  0.4142830000000  0.5294640000000  0.4151490000000 1.0
C      1  0.5398710000000  0.5849160000000  0.4609220000000 1.0
C      1  0.6022020000000  0.4561200000000  0.4762250000000 1.0
C      1  0.4750670000000  0.3961910000000  0.4686820000000 1.0
C      1  0.4756250000000  0.5738210000000  0.5640640000000 1.0
C      1  0.5722270000000  0.4419880000000  0.5187860000000 1.0
C      1  0.5230380000000  0.3847770000000  0.4967180000000 1.0
C      1  0.5578290000000  0.4602960000000  0.4444220000000 1.0
C      1  0.4155680000000  0.5236850000000  0.4851020000000 1.0
C      1  0.5981770000000  0.4944280000000  0.4519950000000 1.0
C      1  0.6009500000000  0.4939830000000  0.5130260000000 1.0
C      1  0.4925140000000  0.4838800000000  0.5307380000000 1.0
C      1  0.4470130000000  0.5588580000000  0.5227600000000 1.0
C      1  0.4673600000000  0.4331020000000  0.4952790000000 1.0
C      1  0.5527310000000  0.5553960000000  0.4499980000000 1.0
C      1  0.5347880000000  0.5095930000000  0.5154270000000 1.0
C      1  0.4320430000000  0.5188400000000  0.4492070000000 1.0
C      1  0.4796250000000  0.4745760000000  0.3997930000000 1.0
C      1  0.4291980000000  0.4372760000000  0.4419050000000 1.0
C      1  0.6098060000000  0.5162860000000  0.4673220000000 1.0
C      1  0.5583710000000  0.4683700000000  0.5741750000000 1.0
C      1  0.4645150000000  0.4592280000000  0.5954500000000 1.0
C      1  0.4790600000000  0.5781050000000  0.5089150000000 1.0
C      1  0.5389500000000  0.4934810000000  0.5619760000000 1.0
C      1  0.4052050000000  0.5599980000000  0.5083720000000 1.0
C      1  0.5108310000000  0.5728260000000  0.5132700000000 1.0
C      1  0.4267420000000  0.5095560000000  0.5340230000000 1.0
C      1  0.5021800000000  0.4588300000000  0.4042220000000 1.0
C      1  0.5184170000000  0.3894140000000  0.5579370000000 1.0
C      1  0.5927970000000  0.4099660000000  0.4897310000000 1.0
C      1  0.5514730000000  0.5876160000000  0.5263950000000 1.0
C      1  0.4237830000000  0.5826870000000  0.5256770000000 1.0
C      1  0.4044910000000  0.5424530000000  0.5379100000000 1.0
C      1  0.5047150000000  0.4484220000000  0.4351850000000 1.0
C      1  0.4504870000000  0.4850150000000  0.4945690000000 1.0
C      1  0.4720580000000  0.5474780000000  0.5427420000000 1.0
C      1  0.4513150000000  0.5972720000000  0.5132990000000 1.0
C      1  0.5755900000000  0.5885610000000  0.4832320000000 1.0
C      1  0.4784050000000  0.5278580000000  0.5695730000000 1.0
C      1  0.5317380000000  0.5645220000000  0.4146440000000 1.0
C      1  0.6010980000000  0.5070940000000  0.5444680000000 1.0
C      1  0.4003480000000  0.4212640000000  0.5116990000000 1.0
C      1  0.5318040000000  0.5659650000000  0.4879920000000 1.0
C      1  0.4866140000000  0.5643410000000  0.5925950000000 1.0
C      1  0.6113470000000  0.5186750000000  0.4955890000000 1.0
C      1  0.6042340000000  0.4350870000000  0.4959890000000 1.0
C      1  0.4945640000000  0.5945100000000  0.4299080000000 1.0
C      1  0.4301760000000  0.4834150000000  0.4108120000000 1.0
C      1  0.5220740000000  0.6041870000000  0.4825800000000 1.0
C      1  0.5627750000000  0.4699060000000  0.5072910000000 1.0
C      1  0.4329070000000  0.4354710000000  0.4753590000000 1.0
C      1  0.4370020000000  0.5501040000000  0.4848000000000 1.0
C      1  0.4465380000000  0.4043650000000  0.4770160000000 1.0
C      1  0.4918360000000  0.4242890000000  0.4643120000000 1.0
C      1  0.4350000000000  0.5653130000000  0.4316180000000 1.0
C      1  0.4835110000000  0.6115790000000  0.4754130000000 1.0
C      1  0.5346180000000  0.4603490000000  0.4121420000000 1.0
C      1  0.5480120000000  0.4272060000000  0.5146360000000 1.0
C      1  0.4231380000000  0.4844600000000  0.5148050000000 1.0
C      1  0.5404300000000  0.3854310000000  0.4674890000000 1.0
C      1  0.5264750000000  0.4454690000000  0.5185180000000 1.0
C      1  0.4103070000000  0.4599590000000  0.4680580000000 1.0
C      1  0.4541320000000  0.5188050000000  0.5391780000000 1.0
C      1  0.5228390000000  0.5851640000000  0.5398480000000 1.0
C      1  0.4540970000000  0.4403140000000  0.4279370000000 1.0
C      1  0.4357750000000  0.4838760000000  0.6073020000000 1.0
C      1  0.6079540000000  0.4559520000000  0.4496470000000 1.0
C      1  0.4871000000000  0.4957210000000  0.5626420000000 1.0
C      1  0.5316030000000  0.4806060000000  0.5925940000000 1.0
C      1  0.4356200000000  0.4722640000000  0.5521480000000 1.0
C      1  0.4641150000000  0.4037960000000  0.5128350000000 1.0
C      1  0.4328980000000  0.5113030000000  0.4062960000000 1.0
C      1  0.4782310000000  0.4300070000000  0.4359320000000 1.0
C      1  0.3946490000000  0.4505450000000  0.5415010000000 1.0
C      1  0.5240660000000  0.5860260000000  0.4304570000000 1.0
C      1  0.3940070000000  0.5094200000000  0.5432080000000 1.0
C      1  0.4551300000000  0.5240720000000  0.5901570000000 1.0
C      1  0.4055050000000  0.4772890000000  0.5429780000000 1.0
C      1  0.5354600000000  0.4086240000000  0.4435530000000 1.0
C      1  0.5526440000000  0.5142050000000  0.4799650000000 1.0
C      1  0.5055700000000  0.5134000000000  0.5236940000000 1.0
C      1  0.5007110000000  0.5393020000000  0.6025290000000 1.0
C      1  0.4952600000000  0.5125840000000  0.4916740000000 1.0
C      1  0.4974110000000  0.5444540000000  0.5237460000000 1.0
C      1  0.4043510000000  0.5203980000000  0.5124810000000 1.0
C      1  0.4134070000000  0.4657520000000  0.4346870000000 1.0
C      1  0.4621870000000  0.5224100000000  0.4011850000000 1.0
C      1  0.5090600000000  0.3976920000000  0.4619800000000 1.0
C      1  0.5356280000000  0.4375490000000  0.4373760000000 1.0
C      1  0.4546700000000  0.4570850000000  0.5284050000000 1.0
C      1  0.4976450000000  0.4223810000000  0.5039260000000 1.0
C      1  0.4810630000000  0.6069600000000  0.5267360000000 1.0
C      1  0.5179150000000  0.4655400000000  0.5428940000000 1.0
C      1  0.5893870000000  0.5381780000000  0.5535190000000 1.0
C      1  0.4630750000000  0.4793410000000  0.4483220000000 1.0
C      1  0.5211850000000  0.5122020000000  0.6006260000000 1.0
C      1  0.5485760000000  0.5284410000000  0.4153060000000 1.0
C      1  0.4646380000000  0.5816320000000  0.4350640000000 1.0
C      1  0.4954550000000  0.5963930000000  0.5522440000000 1.0
C      1  0.4463670000000  0.5826800000000  0.4847220000000 1.0
C      1  0.5611550000000  0.4795680000000  0.4095980000000 1.0
C      1  0.4109070000000  0.5451740000000  0.4451320000000 1.0
C      1  0.5681730000000  0.3984010000000  0.4830260000000 1.0
C      1  0.4672420000000  0.4682840000000  0.5644520000000 1.0
C      1  0.5603560000000  0.5558390000000  0.5003250000000 1.0
C      1  0.4845190000000  0.5006930000000  0.3923760000000 1.0
C      1  0.4796390000000  0.5416610000000  0.4548150000000 1.0
C      1  0.4798490000000  0.4437220000000  0.5446340000000 1.0
C      1  0.4974830000000  0.4635910000000  0.4603590000000 1.0
C      1  0.4922030000000  0.3919290000000  0.4977370000000 1.0
C      1  0.4200370000000  0.4304790000000  0.5378420000000 1.0
C      1  0.3964790000000  0.4392280000000  0.4912150000000 1.0
C      1  0.4942980000000  0.4372580000000  0.5812440000000 1.0
C      1  0.4078590000000  0.4939790000000  0.4704070000000 1.0
C      1  0.4610860000000  0.5949200000000  0.4643330000000 1.0
C      1  0.5032590000000  0.4936350000000  0.4719720000000 1.0
C      1  0.5300760000000  0.5341980000000  0.4639250000000 1.0
C      1  0.5415220000000  0.5394380000000  0.5234980000000 1.0
C      1  0.4920980000000  0.3844690000000  0.5514350000000 1.0
C      1  0.5202850000000  0.5114560000000  0.4405970000000 1.0
C      1  0.5883810000000  0.4821330000000  0.5637730000000 1.0
C      1  0.5863600000000  0.5742940000000  0.5121570000000 1.0
C      1  0.4568930000000  0.4692410000000  0.4182070000000 1.0
C      1  0.5418910000000  0.5384130000000  0.5936070000000 1.0
C      1  0.5143850000000  0.5384650000000  0.4938090000000 1.0
C      1  0.5372290000000  0.4862750000000  0.4917380000000 1.0
C      1  0.5209460000000  0.4451090000000  0.5656930000000 1.0
C      1  0.5319160000000  0.4847840000000  0.4581880000000 1.0
C      1  0.4376220000000  0.4349210000000  0.5090610000000 1.0
C      1  0.5678150000000  0.5071900000000  0.5660520000000 1.0
C      1  0.5114620000000  0.4582380000000  0.6017820000000 1.0
C      1  0.5443590000000  0.4822320000000  0.5307940000000 1.0
C      1  0.4662150000000  0.5515290000000  0.4998790000000 1.0
C      1  0.4852020000000  0.5259750000000  0.4259950000000 1.0
C      1  0.4635730000000  0.5514010000000  0.4195120000000 1.0
C      1  0.5300080000000  0.4930990000000  0.4136710000000 1.0
C      1  0.4901990000000  0.4988610000000  0.5963660000000 1.0
C      1  0.4309580000000  0.5429450000000  0.5554840000000 1.0
C      1  0.4876610000000  0.4986130000000  0.4439140000000 1.0
C      1  0.5842450000000  0.4532020000000  0.5479100000000 1.0
C      1  0.4332740000000  0.4872600000000  0.4503140000000 1.0
C      1  0.5855900000000  0.4704920000000  0.4314460000000 1.0
C      1  0.5506100000000  0.5987510000000  0.5004040000000 1.0
C      1  0.6004610000000  0.4604030000000  0.5184210000000 1.0
C      1  0.5030370000000  0.4296360000000  0.5335990000000 1.0
C      1  0.5155700000000  0.5363950000000  0.4179650000000 1.0
C      1  0.5351880000000  0.5217690000000  0.3864710000000 1.0
C      1  0.4333810000000  0.4601810000000  0.5835980000000 1.0
C      1  0.4971860000000  0.6174960000000  0.5015480000000 1.0
C      1  0.3992590000000  0.4836900000000  0.4977350000000 1.0
C      1  0.5983830000000  0.5444340000000  0.5040910000000 1.0
C      1  0.5314620000000  0.5551210000000  0.5475320000000 1.0
C      1  0.4681520000000  0.4621730000000  0.4775360000000 1.0
C      1  0.5798460000000  0.5040860000000  0.4106660000000 1.0
END
