TITL C-2848502-4955-137 0.000289540899499089 125000 -490.280766538733 0 0 93 (C1) n - 1
REM
REM in /home/bkarasulu/work/CARBON/AIRSS/Generating-Clusters/AIREBO/with-SteepDescent/Only-C1/SD-CG-opt/Try1-1.4A-POS3A/HFTN-CG
REM
REM
REM
REM
REM
REM ./C.cell (11c1c37f851c82e70ff6c80c92926a4b)
REM
REM compiler GCC version 9.2.1 20190827 (Red Hat 9.2.1-1)
REM options -cpp -mtune=generic -march=x86-64 -g -O0 -fpre-include=/usr/include/finclude/math-vector-fortran.h
REM seed 1757687917 -1970231981 -1148178385 1643301176 78619090 -747616006 2101357929 -1765344776 -1518068713 147500498 638351428 1336148220 -117729334 709898641 -502501415 -399077949 670347184 1852570296 1829314736 1576424126 -1648791712 -199509452 -1026345812 1245510296 -1920761401 1583223520 1782087009 662446594 -1979843011 -86632285 1342103486 -487807772 372093809
REM
CELL 1.54180   50.00000   50.00000   50.00000   90.00000   90.00000   90.00000
LATT -1
SFAC C  
C      1  0.5392950000000  0.4722920000000  0.5150260000000 1.0
C      1  0.5563280000000  0.5228370000000  0.5208950000000 1.0
C      1  0.4835230000000  0.4866550000000  0.5169070000000 1.0
C      1  0.4720570000000  0.5651790000000  0.4378470000000 1.0
C      1  0.4650180000000  0.5382970000000  0.4353910000000 1.0
C      1  0.5794880000000  0.5524100000000  0.4945690000000 1.0
C      1  0.4644040000000  0.5742350000000  0.5150210000000 1.0
C      1  0.5115720000000  0.5688160000000  0.5616040000000 1.0
C      1  0.5880490000000  0.5110550000000  0.5130270000000 1.0
C      1  0.5265200000000  0.5253950000000  0.5730050000000 1.0
C      1  0.4668380000000  0.5007990000000  0.4951730000000 1.0
C      1  0.4302420000000  0.5138230000000  0.5034620000000 1.0
C      1  0.4363980000000  0.5127330000000  0.5422540000000 1.0
C      1  0.4835030000000  0.4253040000000  0.5253090000000 1.0
C      1  0.4999560000000  0.4467130000000  0.5692260000000 1.0
C      1  0.4483080000000  0.5351470000000  0.5228400000000 1.0
C      1  0.4443770000000  0.5301980000000  0.4525590000000 1.0
C      1  0.5574770000000  0.4350390000000  0.4845790000000 1.0
C      1  0.5050250000000  0.4647830000000  0.4142620000000 1.0
C      1  0.5754110000000  0.4602460000000  0.4792970000000 1.0
C      1  0.4582630000000  0.5064150000000  0.5613290000000 1.0
C      1  0.5251230000000  0.4253170000000  0.4884220000000 1.0
C      1  0.5249420000000  0.5041910000000  0.4533920000000 1.0
C      1  0.5510100000000  0.5909800000000  0.4932910000000 1.0
C      1  0.4876440000000  0.4717640000000  0.5791890000000 1.0
C      1  0.4834760000000  0.5535840000000  0.5591740000000 1.0
C      1  0.5171230000000  0.4332530000000  0.4562780000000 1.0
C      1  0.5668210000000  0.5214320000000  0.4885730000000 1.0
C      1  0.5004830000000  0.5288620000000  0.5126830000000 1.0
C      1  0.4998150000000  0.5731210000000  0.4966110000000 1.0
C      1  0.5057240000000  0.4985580000000  0.5750090000000 1.0
C      1  0.4735230000000  0.4432410000000  0.5494860000000 1.0
C      1  0.4097140000000  0.4369020000000  0.5393180000000 1.0
C      1  0.5141940000000  0.5194930000000  0.5421310000000 1.0
C      1  0.5653910000000  0.4818760000000  0.4978850000000 1.0
C      1  0.5841800000000  0.4842330000000  0.5258580000000 1.0
C      1  0.4857310000000  0.4539300000000  0.4784780000000 1.0
C      1  0.4516310000000  0.4662710000000  0.5372760000000 1.0
C      1  0.4630780000000  0.4451740000000  0.4467170000000 1.0
C      1  0.4802150000000  0.4207960000000  0.4802990000000 1.0
C      1  0.5546940000000  0.4269280000000  0.5160090000000 1.0
C      1  0.4992430000000  0.5067710000000  0.4725240000000 1.0
C      1  0.5471850000000  0.4722440000000  0.4450770000000 1.0
C      1  0.4852200000000  0.5250730000000  0.5690940000000 1.0
C      1  0.5141940000000  0.4657600000000  0.4930340000000 1.0
C      1  0.5234670000000  0.4813240000000  0.4296370000000 1.0
C      1  0.5092320000000  0.4383660000000  0.5125680000000 1.0
C      1  0.5688400000000  0.4854250000000  0.5494290000000 1.0
C      1  0.4321630000000  0.5518400000000  0.4658980000000 1.0
C      1  0.5265440000000  0.4482210000000  0.5545420000000 1.0
C      1  0.5861420000000  0.4690130000000  0.4555830000000 1.0
C      1  0.3885970000000  0.4733200000000  0.4941050000000 1.0
C      1  0.4422650000000  0.4322810000000  0.5025240000000 1.0
C      1  0.4664450000000  0.4168490000000  0.5048140000000 1.0
C      1  0.5402930000000  0.5007030000000  0.4837980000000 1.0
C      1  0.4614930000000  0.4762780000000  0.5682540000000 1.0
C      1  0.5454570000000  0.5513350000000  0.5297450000000 1.0
C      1  0.4323330000000  0.4437560000000  0.5255070000000 1.0
C      1  0.4520350000000  0.4492030000000  0.4786530000000 1.0
C      1  0.5755610000000  0.5202480000000  0.4584780000000 1.0
C      1  0.5246740000000  0.5514210000000  0.5048100000000 1.0
C      1  0.4508870000000  0.5609220000000  0.4914970000000 1.0
C      1  0.4878380000000  0.5371070000000  0.4680660000000 1.0
C      1  0.4431820000000  0.5071880000000  0.4726550000000 1.0
C      1  0.4587260000000  0.4771260000000  0.4513210000000 1.0
C      1  0.4277180000000  0.4869740000000  0.5247250000000 1.0
C      1  0.4215040000000  0.5440740000000  0.4948360000000 1.0
C      1  0.4986740000000  0.4081020000000  0.4640630000000 1.0
C      1  0.4869610000000  0.4905830000000  0.4471360000000 1.0
C      1  0.4938010000000  0.5702710000000  0.4634880000000 1.0
C      1  0.5634380000000  0.5688470000000  0.5093340000000 1.0
C      1  0.4140270000000  0.4778470000000  0.4973270000000 1.0
C      1  0.4926510000000  0.5224280000000  0.4368880000000 1.0
C      1  0.5326580000000  0.5514930000000  0.5573500000000 1.0
C      1  0.4354420000000  0.4760520000000  0.4760830000000 1.0
C      1  0.5359470000000  0.5682880000000  0.4803170000000 1.0
C      1  0.4562740000000  0.5591580000000  0.5429630000000 1.0
C      1  0.4923320000000  0.5585540000000  0.5271180000000 1.0
C      1  0.5433680000000  0.4460500000000  0.5317760000000 1.0
C      1  0.4957850000000  0.4577550000000  0.4462210000000 1.0
C      1  0.4858640000000  0.5991220000000  0.5091020000000 1.0
C      1  0.4706110000000  0.5338010000000  0.4971940000000 1.0
C      1  0.5703750000000  0.4929030000000  0.4416960000000 1.0
C      1  0.5165300000000  0.4789990000000  0.5526180000000 1.0
C      1  0.5242060000000  0.5605990000000  0.4548660000000 1.0
C      1  0.4849780000000  0.5046460000000  0.5414930000000 1.0
C      1  0.5107640000000  0.4987720000000  0.5005570000000 1.0
C      1  0.5400400000000  0.4979240000000  0.5373570000000 1.0
C      1  0.5247480000000  0.5340380000000  0.4405830000000 1.0
C      1  0.4951600000000  0.6005360000000  0.4579740000000 1.0
C      1  0.5545040000000  0.5223890000000  0.4338210000000 1.0
C      1  0.4961130000000  0.4624230000000  0.5326970000000 1.0
C      1  0.5369440000000  0.4573240000000  0.4691420000000 1.0
END
