TITL C-2847951-7423-237 0.000124768761625793 125000 -840.209692626095 0 0 155 (C1) n - 1
REM
REM in /home/bkarasulu/work/CARBON/AIRSS/Generating-Clusters/AIREBO/with-SteepDescent/Only-C1/SD-CG-opt/Try1-1.4A-POS3A/HFTN-CG
REM
REM
REM
REM
REM
REM ./C.cell (11c1c37f851c82e70ff6c80c92926a4b)
REM
REM compiler GCC version 9.2.1 20190827 (Red Hat 9.2.1-1)
REM options -cpp -mtune=generic -march=x86-64 -g -O0 -fpre-include=/usr/include/finclude/math-vector-fortran.h
REM seed -797942375 -1753551107 -1695368208 1540775649 243994060 672388006 1725313770 -277511185 -1971417567 1363789366 -989065278 840516862 143540716 -1207243935 53391046 1727407065 -2050015458 2147005735 -1006730248 1571970047 -9906240 -1912388290 51023614 1525092025 -1621502212 2024697998 -1633973666 -182108701 1766776874 1346667830 1693340310 -121996323 -1409883939
REM
CELL 1.54180   50.00000   50.00000   50.00000   90.00000   90.00000   90.00000
LATT -1
SFAC C  
C      1  0.4843500000000  0.5463900000000  0.3986190000000 1.0
C      1  0.5483350000000  0.4850560000000  0.5148170000000 1.0
C      1  0.4759030000000  0.5471790000000  0.5328840000000 1.0
C      1  0.4777500000000  0.5682290000000  0.4413970000000 1.0
C      1  0.5535330000000  0.4588680000000  0.5754220000000 1.0
C      1  0.4884820000000  0.5087830000000  0.5729250000000 1.0
C      1  0.4881800000000  0.5171460000000  0.4001940000000 1.0
C      1  0.5868930000000  0.4521440000000  0.4546360000000 1.0
C      1  0.6058120000000  0.4994070000000  0.5412530000000 1.0
C      1  0.4811160000000  0.5054100000000  0.4248890000000 1.0
C      1  0.5141630000000  0.4028870000000  0.5238220000000 1.0
C      1  0.5530330000000  0.5944300000000  0.4738910000000 1.0
C      1  0.5500430000000  0.5327470000000  0.5420120000000 1.0
C      1  0.4768010000000  0.4622950000000  0.5733580000000 1.0
C      1  0.4325020000000  0.4628550000000  0.4453170000000 1.0
C      1  0.5055980000000  0.4873650000000  0.4346010000000 1.0
C      1  0.5548950000000  0.5114970000000  0.4944610000000 1.0
C      1  0.5348440000000  0.5487890000000  0.4911420000000 1.0
C      1  0.4614980000000  0.4244740000000  0.4380330000000 1.0
C      1  0.4616360000000  0.4158310000000  0.4658160000000 1.0
C      1  0.4601920000000  0.4009160000000  0.4956060000000 1.0
C      1  0.3992390000000  0.4939770000000  0.5489660000000 1.0
C      1  0.4436340000000  0.4455980000000  0.5166070000000 1.0
C      1  0.4629710000000  0.5157780000000  0.4489370000000 1.0
C      1  0.5582010000000  0.4732640000000  0.4844740000000 1.0
C      1  0.5085860000000  0.5464200000000  0.4181750000000 1.0
C      1  0.5424240000000  0.5487220000000  0.4390450000000 1.0
C      1  0.5752240000000  0.5103450000000  0.5370420000000 1.0
C      1  0.5445130000000  0.4564890000000  0.4380680000000 1.0
C      1  0.5704080000000  0.4964110000000  0.4279900000000 1.0
C      1  0.5149890000000  0.6079750000000  0.5312190000000 1.0
C      1  0.5657260000000  0.4354270000000  0.5237350000000 1.0
C      1  0.5150300000000  0.5306340000000  0.5933120000000 1.0
C      1  0.4419720000000  0.5905100000000  0.4794810000000 1.0
C      1  0.4545250000000  0.4906170000000  0.4703150000000 1.0
C      1  0.5350720000000  0.4666510000000  0.4650370000000 1.0
C      1  0.5801900000000  0.4562540000000  0.5018050000000 1.0
C      1  0.4622150000000  0.4738120000000  0.5126440000000 1.0
C      1  0.4726370000000  0.5960280000000  0.4696220000000 1.0
C      1  0.4192060000000  0.5044810000000  0.5235160000000 1.0
C      1  0.5176860000000  0.5644910000000  0.4719950000000 1.0
C      1  0.4408040000000  0.4401720000000  0.4277120000000 1.0
C      1  0.5593540000000  0.5334460000000  0.5747200000000 1.0
C      1  0.4036850000000  0.4690420000000  0.5334380000000 1.0
C      1  0.4284470000000  0.4551070000000  0.5428370000000 1.0
C      1  0.4054470000000  0.5089030000000  0.4616970000000 1.0
C      1  0.5100000000000  0.4383320000000  0.5533070000000 1.0
C      1  0.5186600000000  0.5621530000000  0.5690390000000 1.0
C      1  0.5386360000000  0.4351100000000  0.4893510000000 1.0
C      1  0.5163080000000  0.5907440000000  0.5020230000000 1.0
C      1  0.4489730000000  0.4140240000000  0.5177990000000 1.0
C      1  0.5141690000000  0.5324100000000  0.4486530000000 1.0
C      1  0.4532730000000  0.5034930000000  0.5554450000000 1.0
C      1  0.4861000000000  0.4349570000000  0.4300500000000 1.0
C      1  0.4879030000000  0.4107150000000  0.5241410000000 1.0
C      1  0.5459340000000  0.4591540000000  0.6041670000000 1.0
C      1  0.5879160000000  0.4513490000000  0.5406460000000 1.0
C      1  0.4370800000000  0.5359210000000  0.4398720000000 1.0
C      1  0.4866900000000  0.4244530000000  0.5672460000000 1.0
C      1  0.4824150000000  0.5400240000000  0.4585050000000 1.0
C      1  0.5491880000000  0.4087880000000  0.4705850000000 1.0
C      1  0.4696280000000  0.5515780000000  0.4871410000000 1.0
C      1  0.5160860000000  0.5748140000000  0.5386780000000 1.0
C      1  0.3960220000000  0.4346530000000  0.4777270000000 1.0
C      1  0.5934670000000  0.5359200000000  0.4729520000000 1.0
C      1  0.5882090000000  0.4854190000000  0.5173750000000 1.0
C      1  0.4244770000000  0.4975130000000  0.4846770000000 1.0
C      1  0.4968350000000  0.4812450000000  0.5547830000000 1.0
C      1  0.4147270000000  0.5377970000000  0.4627500000000 1.0
C      1  0.5271050000000  0.4810690000000  0.5952240000000 1.0
C      1  0.5834150000000  0.5244770000000  0.4421210000000 1.0
C      1  0.5359140000000  0.5291270000000  0.4116000000000 1.0
C      1  0.5093110000000  0.5710650000000  0.4396340000000 1.0
C      1  0.4831340000000  0.5608920000000  0.5858310000000 1.0
C      1  0.4294820000000  0.4870750000000  0.5829180000000 1.0
C      1  0.3949100000000  0.5048990000000  0.4998350000000 1.0
C      1  0.5392730000000  0.5800690000000  0.4518470000000 1.0
C      1  0.4102430000000  0.4562860000000  0.4868690000000 1.0
C      1  0.5703940000000  0.4638950000000  0.4325840000000 1.0
C      1  0.4856950000000  0.3940230000000  0.4741170000000 1.0
C      1  0.4386360000000  0.5612940000000  0.5305300000000 1.0
C      1  0.4222240000000  0.5128860000000  0.5619750000000 1.0
C      1  0.5075340000000  0.5455450000000  0.5239380000000 1.0
C      1  0.4833060000000  0.4657360000000  0.4206860000000 1.0
C      1  0.4406220000000  0.5651260000000  0.4968000000000 1.0
C      1  0.4856870000000  0.4924670000000  0.6137150000000 1.0
C      1  0.5235080000000  0.5234540000000  0.5611520000000 1.0
C      1  0.5397610000000  0.4543060000000  0.5142770000000 1.0
C      1  0.5393100000000  0.5500670000000  0.5878020000000 1.0
C      1  0.4639060000000  0.5273090000000  0.5077780000000 1.0
C      1  0.4412330000000  0.5621130000000  0.4271540000000 1.0
C      1  0.4022890000000  0.5364560000000  0.5081090000000 1.0
C      1  0.4674660000000  0.5779060000000  0.5235330000000 1.0
C      1  0.5105820000000  0.4580880000000  0.4074130000000 1.0
C      1  0.5877000000000  0.5127980000000  0.4972180000000 1.0
C      1  0.4553420000000  0.4370290000000  0.5662540000000 1.0
C      1  0.5484160000000  0.5656650000000  0.5333080000000 1.0
C      1  0.5126040000000  0.4459520000000  0.4732140000000 1.0
C      1  0.4962390000000  0.4583170000000  0.5294790000000 1.0
C      1  0.4010110000000  0.4733410000000  0.5063280000000 1.0
C      1  0.5545990000000  0.4144670000000  0.5429010000000 1.0
C      1  0.4456330000000  0.5497230000000  0.5787370000000 1.0
C      1  0.5149200000000  0.5097430000000  0.3930490000000 1.0
C      1  0.4602010000000  0.4400270000000  0.4874410000000 1.0
C      1  0.4882190000000  0.5792920000000  0.5576790000000 1.0
C      1  0.5366380000000  0.4977670000000  0.4239570000000 1.0
C      1  0.4535170000000  0.4674120000000  0.4121890000000 1.0
C      1  0.4631930000000  0.4099860000000  0.5471920000000 1.0
C      1  0.4822360000000  0.4776280000000  0.4853670000000 1.0
C      1  0.6077380000000  0.4944710000000  0.4780770000000 1.0
C      1  0.4820730000000  0.4364850000000  0.5109950000000 1.0
C      1  0.4491180000000  0.5855840000000  0.4473920000000 1.0
C      1  0.4469870000000  0.5018420000000  0.5084310000000 1.0
C      1  0.5276890000000  0.4149260000000  0.5446080000000 1.0
C      1  0.4197870000000  0.5091480000000  0.4353960000000 1.0
C      1  0.5700720000000  0.4360050000000  0.4763780000000 1.0
C      1  0.4331150000000  0.4604220000000  0.5756420000000 1.0
C      1  0.5911240000000  0.4796870000000  0.4627600000000 1.0
C      1  0.4933590000000  0.5171260000000  0.5136020000000 1.0
C      1  0.4161660000000  0.5493010000000  0.4873720000000 1.0
C      1  0.4561640000000  0.5678640000000  0.5582730000000 1.0
C      1  0.4985600000000  0.4761870000000  0.5955090000000 1.0
C      1  0.5305420000000  0.4037360000000  0.4996810000000 1.0
C      1  0.5250940000000  0.4421160000000  0.4248730000000 1.0
C      1  0.5273380000000  0.4663860000000  0.5570280000000 1.0
C      1  0.5620740000000  0.5401190000000  0.4632110000000 1.0
C      1  0.4911560000000  0.5766510000000  0.4839950000000 1.0
C      1  0.5474460000000  0.5840400000000  0.5041670000000 1.0
C      1  0.5104150000000  0.4657260000000  0.5007940000000 1.0
C      1  0.5981610000000  0.5714810000000  0.5482730000000 1.0
C      1  0.5730330000000  0.5493610000000  0.4241710000000 1.0
C      1  0.5094910000000  0.4888060000000  0.4683550000000 1.0
C      1  0.5768350000000  0.4673990000000  0.5592230000000 1.0
C      1  0.5148630000000  0.4042910000000  0.4695170000000 1.0
C      1  0.4578800000000  0.4714090000000  0.5463560000000 1.0
C      1  0.5142700000000  0.4995130000000  0.5002800000000 1.0
C      1  0.5810190000000  0.5621080000000  0.5310520000000 1.0
C      1  0.4334410000000  0.4870480000000  0.4278100000000 1.0
C      1  0.5342520000000  0.5120820000000  0.4671450000000 1.0
C      1  0.4202940000000  0.5361260000000  0.5369510000000 1.0
C      1  0.5654090000000  0.5595610000000  0.4888490000000 1.0
C      1  0.4870950000000  0.5958030000000  0.5187610000000 1.0
C      1  0.4658530000000  0.5632710000000  0.4099310000000 1.0
C      1  0.5877110000000  0.5455690000000  0.5063100000000 1.0
C      1  0.4789440000000  0.5023000000000  0.5349680000000 1.0
C      1  0.4853630000000  0.5221540000000  0.6033620000000 1.0
C      1  0.5231450000000  0.4809790000000  0.3983600000000 1.0
C      1  0.5094580000000  0.4273540000000  0.4480990000000 1.0
C      1  0.5522050000000  0.4882250000000  0.5484570000000 1.0
C      1  0.5430880000000  0.5028490000000  0.5777680000000 1.0
C      1  0.5324140000000  0.5248920000000  0.5140060000000 1.0
C      1  0.4593540000000  0.5243910000000  0.5815680000000 1.0
C      1  0.4383380000000  0.4611960000000  0.4758340000000 1.0
C      1  0.4939020000000  0.5401950000000  0.5610770000000 1.0
C      1  0.5623110000000  0.4952210000000  0.4591820000000 1.0
END
