TITL C-2848506-1665-99 0.00485785534252378 125000 -871.615633533058 0 0 159 (C1) n - 1
REM
REM in /home/bkarasulu/work/CARBON/AIRSS/Generating-Clusters/AIREBO/with-SteepDescent/Only-C1/SD-CG-opt/Try1-1.4A-POS3A/HFTN-CG
REM
REM
REM
REM
REM
REM ./C.cell (11c1c37f851c82e70ff6c80c92926a4b)
REM
REM compiler GCC version 9.2.1 20190827 (Red Hat 9.2.1-1)
REM options -cpp -mtune=generic -march=x86-64 -g -O0 -fpre-include=/usr/include/finclude/math-vector-fortran.h
REM seed -473058463 941851549 -135037015 975106338 564734654 -670972778 1214589893 1962681784 -1362100384 -311639729 -293335239 -1446269981 303279401 -1277100486 747583970 1331476307 943606730 -807265322 1398614502 472008361 -1973535275 148922867 1785292783 -1135539984 899567202 -818935200 558486751 -122221419 128229845 -440221746 995524159 1574400811 1944084234
REM
CELL 1.54180   50.00000   50.00000   50.00000   90.00000   90.00000   90.00000
LATT -1
SFAC C  
C      1  0.5517380000000  0.4816300000000  0.5242610000000 1.0
C      1  0.5309510000000  0.5721140000000  0.4399420000000 1.0
C      1  0.5702000000000  0.5618720000000  0.5087910000000 1.0
C      1  0.5775340000000  0.3882910000000  0.4861530000000 1.0
C      1  0.4881850000000  0.5482540000000  0.4284870000000 1.0
C      1  0.5398630000000  0.5634390000000  0.5194730000000 1.0
C      1  0.4956910000000  0.4373710000000  0.5792500000000 1.0
C      1  0.4703640000000  0.5659840000000  0.4514330000000 1.0
C      1  0.4071570000000  0.4691800000000  0.5380520000000 1.0
C      1  0.5196260000000  0.4016880000000  0.4656280000000 1.0
C      1  0.4650220000000  0.4741860000000  0.5902940000000 1.0
C      1  0.4669920000000  0.5000930000000  0.5394750000000 1.0
C      1  0.4870280000000  0.5064870000000  0.3882860000000 1.0
C      1  0.4231320000000  0.4741080000000  0.5018330000000 1.0
C      1  0.4707580000000  0.4650460000000  0.4528720000000 1.0
C      1  0.3777110000000  0.5130560000000  0.4795070000000 1.0
C      1  0.4982400000000  0.4056310000000  0.4887230000000 1.0
C      1  0.4254030000000  0.5678650000000  0.5176540000000 1.0
C      1  0.4385250000000  0.4181060000000  0.4376870000000 1.0
C      1  0.5748850000000  0.4708860000000  0.4577610000000 1.0
C      1  0.4043330000000  0.5586000000000  0.4956600000000 1.0
C      1  0.5319250000000  0.4316530000000  0.5633920000000 1.0
C      1  0.4934980000000  0.5258990000000  0.4705590000000 1.0
C      1  0.5384630000000  0.5675350000000  0.4857400000000 1.0
C      1  0.4341300000000  0.5852450000000  0.4694130000000 1.0
C      1  0.4071960000000  0.4963430000000  0.5174560000000 1.0
C      1  0.4593460000000  0.4444330000000  0.4743090000000 1.0
C      1  0.4606070000000  0.3972330000000  0.4984990000000 1.0
C      1  0.4698470000000  0.5675700000000  0.5729860000000 1.0
C      1  0.5684990000000  0.4529870000000  0.5319760000000 1.0
C      1  0.5132450000000  0.4608090000000  0.5867820000000 1.0
C      1  0.5139530000000  0.5435300000000  0.5532920000000 1.0
C      1  0.4274060000000  0.5424840000000  0.4260030000000 1.0
C      1  0.4851660000000  0.5070920000000  0.4928800000000 1.0
C      1  0.5301080000000  0.4192710000000  0.4474870000000 1.0
C      1  0.5980020000000  0.5088040000000  0.5147390000000 1.0
C      1  0.5261500000000  0.5829020000000  0.5747640000000 1.0
C      1  0.4480830000000  0.4781100000000  0.4379940000000 1.0
C      1  0.5523720000000  0.5706110000000  0.4584760000000 1.0
C      1  0.5753550000000  0.5145330000000  0.4126920000000 1.0
C      1  0.5523720000000  0.4374680000000  0.4886430000000 1.0
C      1  0.5616370000000  0.5245800000000  0.5195690000000 1.0
C      1  0.4601390000000  0.5028810000000  0.4211740000000 1.0
C      1  0.4988270000000  0.4777350000000  0.4956160000000 1.0
C      1  0.5827630000000  0.5216040000000  0.4412800000000 1.0
C      1  0.5237260000000  0.4523440000000  0.5372910000000 1.0
C      1  0.5384780000000  0.5976320000000  0.4988740000000 1.0
C      1  0.4330270000000  0.4303240000000  0.4626330000000 1.0
C      1  0.5075390000000  0.5205040000000  0.5727560000000 1.0
C      1  0.4774040000000  0.5350310000000  0.5666390000000 1.0
C      1  0.4855620000000  0.5890220000000  0.4345900000000 1.0
C      1  0.4481350000000  0.5898920000000  0.5301130000000 1.0
C      1  0.4814550000000  0.4800300000000  0.4059160000000 1.0
C      1  0.5517420000000  0.5146440000000  0.5467710000000 1.0
C      1  0.4382510000000  0.5292820000000  0.4641800000000 1.0
C      1  0.5885170000000  0.4614950000000  0.5078730000000 1.0
C      1  0.4468820000000  0.5833970000000  0.4963540000000 1.0
C      1  0.4245850000000  0.5720150000000  0.5513940000000 1.0
C      1  0.5250610000000  0.4405040000000  0.5087240000000 1.0
C      1  0.5433030000000  0.5210690000000  0.4223560000000 1.0
C      1  0.4418030000000  0.5529390000000  0.5661100000000 1.0
C      1  0.5381220000000  0.4673740000000  0.4809620000000 1.0
C      1  0.5083130000000  0.5546710000000  0.4811550000000 1.0
C      1  0.4282110000000  0.4337580000000  0.4163650000000 1.0
C      1  0.5637950000000  0.4907240000000  0.6030460000000 1.0
C      1  0.4984820000000  0.5875650000000  0.5247150000000 1.0
C      1  0.5701900000000  0.5803310000000  0.5513620000000 1.0
C      1  0.5574480000000  0.4884520000000  0.4963350000000 1.0
C      1  0.5311650000000  0.4706870000000  0.4048730000000 1.0
C      1  0.5252300000000  0.4523960000000  0.4534750000000 1.0
C      1  0.4748650000000  0.5201730000000  0.5971260000000 1.0
C      1  0.4650160000000  0.4076090000000  0.4400090000000 1.0
C      1  0.5277980000000  0.6011460000000  0.5238660000000 1.0
C      1  0.5699010000000  0.5376250000000  0.4892750000000 1.0
C      1  0.4717910000000  0.5424460000000  0.5339160000000 1.0
C      1  0.5195580000000  0.4987320000000  0.4320540000000 1.0
C      1  0.5873790000000  0.5388640000000  0.5620800000000 1.0
C      1  0.5562460000000  0.5243250000000  0.4624940000000 1.0
C      1  0.5408350000000  0.4703550000000  0.5604100000000 1.0
C      1  0.5004610000000  0.5719730000000  0.5614340000000 1.0
C      1  0.5932990000000  0.4841020000000  0.5284370000000 1.0
C      1  0.4587590000000  0.4479950000000  0.5481990000000 1.0
C      1  0.5560900000000  0.4258350000000  0.5436280000000 1.0
C      1  0.5632180000000  0.4071100000000  0.4956740000000 1.0
C      1  0.5208340000000  0.5311930000000  0.5966760000000 1.0
C      1  0.4549870000000  0.4630310000000  0.5002260000000 1.0
C      1  0.5696320000000  0.4867350000000  0.5527250000000 1.0
C      1  0.5757630000000  0.4752860000000  0.5832170000000 1.0
C      1  0.5539570000000  0.4904500000000  0.4135570000000 1.0
C      1  0.5089830000000  0.4845620000000  0.6073890000000 1.0
C      1  0.5726490000000  0.5517050000000  0.4520490000000 1.0
C      1  0.4786310000000  0.4729750000000  0.5225520000000 1.0
C      1  0.4563390000000  0.5346860000000  0.4903460000000 1.0
C      1  0.4912890000000  0.4518340000000  0.5424500000000 1.0
C      1  0.4197780000000  0.5082490000000  0.5620020000000 1.0
C      1  0.5453840000000  0.4497130000000  0.5870460000000 1.0
C      1  0.4004350000000  0.5035810000000  0.4879180000000 1.0
C      1  0.4212500000000  0.4797050000000  0.5607060000000 1.0
C      1  0.4680130000000  0.4248700000000  0.5080490000000 1.0
C      1  0.4745520000000  0.5868460000000  0.5451860000000 1.0
C      1  0.5852820000000  0.4970270000000  0.4607780000000 1.0
C      1  0.5517360000000  0.5220180000000  0.5974430000000 1.0
C      1  0.5334440000000  0.4969060000000  0.6123870000000 1.0
C      1  0.5720920000000  0.4465160000000  0.5653760000000 1.0
C      1  0.4450130000000  0.4402940000000  0.5234580000000 1.0
C      1  0.4714350000000  0.5308770000000  0.4055270000000 1.0
C      1  0.4520550000000  0.4770880000000  0.5596000000000 1.0
C      1  0.4954990000000  0.5116360000000  0.5249160000000 1.0
C      1  0.5421240000000  0.5612390000000  0.5533360000000 1.0
C      1  0.4485360000000  0.5200790000000  0.5599230000000 1.0
C      1  0.4254060000000  0.4983870000000  0.4702240000000 1.0
C      1  0.5804730000000  0.5068930000000  0.4891220000000 1.0
C      1  0.5918800000000  0.5358330000000  0.5298990000000 1.0
C      1  0.4256210000000  0.4602580000000  0.4213220000000 1.0
C      1  0.5242190000000  0.5197250000000  0.4573570000000 1.0
C      1  0.5186700000000  0.5016410000000  0.3982740000000 1.0
C      1  0.5189120000000  0.5463550000000  0.4368870000000 1.0
C      1  0.4390600000000  0.5601220000000  0.4498700000000 1.0
C      1  0.5101710000000  0.4056260000000  0.5206700000000 1.0
C      1  0.5474820000000  0.5998810000000  0.5445010000000 1.0
C      1  0.4179010000000  0.5186530000000  0.5342930000000 1.0
C      1  0.4989720000000  0.6029990000000  0.4962200000000 1.0
C      1  0.5242690000000  0.4982260000000  0.5371750000000 1.0
C      1  0.5879510000000  0.5691600000000  0.5320540000000 1.0
C      1  0.5502610000000  0.4675270000000  0.4360650000000 1.0
C      1  0.4174260000000  0.4738720000000  0.4512810000000 1.0
C      1  0.5764910000000  0.4563420000000  0.4822020000000 1.0
C      1  0.4816110000000  0.4930610000000  0.6026670000000 1.0
C      1  0.5583820000000  0.5357000000000  0.5688770000000 1.0
C      1  0.4096950000000  0.5427790000000  0.4767870000000 1.0
C      1  0.4541720000000  0.4946680000000  0.4877760000000 1.0
C      1  0.4686660000000  0.5629530000000  0.4856830000000 1.0
C      1  0.5088230000000  0.4216590000000  0.4030840000000 1.0
C      1  0.4111690000000  0.4470690000000  0.4669120000000 1.0
C      1  0.4691200000000  0.4466590000000  0.5786830000000 1.0
C      1  0.5049930000000  0.4555850000000  0.4038000000000 1.0
C      1  0.4841860000000  0.4173340000000  0.4232050000000 1.0
C      1  0.4973330000000  0.4779500000000  0.4360150000000 1.0
C      1  0.5167830000000  0.5379800000000  0.5217760000000 1.0
C      1  0.4986810000000  0.4441600000000  0.4338900000000 1.0
C      1  0.5227970000000  0.4976670000000  0.4831970000000 1.0
C      1  0.4054280000000  0.4507290000000  0.4942190000000 1.0
C      1  0.4391050000000  0.5405510000000  0.5259380000000 1.0
C      1  0.4135620000000  0.4434290000000  0.5248570000000 1.0
C      1  0.5060670000000  0.5880370000000  0.4750010000000 1.0
C      1  0.5153310000000  0.4894850000000  0.5683840000000 1.0
C      1  0.5428470000000  0.4133370000000  0.5188100000000 1.0
C      1  0.4968840000000  0.4575880000000  0.4715300000000 1.0
C      1  0.4706510000000  0.4129880000000  0.4701410000000 1.0
C      1  0.4519800000000  0.5136590000000  0.5140110000000 1.0
C      1  0.5049340000000  0.5325510000000  0.4024040000000 1.0
C      1  0.5030430000000  0.4208880000000  0.5502160000000 1.0
C      1  0.4972960000000  0.4376130000000  0.4963800000000 1.0
C      1  0.4675480000000  0.5203310000000  0.4494090000000 1.0
C      1  0.5350490000000  0.5213510000000  0.5000680000000 1.0
C      1  0.5316730000000  0.4134840000000  0.4193770000000 1.0
C      1  0.5110850000000  0.5915400000000  0.4471840000000 1.0
C      1  0.4308600000000  0.5195460000000  0.4165840000000 1.0
C      1  0.4913170000000  0.5574950000000  0.5104700000000 1.0
END
