TITL C-2847949-8115-548 108.16059423091 125000 -992.22803117823 0 0 185 (C1) n - 1
REM
REM in /home/bkarasulu/work/CARBON/AIRSS/Generating-Clusters/AIREBO/with-SteepDescent/Only-C1/SD-CG-opt/Try1-1.4A-POS3A/HFTN-CG
REM
REM
REM
REM
REM
REM ./C.cell (11c1c37f851c82e70ff6c80c92926a4b)
REM
REM compiler GCC version 9.2.1 20190827 (Red Hat 9.2.1-1)
REM options -cpp -mtune=generic -march=x86-64 -g -O0 -fpre-include=/usr/include/finclude/math-vector-fortran.h
REM seed 1742062955 -1909233260 -966061906 865627441 36939724 1914292725 1846677289 -2140661862 -1227569528 331928006 -1599559777 -390468869 -336794158 64490365 1436282498 -1577428121 -38850136 -1464118523 -1534907746 -2053443656 1182304770 1160167002 -876162185 638628333 1506621562 834013854 -251567023 -1372403150 2054939543 -40781433 1207814009 -185152102 105484233
REM
CELL 1.54180   50.00000   50.00000   50.00000   90.00000   90.00000   90.00000
LATT -1
SFAC C  
C      1  0.4764210000000  0.3935280000000  0.5294920000000 1.0
C      1  0.4403430000000  0.4652330000000  0.5388340000000 1.0
C      1  0.4140210000000  0.4836120000000  0.4340620000000 1.0
C      1  0.4222700000000  0.4638010000000  0.5143640000000 1.0
C      1  0.5161650000000  0.4873850000000  0.5584270000000 1.0
C      1  0.6015410000000  0.4902980000000  0.5542300000000 1.0
C      1  0.4441800000000  0.5085350000000  0.5914940000000 1.0
C      1  0.4729070000000  0.5099230000000  0.5091350000000 1.0
C      1  0.5820240000000  0.5490480000000  0.5521050000000 1.0
C      1  0.6014260000000  0.4974390000000  0.4460940000000 1.0
C      1  0.4350780000000  0.5436690000000  0.5570370000000 1.0
C      1  0.4711060000000  0.5877380000000  0.4990280000000 1.0
C      1  0.4323990000000  0.5021960000000  0.4815300000000 1.0
C      1  0.5512870000000  0.4116290000000  0.5546630000000 1.0
C      1  0.5250420000000  0.4084610000000  0.5246130000000 1.0
C      1  0.4128090000000  0.4674220000000  0.5676810000000 1.0
C      1  0.5773280000000  0.5060400000000  0.4238540000000 1.0
C      1  0.5728440000000  0.5367630000000  0.4324320000000 1.0
C      1  0.4794660000000  0.4874160000000  0.3880940000000 1.0
C      1  0.4389780000000  0.4942570000000  0.3628620000000 1.0
C      1  0.4238360000000  0.5613270000000  0.5106790000000 1.0
C      1  0.5881410000000  0.5209750000000  0.5114540000000 1.0
C      1  0.5944270000000  0.4447250000000  0.4870490000000 1.0
C      1  0.4016720000000  0.5066260000000  0.5467210000000 1.0
C      1  0.4348220000000  0.3995960000000  0.4699090000000 1.0
C      1  0.4728440000000  0.4341140000000  0.4724350000000 1.0
C      1  0.5147300000000  0.4070720000000  0.4560860000000 1.0
C      1  0.4499140000000  0.5010960000000  0.4335760000000 1.0
C      1  0.6169070000000  0.5090120000000  0.4987270000000 1.0
C      1  0.5355910000000  0.4774580000000  0.3800290000000 1.0
C      1  0.4669690000000  0.4532890000000  0.5288900000000 1.0
C      1  0.4318290000000  0.5153730000000  0.5078710000000 1.0
C      1  0.5041650000000  0.4578810000000  0.4826000000000 1.0
C      1  0.5227060000000  0.5845880000000  0.4741740000000 1.0
C      1  0.4522530000000  0.4102040000000  0.5311440000000 1.0
C      1  0.5436040000000  0.5783800000000  0.4514860000000 1.0
C      1  0.4672950000000  0.5330320000000  0.5281810000000 1.0
C      1  0.5691210000000  0.5733190000000  0.4610320000000 1.0
C      1  0.4695450000000  0.5694000000000  0.4330670000000 1.0
C      1  0.4414860000000  0.4843460000000  0.5672790000000 1.0
C      1  0.4948920000000  0.4872320000000  0.4502730000000 1.0
C      1  0.4662890000000  0.5122610000000  0.5523440000000 1.0
C      1  0.5596940000000  0.4986690000000  0.5981250000000 1.0
C      1  0.4792540000000  0.6006530000000  0.4702160000000 1.0
C      1  0.4385220000000  0.5925050000000  0.4876280000000 1.0
C      1  0.5609920000000  0.4491010000000  0.4358210000000 1.0
C      1  0.5342570000000  0.4629430000000  0.5326090000000 1.0
C      1  0.4978990000000  0.3970260000000  0.5081870000000 1.0
C      1  0.4565300000000  0.5895960000000  0.5476710000000 1.0
C      1  0.5260840000000  0.5317340000000  0.4681110000000 1.0
C      1  0.5633880000000  0.5141590000000  0.4912370000000 1.0
C      1  0.4993590000000  0.5169490000000  0.5592330000000 1.0
C      1  0.4494710000000  0.5486250000000  0.4343430000000 1.0
C      1  0.4050230000000  0.5056200000000  0.4498030000000 1.0
C      1  0.4732990000000  0.4644270000000  0.4570370000000 1.0
C      1  0.5275150000000  0.4966020000000  0.5882500000000 1.0
C      1  0.5087410000000  0.4895430000000  0.3803260000000 1.0
C      1  0.5608600000000  0.5661720000000  0.5484810000000 1.0
C      1  0.4848650000000  0.4300700000000  0.5430450000000 1.0
C      1  0.5126760000000  0.5206970000000  0.6032510000000 1.0
C      1  0.5721610000000  0.4326790000000  0.5518010000000 1.0
C      1  0.5244440000000  0.4974050000000  0.4636720000000 1.0
C      1  0.4283980000000  0.5242450000000  0.4578180000000 1.0
C      1  0.5562440000000  0.5229710000000  0.5670710000000 1.0
C      1  0.4920720000000  0.4629230000000  0.5787860000000 1.0
C      1  0.5709520000000  0.4779700000000  0.5597960000000 1.0
C      1  0.4529680000000  0.5375080000000  0.5829880000000 1.0
C      1  0.6058930000000  0.5216040000000  0.4690500000000 1.0
C      1  0.5434790000000  0.4679510000000  0.5641950000000 1.0
C      1  0.5027010000000  0.4377540000000  0.4565540000000 1.0
C      1  0.3955610000000  0.5172760000000  0.4788720000000 1.0
C      1  0.4512210000000  0.4910940000000  0.3867910000000 1.0
C      1  0.5543040000000  0.4913450000000  0.4047220000000 1.0
C      1  0.5582600000000  0.4111460000000  0.5213140000000 1.0
C      1  0.5278120000000  0.4756590000000  0.4191910000000 1.0
C      1  0.5542880000000  0.5712140000000  0.5155470000000 1.0
C      1  0.5767110000000  0.5182310000000  0.5403300000000 1.0
C      1  0.5567700000000  0.5522400000000  0.4073590000000 1.0
C      1  0.4432050000000  0.4513270000000  0.4252440000000 1.0
C      1  0.5047860000000  0.5981650000000  0.5646970000000 1.0
C      1  0.5040390000000  0.5347440000000  0.3912170000000 1.0
C      1  0.5974090000000  0.4823980000000  0.4994260000000 1.0
C      1  0.4943940000000  0.5229900000000  0.4907400000000 1.0
C      1  0.4903280000000  0.6022890000000  0.4412150000000 1.0
C      1  0.4672450000000  0.5516630000000  0.4830830000000 1.0
C      1  0.5941120000000  0.4726990000000  0.4684260000000 1.0
C      1  0.5132750000000  0.4375920000000  0.5323840000000 1.0
C      1  0.4564150000000  0.5762820000000  0.4636800000000 1.0
C      1  0.4027500000000  0.5118330000000  0.5177060000000 1.0
C      1  0.6104740000000  0.4926580000000  0.5282310000000 1.0
C      1  0.4922530000000  0.4690000000000  0.5453300000000 1.0
C      1  0.4547140000000  0.4317020000000  0.4437640000000 1.0
C      1  0.4675540000000  0.4812070000000  0.4943090000000 1.0
C      1  0.4347280000000  0.4452010000000  0.5641070000000 1.0
C      1  0.5061500000000  0.4900620000000  0.4910060000000 1.0
C      1  0.5450050000000  0.4404890000000  0.4690770000000 1.0
C      1  0.4733220000000  0.4897490000000  0.5745630000000 1.0
C      1  0.4868210000000  0.5404220000000  0.5802380000000 1.0
C      1  0.4345850000000  0.4896900000000  0.4112160000000 1.0
C      1  0.4815170000000  0.5681670000000  0.5521690000000 1.0
C      1  0.4907430000000  0.5115430000000  0.6186620000000 1.0
C      1  0.5337660000000  0.5999860000000  0.5542830000000 1.0
C      1  0.5230510000000  0.5577020000000  0.4898550000000 1.0
C      1  0.4957290000000  0.4875730000000  0.4179620000000 1.0
C      1  0.4340390000000  0.5160760000000  0.5421380000000 1.0
C      1  0.5418060000000  0.5145570000000  0.5175200000000 1.0
C      1  0.3866360000000  0.4908090000000  0.4983000000000 1.0
C      1  0.5401820000000  0.4440800000000  0.5867200000000 1.0
C      1  0.5449140000000  0.4178720000000  0.4915660000000 1.0
C      1  0.5319400000000  0.6178980000000  0.5077950000000 1.0
C      1  0.4827140000000  0.5134510000000  0.4617230000000 1.0
C      1  0.4949910000000  0.5450300000000  0.4645830000000 1.0
C      1  0.5013430000000  0.5976820000000  0.5229220000000 1.0
C      1  0.5300510000000  0.5672750000000  0.5627860000000 1.0
C      1  0.4907130000000  0.5507030000000  0.5291760000000 1.0
C      1  0.4797130000000  0.4315050000000  0.5827670000000 1.0
C      1  0.4937790000000  0.5624410000000  0.5004930000000 1.0
C      1  0.4633730000000  0.4017930000000  0.4676560000000 1.0
C      1  0.4894140000000  0.4849580000000  0.5201620000000 1.0
C      1  0.5141600000000  0.4475690000000  0.4269400000000 1.0
C      1  0.5778350000000  0.4344960000000  0.5061760000000 1.0
C      1  0.5271490000000  0.5125980000000  0.4333630000000 1.0
C      1  0.4030350000000  0.4365770000000  0.5158330000000 1.0
C      1  0.5638160000000  0.4807010000000  0.4973230000000 1.0
C      1  0.5446490000000  0.4720940000000  0.4741030000000 1.0
C      1  0.4843820000000  0.4048070000000  0.4440830000000 1.0
C      1  0.5058620000000  0.6055530000000  0.4908560000000 1.0
C      1  0.4215900000000  0.5632930000000  0.5431080000000 1.0
C      1  0.4286930000000  0.5564200000000  0.4587430000000 1.0
C      1  0.5930720000000  0.5496840000000  0.4547550000000 1.0
C      1  0.4689770000000  0.4915370000000  0.6074080000000 1.0
C      1  0.4689750000000  0.4575370000000  0.6031570000000 1.0
C      1  0.5156750000000  0.5721950000000  0.5323570000000 1.0
C      1  0.4933140000000  0.5736820000000  0.5831670000000 1.0
C      1  0.4091280000000  0.5458310000000  0.4846750000000 1.0
C      1  0.5289060000000  0.4873780000000  0.5154340000000 1.0
C      1  0.6063090000000  0.5466920000000  0.5053910000000 1.0
C      1  0.5426090000000  0.5392480000000  0.4421040000000 1.0
C      1  0.5455260000000  0.5302130000000  0.5984830000000 1.0
C      1  0.5708620000000  0.4871550000000  0.5287960000000 1.0
C      1  0.4761550000000  0.4597270000000  0.4241560000000 1.0
C      1  0.4873640000000  0.4277580000000  0.4211220000000 1.0
C      1  0.4553370000000  0.4496030000000  0.4971420000000 1.0
C      1  0.4313370000000  0.4692160000000  0.4831030000000 1.0
C      1  0.5536620000000  0.5464110000000  0.4922790000000 1.0
C      1  0.5753800000000  0.5812130000000  0.4908110000000 1.0
C      1  0.4611020000000  0.5250240000000  0.4267740000000 1.0
C      1  0.4188110000000  0.4196980000000  0.4833850000000 1.0
C      1  0.4455040000000  0.5857370000000  0.5202090000000 1.0
C      1  0.5330510000000  0.4178030000000  0.5755010000000 1.0
C      1  0.4588310000000  0.5697300000000  0.5757580000000 1.0
C      1  0.5174440000000  0.4668440000000  0.5942730000000 1.0
C      1  0.5492970000000  0.4695530000000  0.6073150000000 1.0
C      1  0.5526000000000  0.4789690000000  0.4423360000000 1.0
C      1  0.4046090000000  0.4420050000000  0.4718090000000 1.0
C      1  0.3909120000000  0.4676130000000  0.5228360000000 1.0
C      1  0.4563730000000  0.4244310000000  0.5607510000000 1.0
C      1  0.4957580000000  0.4264460000000  0.4960470000000 1.0
C      1  0.5036810000000  0.5752480000000  0.4515780000000 1.0
C      1  0.3946100000000  0.4798180000000  0.5509630000000 1.0
C      1  0.3870060000000  0.4599330000000  0.4840120000000 1.0
C      1  0.5242180000000  0.4406830000000  0.5011440000000 1.0
C      1  0.5218000000000  0.3976210000000  0.4840020000000 1.0
C      1  0.5058660000000  0.4109280000000  0.5794370000000 1.0
C      1  0.5373840000000  0.4273320000000  0.4401920000000 1.0
C      1  0.4842790000000  0.6073070000000  0.5453050000000 1.0
C      1  0.5337470000000  0.5464780000000  0.5266780000000 1.0
C      1  0.5654530000000  0.4535510000000  0.5288140000000 1.0
C      1  0.5846350000000  0.5077700000000  0.5779990000000 1.0
C      1  0.5310860000000  0.5230780000000  0.5486410000000 1.0
C      1  0.5312360000000  0.5647420000000  0.4248900000000 1.0
C      1  0.4482010000000  0.5416650000000  0.5041520000000 1.0
C      1  0.4989260000000  0.5537650000000  0.4258230000000 1.0
C      1  0.5984400000000  0.5626970000000  0.4854490000000 1.0
C      1  0.5488890000000  0.5346090000000  0.3874100000000 1.0
C      1  0.4350030000000  0.4260760000000  0.5108930000000 1.0
C      1  0.4911280000000  0.5214010000000  0.4186800000000 1.0
C      1  0.5425210000000  0.6012360000000  0.5267650000000 1.0
C      1  0.5205660000000  0.5447580000000  0.5805490000000 1.0
C      1  0.4655620000000  0.4407890000000  0.3979650000000 1.0
C      1  0.5272970000000  0.5113200000000  0.3994070000000 1.0
C      1  0.4232330000000  0.4591920000000  0.4516190000000 1.0
C      1  0.4900500000000  0.3992070000000  0.5563460000000 1.0
C      1  0.5722950000000  0.4980970000000  0.4624590000000 1.0
C      1  0.4575210000000  0.4923920000000  0.4638020000000 1.0
END
