TITL C-2847959-7740-238 0.00116791700856367 125000 -188.963288899717 0 0 37 (C1) n - 1
REM
REM in /home/bkarasulu/work/CARBON/AIRSS/Generating-Clusters/AIREBO/with-SteepDescent/Only-C1/SD-CG-opt/Try1-1.4A-POS3A/HFTN-CG
REM
REM
REM
REM
REM
REM ./C.cell (11c1c37f851c82e70ff6c80c92926a4b)
REM
REM compiler GCC version 9.2.1 20190827 (Red Hat 9.2.1-1)
REM options -cpp -mtune=generic -march=x86-64 -g -O0 -fpre-include=/usr/include/finclude/math-vector-fortran.h
REM seed 1929615412 1375351468 1637172316 -562329455 443555897 214677229 2089824116 2022260313 2136915191 -1304249529 1250904505 1685358455 -1220182796 -333692912 -359605413 510517197 662054205 1018101042 1953239860 -994951518 -1985614292 1499982415 1543847404 1347262789 78186312 -24387409 324297198 1564253284 -1509021918 -570405798 -174753057 822774285 1490884901
REM
CELL 1.54180   50.00000   50.00000   50.00000   90.00000   90.00000   90.00000
LATT -1
SFAC C  
C      1  0.5147680000000  0.4957410000000  0.4839460000000 1.0
C      1  0.4994970000000  0.4430690000000  0.5093920000000 1.0
C      1  0.4596850000000  0.5062680000000  0.4737190000000 1.0
C      1  0.4787400000000  0.5357960000000  0.4357240000000 1.0
C      1  0.5048680000000  0.4753330000000  0.5087440000000 1.0
C      1  0.4770620000000  0.4545090000000  0.5309190000000 1.0
C      1  0.4989250000000  0.5604950000000  0.5185380000000 1.0
C      1  0.5182200000000  0.5335040000000  0.5228060000000 1.0
C      1  0.5224970000000  0.5157840000000  0.4584350000000 1.0
C      1  0.5330090000000  0.5505920000000  0.5000170000000 1.0
C      1  0.5104160000000  0.4940610000000  0.4353370000000 1.0
C      1  0.4889410000000  0.4703700000000  0.5497230000000 1.0
C      1  0.5173020000000  0.5463910000000  0.4723380000000 1.0
C      1  0.5204570000000  0.4286620000000  0.5216840000000 1.0
C      1  0.5505640000000  0.4887880000000  0.5228820000000 1.0
C      1  0.4824880000000  0.4879700000000  0.4377470000000 1.0
C      1  0.4666650000000  0.4652240000000  0.5028120000000 1.0
C      1  0.4846650000000  0.5002290000000  0.4959830000000 1.0
C      1  0.5333290000000  0.5138040000000  0.5347660000000 1.0
C      1  0.5421670000000  0.4892320000000  0.5564760000000 1.0
C      1  0.4701670000000  0.4657990000000  0.4518030000000 1.0
C      1  0.5442700000000  0.4819720000000  0.4941010000000 1.0
C      1  0.4973210000000  0.5661080000000  0.4916720000000 1.0
C      1  0.5522370000000  0.5054420000000  0.4708140000000 1.0
C      1  0.5177240000000  0.5079780000000  0.5709520000000 1.0
C      1  0.4894680000000  0.4302420000000  0.4866180000000 1.0
C      1  0.4525910000000  0.4850510000000  0.5245030000000 1.0
C      1  0.4554650000000  0.5131090000000  0.5198600000000 1.0
C      1  0.4587270000000  0.4742370000000  0.4775960000000 1.0
C      1  0.4867400000000  0.5227600000000  0.5197450000000 1.0
C      1  0.4432170000000  0.5211070000000  0.4961460000000 1.0
C      1  0.4678950000000  0.5117950000000  0.4451780000000 1.0
C      1  0.5138930000000  0.4857740000000  0.5379110000000 1.0
C      1  0.5041450000000  0.5419230000000  0.4422990000000 1.0
C      1  0.4875710000000  0.5436390000000  0.5458620000000 1.0
C      1  0.5033550000000  0.5313220000000  0.5666850000000 1.0
C      1  0.5509500000000  0.4559220000000  0.4862690000000 1.0
END
