TITL C-2847948-6138-408 -0.000247996524997684 125000 -728.185878430952 0 0 137 (C1) n - 1
REM
REM in /home/bkarasulu/work/CARBON/AIRSS/Generating-Clusters/AIREBO/with-SteepDescent/Only-C1/SD-CG-opt/Try1-1.4A-POS3A/HFTN-CG
REM
REM
REM
REM
REM
REM ./C.cell (11c1c37f851c82e70ff6c80c92926a4b)
REM
REM compiler GCC version 9.2.1 20190827 (Red Hat 9.2.1-1)
REM options -cpp -mtune=generic -march=x86-64 -g -O0 -fpre-include=/usr/include/finclude/math-vector-fortran.h
REM seed 1026784088 473608430 -1811643699 -255590915 -758293327 1154452615 -1208428331 1712152657 -1088105283 646380218 768249654 38457083 1929232859 1947012329 -1799100347 -1571159834 825530188 -1660000356 891857706 -1677194728 -1316092118 144720172 1215371029 1154011078 -828922384 -1083700006 727398475 -672158680 2027723253 -1045774398 -37071842 -1131478801 1235035056
REM
CELL 1.54180   50.00000   50.00000   50.00000   90.00000   90.00000   90.00000
LATT -1
SFAC C  
C      1  0.4679400000000  0.5331990000000  0.6041060000000 1.0
C      1  0.5795690000000  0.5071550000000  0.4344030000000 1.0
C      1  0.5423700000000  0.5292640000000  0.5695480000000 1.0
C      1  0.5471390000000  0.4390820000000  0.4673440000000 1.0
C      1  0.5189920000000  0.4779380000000  0.5429400000000 1.0
C      1  0.4624700000000  0.5925090000000  0.5265640000000 1.0
C      1  0.5048440000000  0.5485550000000  0.4144740000000 1.0
C      1  0.4398800000000  0.4201120000000  0.4741300000000 1.0
C      1  0.5268130000000  0.4051570000000  0.4725360000000 1.0
C      1  0.4798520000000  0.4197600000000  0.4755400000000 1.0
C      1  0.4333640000000  0.5326770000000  0.4403840000000 1.0
C      1  0.4591100000000  0.5485510000000  0.4369030000000 1.0
C      1  0.5346410000000  0.4492970000000  0.4195730000000 1.0
C      1  0.5651110000000  0.4867490000000  0.4654890000000 1.0
C      1  0.5101610000000  0.4950840000000  0.5921080000000 1.0
C      1  0.4312750000000  0.4762280000000  0.4392690000000 1.0
C      1  0.5829500000000  0.4528550000000  0.4766650000000 1.0
C      1  0.5055830000000  0.4142750000000  0.4559170000000 1.0
C      1  0.4571620000000  0.5972340000000  0.4724250000000 1.0
C      1  0.4520910000000  0.5106880000000  0.6014760000000 1.0
C      1  0.4061700000000  0.5471300000000  0.4550130000000 1.0
C      1  0.5565980000000  0.4944820000000  0.5069330000000 1.0
C      1  0.5947430000000  0.5008480000000  0.4970380000000 1.0
C      1  0.4558690000000  0.4150760000000  0.5233730000000 1.0
C      1  0.5098030000000  0.4412020000000  0.4403280000000 1.0
C      1  0.5566510000000  0.4861940000000  0.4264310000000 1.0
C      1  0.4831860000000  0.5825720000000  0.4795160000000 1.0
C      1  0.4409530000000  0.5293050000000  0.5233170000000 1.0
C      1  0.4431550000000  0.4872780000000  0.5001990000000 1.0
C      1  0.4305430000000  0.5594180000000  0.5143020000000 1.0
C      1  0.4825170000000  0.5096210000000  0.4281370000000 1.0
C      1  0.5577510000000  0.4114530000000  0.4823170000000 1.0
C      1  0.5420070000000  0.4974010000000  0.5576140000000 1.0
C      1  0.5107180000000  0.5710490000000  0.5539870000000 1.0
C      1  0.5576900000000  0.4196490000000  0.5153170000000 1.0
C      1  0.4318350000000  0.4637920000000  0.5477520000000 1.0
C      1  0.4297010000000  0.5602150000000  0.5456420000000 1.0
C      1  0.5601280000000  0.5682720000000  0.4491960000000 1.0
C      1  0.5738700000000  0.4435020000000  0.4476360000000 1.0
C      1  0.5788440000000  0.5299040000000  0.4892430000000 1.0
C      1  0.3928920000000  0.4964290000000  0.5052030000000 1.0
C      1  0.5306680000000  0.5137100000000  0.5974270000000 1.0
C      1  0.4601500000000  0.4435640000000  0.4633750000000 1.0
C      1  0.4563390000000  0.4536490000000  0.4350270000000 1.0
C      1  0.4910800000000  0.5028480000000  0.5737920000000 1.0
C      1  0.4423250000000  0.3929550000000  0.4625510000000 1.0
C      1  0.4219140000000  0.4848900000000  0.5655790000000 1.0
C      1  0.5797240000000  0.5309630000000  0.5416450000000 1.0
C      1  0.5559730000000  0.4447920000000  0.5381580000000 1.0
C      1  0.4811400000000  0.5612610000000  0.5428800000000 1.0
C      1  0.4803230000000  0.4230540000000  0.5409860000000 1.0
C      1  0.5107400000000  0.5022290000000  0.4449110000000 1.0
C      1  0.4685550000000  0.4821470000000  0.5642190000000 1.0
C      1  0.4160370000000  0.4958080000000  0.4841710000000 1.0
C      1  0.4900200000000  0.5417380000000  0.5891620000000 1.0
C      1  0.5560260000000  0.5123180000000  0.5334960000000 1.0
C      1  0.5758670000000  0.5282990000000  0.5753230000000 1.0
C      1  0.5093320000000  0.5991460000000  0.5347500000000 1.0
C      1  0.5061830000000  0.4277260000000  0.5272580000000 1.0
C      1  0.5573310000000  0.4695290000000  0.5614490000000 1.0
C      1  0.5339360000000  0.5004890000000  0.4096800000000 1.0
C      1  0.4897810000000  0.5965970000000  0.5101990000000 1.0
C      1  0.5643040000000  0.4536160000000  0.4229510000000 1.0
C      1  0.5421490000000  0.5543360000000  0.4722620000000 1.0
C      1  0.4194420000000  0.5307670000000  0.5495170000000 1.0
C      1  0.5240000000000  0.5113300000000  0.5220730000000 1.0
C      1  0.4732700000000  0.4425470000000  0.5615460000000 1.0
C      1  0.5032520000000  0.5585970000000  0.4928990000000 1.0
C      1  0.5171460000000  0.5509220000000  0.5768030000000 1.0
C      1  0.5829700000000  0.5227560000000  0.4558520000000 1.0
C      1  0.4529010000000  0.5741860000000  0.5041670000000 1.0
C      1  0.4066990000000  0.5059510000000  0.5531690000000 1.0
C      1  0.5326900000000  0.5569630000000  0.4325990000000 1.0
C      1  0.5362400000000  0.4704690000000  0.5140910000000 1.0
C      1  0.4638920000000  0.5140390000000  0.5390210000000 1.0
C      1  0.5140540000000  0.4614160000000  0.4660550000000 1.0
C      1  0.5182250000000  0.4823230000000  0.4915880000000 1.0
C      1  0.5133760000000  0.5119630000000  0.4835310000000 1.0
C      1  0.4793150000000  0.5367230000000  0.4210450000000 1.0
C      1  0.4878490000000  0.4562540000000  0.4213840000000 1.0
C      1  0.3893930000000  0.4987300000000  0.5319900000000 1.0
C      1  0.5186630000000  0.5954810000000  0.4922870000000 1.0
C      1  0.5439520000000  0.4694320000000  0.4531680000000 1.0
C      1  0.5737960000000  0.5615780000000  0.5539910000000 1.0
C      1  0.4122990000000  0.4324060000000  0.4897350000000 1.0
C      1  0.5334440000000  0.5582830000000  0.3986310000000 1.0
C      1  0.5112900000000  0.5602740000000  0.4592800000000 1.0
C      1  0.4237220000000  0.4253110000000  0.5212700000000 1.0
C      1  0.5278540000000  0.5258610000000  0.4039100000000 1.0
C      1  0.5813770000000  0.4673040000000  0.5403560000000 1.0
C      1  0.5396330000000  0.5730450000000  0.5005470000000 1.0
C      1  0.5530720000000  0.5100070000000  0.4794290000000 1.0
C      1  0.4480430000000  0.5184450000000  0.4918860000000 1.0
C      1  0.4641570000000  0.4701240000000  0.4796750000000 1.0
C      1  0.4931750000000  0.5320480000000  0.4649630000000 1.0
C      1  0.5092550000000  0.5941720000000  0.4610230000000 1.0
C      1  0.5320520000000  0.4237320000000  0.5453820000000 1.0
C      1  0.5223700000000  0.5368550000000  0.5020820000000 1.0
C      1  0.4972990000000  0.4642870000000  0.5653710000000 1.0
C      1  0.5318850000000  0.5242310000000  0.4600710000000 1.0
C      1  0.4539400000000  0.5757670000000  0.5510160000000 1.0
C      1  0.4902280000000  0.4882150000000  0.5052510000000 1.0
C      1  0.4672590000000  0.3998600000000  0.4986010000000 1.0
C      1  0.4867930000000  0.5318060000000  0.5568020000000 1.0
C      1  0.5145960000000  0.5334970000000  0.5411650000000 1.0
C      1  0.4662200000000  0.4572160000000  0.5110630000000 1.0
C      1  0.4690430000000  0.5108250000000  0.4662510000000 1.0
C      1  0.5150740000000  0.4766930000000  0.4228420000000 1.0
C      1  0.5847030000000  0.4870490000000  0.5218050000000 1.0
C      1  0.4564740000000  0.4815130000000  0.5324230000000 1.0
C      1  0.5443230000000  0.5494130000000  0.5421810000000 1.0
C      1  0.4421700000000  0.4432440000000  0.4990690000000 1.0
C      1  0.4566630000000  0.4980650000000  0.4402800000000 1.0
C      1  0.5110530000000  0.4655570000000  0.5950460000000 1.0
C      1  0.5841820000000  0.5808340000000  0.5670020000000 1.0
C      1  0.5915750000000  0.4810540000000  0.4766080000000 1.0
C      1  0.4787540000000  0.5535170000000  0.5116800000000 1.0
C      1  0.4115370000000  0.4744730000000  0.4624310000000 1.0
C      1  0.5059890000000  0.4371480000000  0.4884650000000 1.0
C      1  0.4944020000000  0.4997710000000  0.5342110000000 1.0
C      1  0.4289090000000  0.5060300000000  0.4230960000000 1.0
C      1  0.5545130000000  0.5435850000000  0.5087250000000 1.0
C      1  0.4639510000000  0.4734820000000  0.4097010000000 1.0
C      1  0.4227540000000  0.5253150000000  0.4717850000000 1.0
C      1  0.5355440000000  0.5801270000000  0.5325980000000 1.0
C      1  0.5812630000000  0.5531660000000  0.4645430000000 1.0
C      1  0.5977040000000  0.5365030000000  0.5167560000000 1.0
C      1  0.4716630000000  0.5562970000000  0.4615740000000 1.0
C      1  0.5358890000000  0.4027130000000  0.5604200000000 1.0
C      1  0.5570700000000  0.4485310000000  0.4985120000000 1.0
C      1  0.4445660000000  0.4924500000000  0.5815800000000 1.0
C      1  0.4968650000000  0.4555760000000  0.5122190000000 1.0
C      1  0.4890280000000  0.4843500000000  0.4640350000000 1.0
C      1  0.4797760000000  0.5205310000000  0.5033680000000 1.0
C      1  0.3978780000000  0.4518120000000  0.4709070000000 1.0
C      1  0.4426970000000  0.4330340000000  0.5490750000000 1.0
C      1  0.5260700000000  0.4153370000000  0.5049840000000 1.0
END
