TITL C-2847948-6138-193 -0.00132012522816841 125000 -632.527208515964 0 0 113 (C1) n - 1
REM
REM in /home/bkarasulu/work/CARBON/AIRSS/Generating-Clusters/AIREBO/with-SteepDescent/Only-C1/SD-CG-opt/Try1-1.4A-POS3A/HFTN-CG
REM
REM
REM
REM
REM
REM ./C.cell (11c1c37f851c82e70ff6c80c92926a4b)
REM
REM compiler GCC version 9.2.1 20190827 (Red Hat 9.2.1-1)
REM options -cpp -mtune=generic -march=x86-64 -g -O0 -fpre-include=/usr/include/finclude/math-vector-fortran.h
REM seed 1765823438 -180893646 1293966947 -1671691329 52449399 1561650621 -1193796900 1700676570 -276431211 -738787040 -1051412333 -2011879563 -1073612083 685099197 103989710 -998055997 -1053294149 254838596 -702198662 1227312879 1282035845 -1151540805 -457605550 -101311521 1748425880 483812535 -1044695237 408655605 -1709339825 -795478433 1223752807 500415474 -1002525889
REM
CELL 1.54180   50.00000   50.00000   50.00000   90.00000   90.00000   90.00000
LATT -1
SFAC C  
C      1  0.5931450000000  0.5066840000000  0.5740190000000 1.0
C      1  0.4964270000000  0.5605860000000  0.4565450000000 1.0
C      1  0.4424940000000  0.4901360000000  0.4771190000000 1.0
C      1  0.5650120000000  0.5417160000000  0.4867530000000 1.0
C      1  0.4488920000000  0.4303880000000  0.5331470000000 1.0
C      1  0.5084390000000  0.4200220000000  0.4296260000000 1.0
C      1  0.5021350000000  0.5143260000000  0.4311620000000 1.0
C      1  0.4734260000000  0.4576970000000  0.5647930000000 1.0
C      1  0.4580220000000  0.5361780000000  0.4905040000000 1.0
C      1  0.4366990000000  0.4061680000000  0.5002680000000 1.0
C      1  0.4427990000000  0.5289820000000  0.5671100000000 1.0
C      1  0.4932010000000  0.4924200000000  0.6122960000000 1.0
C      1  0.4113030000000  0.4729310000000  0.5305100000000 1.0
C      1  0.5800670000000  0.5289030000000  0.5320190000000 1.0
C      1  0.5341480000000  0.4346570000000  0.5382420000000 1.0
C      1  0.5122170000000  0.4264670000000  0.4897810000000 1.0
C      1  0.5358940000000  0.5556470000000  0.4966430000000 1.0
C      1  0.4880480000000  0.5438040000000  0.4826370000000 1.0
C      1  0.5411940000000  0.4874660000000  0.4124070000000 1.0
C      1  0.5333340000000  0.4015760000000  0.4440060000000 1.0
C      1  0.4967310000000  0.4997610000000  0.5813680000000 1.0
C      1  0.5397430000000  0.4732160000000  0.4782860000000 1.0
C      1  0.4662460000000  0.5422090000000  0.4099640000000 1.0
C      1  0.5623800000000  0.4817500000000  0.5445520000000 1.0
C      1  0.4780270000000  0.5632690000000  0.5461460000000 1.0
C      1  0.4547220000000  0.5521550000000  0.5266110000000 1.0
C      1  0.5462220000000  0.5235980000000  0.5724300000000 1.0
C      1  0.5294870000000  0.5951220000000  0.4969940000000 1.0
C      1  0.5338650000000  0.5007760000000  0.5167240000000 1.0
C      1  0.5287850000000  0.5258550000000  0.5367960000000 1.0
C      1  0.5806110000000  0.4479510000000  0.5141190000000 1.0
C      1  0.5219980000000  0.5876920000000  0.4710790000000 1.0
C      1  0.4504530000000  0.5184970000000  0.4501220000000 1.0
C      1  0.4866450000000  0.4714550000000  0.4580350000000 1.0
C      1  0.5314970000000  0.4336990000000  0.5102090000000 1.0
C      1  0.5769150000000  0.4527880000000  0.4676450000000 1.0
C      1  0.5854500000000  0.4617110000000  0.5348370000000 1.0
C      1  0.4354120000000  0.4556860000000  0.5179640000000 1.0
C      1  0.4772690000000  0.4560900000000  0.4321270000000 1.0
C      1  0.4852040000000  0.4635170000000  0.4868290000000 1.0
C      1  0.4917860000000  0.5498510000000  0.5691030000000 1.0
C      1  0.5997660000000  0.5643360000000  0.4477730000000 1.0
C      1  0.5040170000000  0.5507990000000  0.5074750000000 1.0
C      1  0.4584050000000  0.4796000000000  0.5567380000000 1.0
C      1  0.5352890000000  0.5045210000000  0.5905410000000 1.0
C      1  0.4602940000000  0.5186050000000  0.5262860000000 1.0
C      1  0.5805680000000  0.4953830000000  0.4965280000000 1.0
C      1  0.5232180000000  0.5468050000000  0.5629970000000 1.0
C      1  0.5197050000000  0.5064840000000  0.6145040000000 1.0
C      1  0.4728120000000  0.5342700000000  0.5824440000000 1.0
C      1  0.5021400000000  0.5141440000000  0.5544080000000 1.0
C      1  0.5845580000000  0.4825230000000  0.4420530000000 1.0
C      1  0.5262050000000  0.5277120000000  0.4467630000000 1.0
C      1  0.5108340000000  0.4663210000000  0.5325320000000 1.0
C      1  0.5592430000000  0.4744860000000  0.4305830000000 1.0
C      1  0.5139050000000  0.4618980000000  0.4470810000000 1.0
C      1  0.5703210000000  0.5542310000000  0.5357550000000 1.0
C      1  0.5114900000000  0.4411890000000  0.4053400000000 1.0
C      1  0.5585090000000  0.4822660000000  0.5124040000000 1.0
C      1  0.5296090000000  0.5570590000000  0.4631980000000 1.0
C      1  0.5363750000000  0.4655410000000  0.5523730000000 1.0
C      1  0.4336020000000  0.5213050000000  0.4785740000000 1.0
C      1  0.5089290000000  0.5814220000000  0.5181820000000 1.0
C      1  0.5031990000000  0.4966700000000  0.5277990000000 1.0
C      1  0.4472900000000  0.4345160000000  0.4936200000000 1.0
C      1  0.4444740000000  0.5516400000000  0.4549950000000 1.0
C      1  0.4523420000000  0.4373440000000  0.4441790000000 1.0
C      1  0.4573600000000  0.5688780000000  0.4998080000000 1.0
C      1  0.4330850000000  0.5644090000000  0.4784970000000 1.0
C      1  0.5815300000000  0.5509010000000  0.4590020000000 1.0
C      1  0.4812390000000  0.4339600000000  0.4957890000000 1.0
C      1  0.4775650000000  0.4220620000000  0.4324770000000 1.0
C      1  0.4902560000000  0.5351140000000  0.5315220000000 1.0
C      1  0.4756940000000  0.4308590000000  0.5268980000000 1.0
C      1  0.5878170000000  0.4816240000000  0.4726990000000 1.0
C      1  0.4895910000000  0.5136520000000  0.4811360000000 1.0
C      1  0.5572950000000  0.5288490000000  0.4578410000000 1.0
C      1  0.5133090000000  0.4884340000000  0.4176270000000 1.0
C      1  0.5161280000000  0.5025470000000  0.4902190000000 1.0
C      1  0.4186950000000  0.5015080000000  0.5307410000000 1.0
C      1  0.4001730000000  0.5195650000000  0.4847120000000 1.0
C      1  0.4301460000000  0.5383730000000  0.5426440000000 1.0
C      1  0.4922230000000  0.5905560000000  0.4711680000000 1.0
C      1  0.5492190000000  0.3819050000000  0.4433410000000 1.0
C      1  0.4374440000000  0.4431930000000  0.4658820000000 1.0
C      1  0.4794380000000  0.4681940000000  0.6148990000000 1.0
C      1  0.4797280000000  0.5032560000000  0.4539660000000 1.0
C      1  0.5521460000000  0.4524870000000  0.5002150000000 1.0
C      1  0.3720270000000  0.5262420000000  0.4835790000000 1.0
C      1  0.4469800000000  0.5287850000000  0.4199400000000 1.0
C      1  0.5134060000000  0.4702990000000  0.4996930000000 1.0
C      1  0.4893940000000  0.4478010000000  0.5435220000000 1.0
C      1  0.5235600000000  0.5764220000000  0.5462260000000 1.0
C      1  0.4079880000000  0.4932350000000  0.4674830000000 1.0
C      1  0.4818830000000  0.5865430000000  0.4981830000000 1.0
C      1  0.4154150000000  0.5273260000000  0.5139990000000 1.0
C      1  0.4917140000000  0.5442860000000  0.4270710000000 1.0
C      1  0.5371420000000  0.5040510000000  0.4671790000000 1.0
C      1  0.5460980000000  0.4528300000000  0.4532720000000 1.0
C      1  0.4657630000000  0.5651980000000  0.4425970000000 1.0
C      1  0.4625400000000  0.4815010000000  0.4964390000000 1.0
C      1  0.4979020000000  0.4657660000000  0.4106670000000 1.0
C      1  0.5218950000000  0.4297030000000  0.4593310000000 1.0
C      1  0.5712630000000  0.5100280000000  0.5557670000000 1.0
C      1  0.4813170000000  0.5027510000000  0.5098070000000 1.0
C      1  0.4119740000000  0.5545050000000  0.4938460000000 1.0
C      1  0.4238130000000  0.4665310000000  0.4663290000000 1.0
C      1  0.5406440000000  0.5547710000000  0.5280750000000 1.0
C      1  0.5244090000000  0.4807390000000  0.5755560000000 1.0
C      1  0.4655510000000  0.5048570000000  0.5692840000000 1.0
C      1  0.5807530000000  0.5222400000000  0.5048050000000 1.0
C      1  0.4742280000000  0.4526380000000  0.5925400000000 1.0
C      1  0.4488160000000  0.4861570000000  0.5270760000000 1.0
END
