TITL C-2847950-6905-370 -0.0029571056370384 125000 -1053.88030190283 0 0 198 (C1) n - 1
REM
REM in /home/bkarasulu/work/CARBON/AIRSS/Generating-Clusters/AIREBO/with-SteepDescent/Only-C1/SD-CG-opt/Try1-1.4A-POS3A/HFTN-CG
REM
REM
REM
REM
REM
REM ./C.cell (11c1c37f851c82e70ff6c80c92926a4b)
REM
REM compiler GCC version 9.2.1 20190827 (Red Hat 9.2.1-1)
REM options -cpp -mtune=generic -march=x86-64 -g -O0 -fpre-include=/usr/include/finclude/math-vector-fortran.h
REM seed 833690004 -712047774 919466616 1516495433 1221285076 -746348440 96950446 -780804761 677249244 2017000938 1352517434 -2618888 -1643186720 1302926472 52883716 -693043935 -1295542981 1475184692 467653141 -1630434856 1097103433 1751170286 817963807 1684740748 -585610150 1056386564 1427374503 829195706 -2140833260 2061547253 1103137379 1569156394 1968658364
REM
CELL 1.54180   50.00000   50.00000   50.00000   90.00000   90.00000   90.00000
LATT -1
SFAC C  
C      1  0.4752980000000  0.4471430000000  0.5073390000000 1.0
C      1  0.5375200000000  0.4415430000000  0.4746490000000 1.0
C      1  0.5301780000000  0.4302670000000  0.5848600000000 1.0
C      1  0.5227290000000  0.5447310000000  0.4885070000000 1.0
C      1  0.6010980000000  0.4242590000000  0.5338470000000 1.0
C      1  0.5785900000000  0.4912650000000  0.4852340000000 1.0
C      1  0.5629630000000  0.5831940000000  0.4351990000000 1.0
C      1  0.5099900000000  0.3824310000000  0.5089710000000 1.0
C      1  0.5632890000000  0.4865830000000  0.4372300000000 1.0
C      1  0.5138110000000  0.3799620000000  0.4742830000000 1.0
C      1  0.5242590000000  0.4741880000000  0.5535350000000 1.0
C      1  0.5493170000000  0.5187640000000  0.6067620000000 1.0
C      1  0.4340490000000  0.5003560000000  0.5745230000000 1.0
C      1  0.4583760000000  0.4316100000000  0.5837650000000 1.0
C      1  0.5554950000000  0.5247300000000  0.4991710000000 1.0
C      1  0.4760170000000  0.3952410000000  0.4471680000000 1.0
C      1  0.4784990000000  0.5099980000000  0.5627480000000 1.0
C      1  0.5009550000000  0.5396530000000  0.3906320000000 1.0
C      1  0.5048110000000  0.6091060000000  0.5325360000000 1.0
C      1  0.5084440000000  0.4409800000000  0.5021050000000 1.0
C      1  0.4602120000000  0.4699570000000  0.3988880000000 1.0
C      1  0.4645270000000  0.4979050000000  0.5894030000000 1.0
C      1  0.5411950000000  0.5331160000000  0.5268220000000 1.0
C      1  0.4125620000000  0.4494300000000  0.4577610000000 1.0
C      1  0.5511150000000  0.5067420000000  0.5686790000000 1.0
C      1  0.5227140000000  0.5610320000000  0.5328840000000 1.0
C      1  0.4940370000000  0.4971470000000  0.6069980000000 1.0
C      1  0.4706670000000  0.5885230000000  0.4613240000000 1.0
C      1  0.4749480000000  0.5506530000000  0.4336230000000 1.0
C      1  0.4179810000000  0.5224930000000  0.5589420000000 1.0
C      1  0.5638060000000  0.5622250000000  0.4882750000000 1.0
C      1  0.4932520000000  0.5322800000000  0.4652560000000 1.0
C      1  0.5088120000000  0.4906540000000  0.5110080000000 1.0
C      1  0.5908090000000  0.5477770000000  0.4941120000000 1.0
C      1  0.4845310000000  0.4453640000000  0.5963870000000 1.0
C      1  0.5342500000000  0.4939820000000  0.4211240000000 1.0
C      1  0.5540470000000  0.4593010000000  0.5466200000000 1.0
C      1  0.4605840000000  0.4208120000000  0.4521320000000 1.0
C      1  0.4324310000000  0.4412240000000  0.4843570000000 1.0
C      1  0.5279010000000  0.5032800000000  0.5363040000000 1.0
C      1  0.4837070000000  0.5407560000000  0.5664300000000 1.0
C      1  0.5181400000000  0.5947020000000  0.4840160000000 1.0
C      1  0.4001890000000  0.5012760000000  0.4597240000000 1.0
C      1  0.5594230000000  0.5718700000000  0.5441220000000 1.0
C      1  0.5053800000000  0.4977370000000  0.5686640000000 1.0
C      1  0.4752850000000  0.5244160000000  0.3897750000000 1.0
C      1  0.4313090000000  0.5391620000000  0.6014700000000 1.0
C      1  0.4425250000000  0.5808170000000  0.4497780000000 1.0
C      1  0.5738960000000  0.4082200000000  0.5296500000000 1.0
C      1  0.5974360000000  0.4543660000000  0.5287720000000 1.0
C      1  0.4797900000000  0.4963970000000  0.3918510000000 1.0
C      1  0.4380550000000  0.5625400000000  0.4244700000000 1.0
C      1  0.4523260000000  0.5589380000000  0.4945080000000 1.0
C      1  0.5356370000000  0.4274250000000  0.5169710000000 1.0
C      1  0.4146020000000  0.4591810000000  0.5537810000000 1.0
C      1  0.5688240000000  0.5368230000000  0.5981460000000 1.0
C      1  0.3937940000000  0.4468910000000  0.4929620000000 1.0
C      1  0.5668290000000  0.4404390000000  0.5213590000000 1.0
C      1  0.4905860000000  0.5480030000000  0.4952860000000 1.0
C      1  0.4655520000000  0.4994980000000  0.5359190000000 1.0
C      1  0.5136590000000  0.4207890000000  0.4308390000000 1.0
C      1  0.4769310000000  0.5070810000000  0.4300120000000 1.0
C      1  0.3878500000000  0.4699740000000  0.4568970000000 1.0
C      1  0.4399580000000  0.4816740000000  0.5507690000000 1.0
C      1  0.4060370000000  0.4792430000000  0.5304410000000 1.0
C      1  0.5938610000000  0.4628750000000  0.4960460000000 1.0
C      1  0.4785500000000  0.4726210000000  0.5296260000000 1.0
C      1  0.4703360000000  0.5154600000000  0.4840480000000 1.0
C      1  0.5596460000000  0.4444600000000  0.5752280000000 1.0
C      1  0.4598880000000  0.4792090000000  0.4567960000000 1.0
C      1  0.4023830000000  0.4984050000000  0.4935410000000 1.0
C      1  0.5002020000000  0.5718230000000  0.4255310000000 1.0
C      1  0.5029740000000  0.4902050000000  0.4159490000000 1.0
C      1  0.5619580000000  0.4645860000000  0.4038680000000 1.0
C      1  0.5061310000000  0.6214520000000  0.5011780000000 1.0
C      1  0.5391660000000  0.5767250000000  0.4551720000000 1.0
C      1  0.4579550000000  0.5188350000000  0.4525210000000 1.0
C      1  0.4523740000000  0.4886630000000  0.4255660000000 1.0
C      1  0.6051660000000  0.5052760000000  0.4729690000000 1.0
C      1  0.4371720000000  0.5672420000000  0.5621910000000 1.0
C      1  0.5612090000000  0.5275230000000  0.5487290000000 1.0
C      1  0.4221650000000  0.5462300000000  0.5768000000000 1.0
C      1  0.5106490000000  0.4599180000000  0.4750530000000 1.0
C      1  0.4289360000000  0.5804610000000  0.4969410000000 1.0
C      1  0.5863620000000  0.5445720000000  0.4486370000000 1.0
C      1  0.5172180000000  0.5425340000000  0.5609220000000 1.0
C      1  0.5495370000000  0.5384600000000  0.4685490000000 1.0
C      1  0.5704910000000  0.5568140000000  0.4255380000000 1.0
C      1  0.4337280000000  0.5130670000000  0.4212350000000 1.0
C      1  0.4782250000000  0.5240300000000  0.5159960000000 1.0
C      1  0.5282850000000  0.4009900000000  0.5381490000000 1.0
C      1  0.5062480000000  0.4096840000000  0.4889790000000 1.0
C      1  0.5849810000000  0.5273930000000  0.5730400000000 1.0
C      1  0.4370970000000  0.5180270000000  0.4907330000000 1.0
C      1  0.4634120000000  0.4650860000000  0.5801670000000 1.0
C      1  0.5830460000000  0.4226300000000  0.4973400000000 1.0
C      1  0.4723140000000  0.4283090000000  0.4791840000000 1.0
C      1  0.5848770000000  0.5504990000000  0.5479780000000 1.0
C      1  0.4643300000000  0.4507940000000  0.5493150000000 1.0
C      1  0.5970600000000  0.4567220000000  0.4627590000000 1.0
C      1  0.4848100000000  0.4297600000000  0.5353650000000 1.0
C      1  0.4804600000000  0.5451400000000  0.5983830000000 1.0
C      1  0.4641240000000  0.5563750000000  0.5477610000000 1.0
C      1  0.5777820000000  0.4383250000000  0.4533430000000 1.0
C      1  0.5432200000000  0.5438850000000  0.4144030000000 1.0
C      1  0.4342730000000  0.4284520000000  0.5158360000000 1.0
C      1  0.4081790000000  0.5280130000000  0.5048890000000 1.0
C      1  0.5284690000000  0.4881860000000  0.4764830000000 1.0
C      1  0.4467230000000  0.4174980000000  0.5627640000000 1.0
C      1  0.5013160000000  0.5886940000000  0.4550580000000 1.0
C      1  0.5609990000000  0.4554610000000  0.4914160000000 1.0
C      1  0.5388730000000  0.5668570000000  0.5707580000000 1.0
C      1  0.6142670000000  0.4894020000000  0.5021460000000 1.0
C      1  0.4306390000000  0.4140690000000  0.4548120000000 1.0
C      1  0.3859380000000  0.5321130000000  0.4624110000000 1.0
C      1  0.4681030000000  0.5959090000000  0.5467670000000 1.0
C      1  0.4815190000000  0.3822790000000  0.4735800000000 1.0
C      1  0.4020130000000  0.5573700000000  0.4786210000000 1.0
C      1  0.4124710000000  0.4912260000000  0.4296370000000 1.0
C      1  0.5562930000000  0.4874940000000  0.4674230000000 1.0
C      1  0.4975780000000  0.4568260000000  0.4373260000000 1.0
C      1  0.5583930000000  0.5622640000000  0.5950310000000 1.0
C      1  0.4417480000000  0.4591930000000  0.5253140000000 1.0
C      1  0.5427010000000  0.5213440000000  0.4398600000000 1.0
C      1  0.5077100000000  0.4618060000000  0.5289720000000 1.0
C      1  0.5368260000000  0.6089440000000  0.5087590000000 1.0
C      1  0.4827230000000  0.4858610000000  0.4899280000000 1.0
C      1  0.5023400000000  0.5266430000000  0.6086550000000 1.0
C      1  0.5332700000000  0.5928800000000  0.5384500000000 1.0
C      1  0.5712310000000  0.5946950000000  0.5265470000000 1.0
C      1  0.5947000000000  0.4826280000000  0.4496850000000 1.0
C      1  0.4192890000000  0.4625660000000  0.4298200000000 1.0
C      1  0.4483590000000  0.5959980000000  0.5203930000000 1.0
C      1  0.5513810000000  0.5154250000000  0.4012700000000 1.0
C      1  0.5240030000000  0.5185370000000  0.5840530000000 1.0
C      1  0.4945460000000  0.3980500000000  0.5349710000000 1.0
C      1  0.5641500000000  0.4776980000000  0.5803310000000 1.0
C      1  0.4671710000000  0.4423180000000  0.4322970000000 1.0
C      1  0.3865090000000  0.4701400000000  0.4968000000000 1.0
C      1  0.4060060000000  0.4217400000000  0.4754710000000 1.0
C      1  0.4536930000000  0.5433250000000  0.5223410000000 1.0
C      1  0.4420780000000  0.4511940000000  0.4175930000000 1.0
C      1  0.6008470000000  0.5350930000000  0.4704500000000 1.0
C      1  0.5909450000000  0.5350100000000  0.5195620000000 1.0
C      1  0.5291380000000  0.4451210000000  0.4430480000000 1.0
C      1  0.5092180000000  0.5797520000000  0.5725300000000 1.0
C      1  0.5334020000000  0.5700840000000  0.5018940000000 1.0
C      1  0.5118650000000  0.4586740000000  0.5811590000000 1.0
C      1  0.5583580000000  0.4530660000000  0.4342130000000 1.0
C      1  0.4266660000000  0.5382770000000  0.4370170000000 1.0
C      1  0.5768290000000  0.5042830000000  0.5159930000000 1.0
C      1  0.4553910000000  0.5515700000000  0.4614320000000 1.0
C      1  0.4287460000000  0.4808390000000  0.5051050000000 1.0
C      1  0.4245980000000  0.5385120000000  0.4675710000000 1.0
C      1  0.4547520000000  0.4665680000000  0.4883990000000 1.0
C      1  0.4176960000000  0.5856240000000  0.4675610000000 1.0
C      1  0.5393470000000  0.4102390000000  0.4811450000000 1.0
C      1  0.5481010000000  0.3963710000000  0.5109300000000 1.0
C      1  0.5181470000000  0.5593210000000  0.4059840000000 1.0
C      1  0.5249280000000  0.5139460000000  0.4956160000000 1.0
C      1  0.5853410000000  0.5165310000000  0.4006910000000 1.0
C      1  0.5757650000000  0.5178880000000  0.4326830000000 1.0
C      1  0.3981020000000  0.5037680000000  0.5405530000000 1.0
C      1  0.4551200000000  0.5372360000000  0.4093980000000 1.0
C      1  0.5140060000000  0.5588050000000  0.4598490000000 1.0
C      1  0.4735980000000  0.4021290000000  0.4968440000000 1.0
C      1  0.5436470000000  0.4894740000000  0.6037530000000 1.0
C      1  0.4837120000000  0.5746390000000  0.5876700000000 1.0
C      1  0.4779770000000  0.5777120000000  0.4902050000000 1.0
C      1  0.5034260000000  0.5248860000000  0.5353300000000 1.0
C      1  0.4931960000000  0.5730260000000  0.5448010000000 1.0
C      1  0.5044510000000  0.4322490000000  0.5610790000000 1.0
C      1  0.4243900000000  0.5772010000000  0.5356480000000 1.0
C      1  0.5060650000000  0.3995370000000  0.4473540000000 1.0
C      1  0.5611620000000  0.5965520000000  0.4647210000000 1.0
C      1  0.5705130000000  0.4193570000000  0.4724370000000 1.0
C      1  0.5361280000000  0.4719630000000  0.5029660000000 1.0
C      1  0.4339450000000  0.4998760000000  0.4635510000000 1.0
C      1  0.4537700000000  0.4044370000000  0.5178450000000 1.0
C      1  0.4611580000000  0.5856890000000  0.5747350000000 1.0
C      1  0.5421670000000  0.4226970000000  0.5558040000000 1.0
C      1  0.4803240000000  0.6011270000000  0.5099510000000 1.0
C      1  0.5999320000000  0.4874000000000  0.5334700000000 1.0
C      1  0.4246440000000  0.4316880000000  0.5483530000000 1.0
C      1  0.4909220000000  0.4604640000000  0.4046480000000 1.0
C      1  0.4983750000000  0.5293010000000  0.4229500000000 1.0
C      1  0.5114070000000  0.5113450000000  0.4487220000000 1.0
C      1  0.4056410000000  0.5611190000000  0.5122640000000 1.0
C      1  0.4555280000000  0.5273210000000  0.6039120000000 1.0
C      1  0.5570140000000  0.4791590000000  0.5233230000000 1.0
C      1  0.5019240000000  0.4295250000000  0.4074080000000 1.0
C      1  0.5634610000000  0.5955000000000  0.4951120000000 1.0
C      1  0.4935790000000  0.4837100000000  0.4577680000000 1.0
C      1  0.5561550000000  0.4841440000000  0.3893010000000 1.0
C      1  0.5890370000000  0.4950250000000  0.5647880000000 1.0
C      1  0.5168550000000  0.4806650000000  0.6028550000000 1.0
C      1  0.4277680000000  0.5294520000000  0.5294450000000 1.0
C      1  0.4622270000000  0.3987690000000  0.5456350000000 1.0
END
